data_image0
_cell_length_a       37.171
_cell_length_b       37.171
_cell_length_c       15.907
_cell_angle_alpha    90
_cell_angle_beta     90
_cell_angle_gamma    120

_symmetry_space_group_name_H-M    "P 1"
_symmetry_int_tables_number       1

loop_
  _symmetry_equiv_pos_as_xyz
  'x, y, z'

loop_
  _atom_site_label
  _atom_site_occupancy
  _atom_site_fract_x
  _atom_site_fract_y
  _atom_site_fract_z
  _atom_site_thermal_displace_type
  _atom_site_B_iso_or_equiv
  _atom_site_type_symbol
  Cu1      1.0000 0.29668  0.30000  0.25070  Biso   1.000  Cu
  Cu2      1.0000 0.70000  0.99668  0.25070  Biso   1.000  Cu
  Cu3      1.0000 0.00332  0.70332  0.25070  Biso   1.000  Cu
  Cu4      1.0000 0.30000  0.29668  0.74930  Biso   1.000  Cu
  Cu5      1.0000 0.99668  0.70000  0.74930  Biso   1.000  Cu
  Cu6      1.0000 0.70332  0.00332  0.74930  Biso   1.000  Cu
  Cu7      1.0000 0.96335  0.63333  0.58403  Biso   1.000  Cu
  Cu8      1.0000 0.36667  0.33001  0.58403  Biso   1.000  Cu
  Cu9      1.0000 0.66999  0.03665  0.58403  Biso   1.000  Cu
  Cu10     1.0000 0.96667  0.63001  0.08263  Biso   1.000  Cu
  Cu11     1.0000 0.66335  0.03333  0.08263  Biso   1.000  Cu
  Cu12     1.0000 0.36999  0.33665  0.08263  Biso   1.000  Cu
  Cu13     1.0000 0.63001  0.96667  0.91737  Biso   1.000  Cu
  Cu14     1.0000 0.03333  0.66335  0.91737  Biso   1.000  Cu
  Cu15     1.0000 0.33665  0.36999  0.91737  Biso   1.000  Cu
  Cu16     1.0000 0.63333  0.96335  0.41597  Biso   1.000  Cu
  Cu17     1.0000 0.33001  0.36667  0.41597  Biso   1.000  Cu
  Cu18     1.0000 0.03665  0.66999  0.41597  Biso   1.000  Cu
  Cu19     1.0000 0.70332  0.70000  0.74930  Biso   1.000  Cu
  Cu20     1.0000 0.30000  0.00332  0.74930  Biso   1.000  Cu
  Cu21     1.0000 0.99668  0.29668  0.74930  Biso   1.000  Cu
  Cu22     1.0000 0.70000  0.70332  0.25070  Biso   1.000  Cu
  Cu23     1.0000 0.00332  0.30000  0.25070  Biso   1.000  Cu
  Cu24     1.0000 0.29668  0.99668  0.25070  Biso   1.000  Cu
  Cu25     1.0000 0.36999  0.03333  0.08263  Biso   1.000  Cu
  Cu26     1.0000 0.96667  0.33665  0.08263  Biso   1.000  Cu
  Cu27     1.0000 0.66335  0.63001  0.08263  Biso   1.000  Cu
  Cu28     1.0000 0.36667  0.03665  0.58403  Biso   1.000  Cu
  Cu29     1.0000 0.66999  0.63333  0.58403  Biso   1.000  Cu
  Cu30     1.0000 0.96335  0.33001  0.58403  Biso   1.000  Cu
  Cu31     1.0000 0.03665  0.36667  0.41597  Biso   1.000  Cu
  Cu32     1.0000 0.63333  0.66999  0.41597  Biso   1.000  Cu
  Cu33     1.0000 0.33001  0.96335  0.41597  Biso   1.000  Cu
  Cu34     1.0000 0.03333  0.36999  0.91737  Biso   1.000  Cu
  Cu35     1.0000 0.33665  0.96667  0.91737  Biso   1.000  Cu
  Cu36     1.0000 0.63001  0.66335  0.91737  Biso   1.000  Cu
  Cl1      1.0000 0.26414  0.33333  0.33333  Biso   1.000  Cl
  Cl2      1.0000 0.66667  0.93081  0.33333  Biso   1.000  Cl
  Cl3      1.0000 0.06919  0.73586  0.33333  Biso   1.000  Cl
  Cl4      1.0000 0.33333  0.26414  0.66667  Biso   1.000  Cl
  Cl5      1.0000 0.93081  0.66667  0.66667  Biso   1.000  Cl
  Cl6      1.0000 0.73586  0.06919  0.66667  Biso   1.000  Cl
  Cl7      1.0000 1.00000  0.59747  0.00000  Biso   1.000  Cl
  Cl8      1.0000 0.59748  0.00000  0.00000  Biso   1.000  Cl
  Cl9      1.0000 0.40253  0.40252  0.00000  Biso   1.000  Cl
  Cl10     1.0000 0.73586  0.66667  0.66667  Biso   1.000  Cl
  Cl11     1.0000 0.33333  0.06919  0.66667  Biso   1.000  Cl
  Cl12     1.0000 0.93081  0.26414  0.66667  Biso   1.000  Cl
  Cl13     1.0000 0.66667  0.73586  0.33333  Biso   1.000  Cl
  Cl14     1.0000 0.06919  0.33333  0.33333  Biso   1.000  Cl
  Cl15     1.0000 0.26414  0.93081  0.33333  Biso   1.000  Cl
  Cl16     1.0000 0.40253  0.00000  0.00000  Biso   1.000  Cl
  Cl17     1.0000 1.00000  0.40252  0.00000  Biso   1.000  Cl
  Cl18     1.0000 0.59748  0.59747  0.00000  Biso   1.000  Cl
  Cl19     1.0000 0.24923  0.23299  0.22935  Biso   1.000  Cl
  Cl20     1.0000 0.76701  0.01624  0.22935  Biso   1.000  Cl
  Cl21     1.0000 0.98376  0.75077  0.22935  Biso   1.000  Cl
  Cl22     1.0000 0.23299  0.24923  0.77065  Biso   1.000  Cl
  Cl23     1.0000 0.01624  0.76701  0.77065  Biso   1.000  Cl
  Cl24     1.0000 0.75077  0.98376  0.77065  Biso   1.000  Cl
  Cl25     1.0000 0.91590  0.56632  0.56268  Biso   1.000  Cl
  Cl26     1.0000 0.43368  0.34957  0.56268  Biso   1.000  Cl
  Cl27     1.0000 0.65043  0.08410  0.56268  Biso   1.000  Cl
  Cl28     1.0000 0.89966  0.58256  0.10398  Biso   1.000  Cl
  Cl29     1.0000 0.68291  0.10034  0.10398  Biso   1.000  Cl
  Cl30     1.0000 0.41744  0.31709  0.10398  Biso   1.000  Cl
  Cl31     1.0000 0.58256  0.89966  0.89602  Biso   1.000  Cl
  Cl32     1.0000 0.10034  0.68291  0.89602  Biso   1.000  Cl
  Cl33     1.0000 0.31709  0.41744  0.89602  Biso   1.000  Cl
  Cl34     1.0000 0.56632  0.91590  0.43732  Biso   1.000  Cl
  Cl35     1.0000 0.34957  0.43368  0.43732  Biso   1.000  Cl
  Cl36     1.0000 0.08410  0.65043  0.43732  Biso   1.000  Cl
  Cl37     1.0000 0.75077  0.76701  0.77065  Biso   1.000  Cl
  Cl38     1.0000 0.23299  0.98376  0.77065  Biso   1.000  Cl
  Cl39     1.0000 0.01624  0.24923  0.77065  Biso   1.000  Cl
  Cl40     1.0000 0.76701  0.75077  0.22935  Biso   1.000  Cl
  Cl41     1.0000 0.98376  0.23299  0.22935  Biso   1.000  Cl
  Cl42     1.0000 0.24923  0.01624  0.22935  Biso   1.000  Cl
  Cl43     1.0000 0.41744  0.10034  0.10398  Biso   1.000  Cl
  Cl44     1.0000 0.89966  0.31709  0.10398  Biso   1.000  Cl
  Cl45     1.0000 0.68291  0.58256  0.10398  Biso   1.000  Cl
  Cl46     1.0000 0.43368  0.08410  0.56268  Biso   1.000  Cl
  Cl47     1.0000 0.65043  0.56632  0.56268  Biso   1.000  Cl
  Cl48     1.0000 0.91590  0.34957  0.56268  Biso   1.000  Cl
  Cl49     1.0000 0.08410  0.43368  0.43732  Biso   1.000  Cl
  Cl50     1.0000 0.56632  0.65043  0.43732  Biso   1.000  Cl
  Cl51     1.0000 0.34957  0.91590  0.43732  Biso   1.000  Cl
  Cl52     1.0000 0.10034  0.41744  0.89602  Biso   1.000  Cl
  Cl53     1.0000 0.31709  0.89966  0.89602  Biso   1.000  Cl
  Cl54     1.0000 0.58256  0.68291  0.89602  Biso   1.000  Cl
  N1       1.0000 0.35273  0.35464  0.24960  Biso   1.000  N
  N2       1.0000 0.64536  0.99809  0.24960  Biso   1.000  N
  N3       1.0000 0.00191  0.64727  0.24960  Biso   1.000  N
  N4       1.0000 0.35464  0.35273  0.75040  Biso   1.000  N
  N5       1.0000 0.99809  0.64536  0.75040  Biso   1.000  N
  N6       1.0000 0.64727  0.00191  0.75040  Biso   1.000  N
  N7       1.0000 0.01940  0.68797  0.58293  Biso   1.000  N
  N8       1.0000 0.31203  0.33142  0.58293  Biso   1.000  N
  N9       1.0000 0.66858  0.98060  0.58293  Biso   1.000  N
  N10      1.0000 0.02131  0.68606  0.08373  Biso   1.000  N
  N11      1.0000 0.66476  0.97869  0.08373  Biso   1.000  N
  N12      1.0000 0.31394  0.33524  0.08373  Biso   1.000  N
  N13      1.0000 0.68606  0.02131  0.91627  Biso   1.000  N
  N14      1.0000 0.97869  0.66476  0.91627  Biso   1.000  N
  N15      1.0000 0.33524  0.31394  0.91627  Biso   1.000  N
  N16      1.0000 0.68797  0.01940  0.41707  Biso   1.000  N
  N17      1.0000 0.33142  0.31203  0.41707  Biso   1.000  N
  N18      1.0000 0.98060  0.66858  0.41707  Biso   1.000  N
  N19      1.0000 0.64727  0.64536  0.75040  Biso   1.000  N
  N20      1.0000 0.35464  0.00191  0.75040  Biso   1.000  N
  N21      1.0000 0.99809  0.35273  0.75040  Biso   1.000  N
  N22      1.0000 0.64536  0.64727  0.24960  Biso   1.000  N
  N23      1.0000 0.00191  0.35464  0.24960  Biso   1.000  N
  N24      1.0000 0.35273  0.99809  0.24960  Biso   1.000  N
  N25      1.0000 0.31394  0.97869  0.08373  Biso   1.000  N
  N26      1.0000 0.02131  0.33524  0.08373  Biso   1.000  N
  N27      1.0000 0.66476  0.68606  0.08373  Biso   1.000  N
  N28      1.0000 0.31203  0.98060  0.58293  Biso   1.000  N
  N29      1.0000 0.66858  0.68797  0.58293  Biso   1.000  N
  N30      1.0000 0.01940  0.33142  0.58293  Biso   1.000  N
  N31      1.0000 0.98060  0.31203  0.41707  Biso   1.000  N
  N32      1.0000 0.68797  0.66858  0.41707  Biso   1.000  N
  N33      1.0000 0.33142  0.01940  0.41707  Biso   1.000  N
  N34      1.0000 0.97869  0.31394  0.91627  Biso   1.000  N
  N35      1.0000 0.33524  0.02131  0.91627  Biso   1.000  N
  N36      1.0000 0.68606  0.66476  0.91627  Biso   1.000  N
  N37      1.0000 0.36670  0.37980  0.31650  Biso   1.000  N
  N38      1.0000 0.62020  0.98690  0.31650  Biso   1.000  N
  N39      1.0000 0.01310  0.63330  0.31650  Biso   1.000  N
  N40      1.0000 0.37980  0.36670  0.68350  Biso   1.000  N
  N41      1.0000 0.98690  0.62020  0.68350  Biso   1.000  N
  N42      1.0000 0.63330  0.01310  0.68350  Biso   1.000  N
  N43      1.0000 0.03337  0.71313  0.64983  Biso   1.000  N
  N44      1.0000 0.28687  0.32023  0.64983  Biso   1.000  N
  N45      1.0000 0.67977  0.96663  0.64983  Biso   1.000  N
  N46      1.0000 0.04647  0.70003  0.01683  Biso   1.000  N
  N47      1.0000 0.65357  0.95353  0.01683  Biso   1.000  N
  N48      1.0000 0.29997  0.34643  0.01683  Biso   1.000  N
  N49      1.0000 0.70003  0.04647  0.98317  Biso   1.000  N
  N50      1.0000 0.95353  0.65357  0.98317  Biso   1.000  N
  N51      1.0000 0.34643  0.29997  0.98317  Biso   1.000  N
  N52      1.0000 0.71313  0.03337  0.35017  Biso   1.000  N
  N53      1.0000 0.32023  0.28687  0.35017  Biso   1.000  N
  N54      1.0000 0.96663  0.67977  0.35017  Biso   1.000  N
  N55      1.0000 0.63330  0.62020  0.68350  Biso   1.000  N
  N56      1.0000 0.37980  0.01310  0.68350  Biso   1.000  N
  N57      1.0000 0.98690  0.36670  0.68350  Biso   1.000  N
  N58      1.0000 0.62020  0.63330  0.31650  Biso   1.000  N
  N59      1.0000 0.01310  0.37980  0.31650  Biso   1.000  N
  N60      1.0000 0.36670  0.98690  0.31650  Biso   1.000  N
  N61      1.0000 0.29997  0.95353  0.01683  Biso   1.000  N
  N62      1.0000 0.04647  0.34643  0.01683  Biso   1.000  N
  N63      1.0000 0.65357  0.70003  0.01683  Biso   1.000  N
  N64      1.0000 0.28687  0.96663  0.64983  Biso   1.000  N
  N65      1.0000 0.67977  0.71313  0.64983  Biso   1.000  N
  N66      1.0000 0.03337  0.32023  0.64983  Biso   1.000  N
  N67      1.0000 0.96663  0.28687  0.35017  Biso   1.000  N
  N68      1.0000 0.71313  0.67977  0.35017  Biso   1.000  N
  N69      1.0000 0.32023  0.03337  0.35017  Biso   1.000  N
  N70      1.0000 0.95353  0.29997  0.98317  Biso   1.000  N
  N71      1.0000 0.34643  0.04647  0.98317  Biso   1.000  N
  N72      1.0000 0.70003  0.65357  0.98317  Biso   1.000  N
  N73      1.0000 0.38200  0.36490  0.19290  Biso   1.000  N
  N74      1.0000 0.63510  0.01710  0.19290  Biso   1.000  N
  N75      1.0000 0.98290  0.61800  0.19290  Biso   1.000  N
  N76      1.0000 0.36490  0.38200  0.80710  Biso   1.000  N
  N77      1.0000 0.01710  0.63510  0.80710  Biso   1.000  N
  N78      1.0000 0.61800  0.98290  0.80710  Biso   1.000  N
  N79      1.0000 0.04867  0.69823  0.52623  Biso   1.000  N
  N80      1.0000 0.30177  0.35043  0.52623  Biso   1.000  N
  N81      1.0000 0.64957  0.95133  0.52623  Biso   1.000  N
  N82      1.0000 0.03157  0.71533  0.14043  Biso   1.000  N
  N83      1.0000 0.68377  0.96843  0.14043  Biso   1.000  N
  N84      1.0000 0.28467  0.31623  0.14043  Biso   1.000  N
  N85      1.0000 0.71533  0.03157  0.85957  Biso   1.000  N
  N86      1.0000 0.96843  0.68377  0.85957  Biso   1.000  N
  N87      1.0000 0.31623  0.28467  0.85957  Biso   1.000  N
  N88      1.0000 0.69823  0.04867  0.47377  Biso   1.000  N
  N89      1.0000 0.35043  0.30177  0.47377  Biso   1.000  N
  N90      1.0000 0.95133  0.64957  0.47377  Biso   1.000  N
  N91      1.0000 0.61800  0.63510  0.80710  Biso   1.000  N
  N92      1.0000 0.36490  0.98290  0.80710  Biso   1.000  N
  N93      1.0000 0.01710  0.38200  0.80710  Biso   1.000  N
  N94      1.0000 0.63510  0.61800  0.19290  Biso   1.000  N
  N95      1.0000 0.98290  0.36490  0.19290  Biso   1.000  N
  N96      1.0000 0.38200  0.01710  0.19290  Biso   1.000  N
  N97      1.0000 0.28467  0.96843  0.14043  Biso   1.000  N
  N98      1.0000 0.03157  0.31623  0.14043  Biso   1.000  N
  N99      1.0000 0.68377  0.71533  0.14043  Biso   1.000  N
  N100     1.0000 0.30177  0.95133  0.52623  Biso   1.000  N
  N101     1.0000 0.64957  0.69823  0.52623  Biso   1.000  N
  N102     1.0000 0.04867  0.35043  0.52623  Biso   1.000  N
  N103     1.0000 0.95133  0.30177  0.47377  Biso   1.000  N
  N104     1.0000 0.69823  0.64957  0.47377  Biso   1.000  N
  N105     1.0000 0.35043  0.04867  0.47377  Biso   1.000  N
  N106     1.0000 0.96843  0.28467  0.85957  Biso   1.000  N
  N107     1.0000 0.31623  0.03157  0.85957  Biso   1.000  N
  N108     1.0000 0.71533  0.68377  0.85957  Biso   1.000  N
  O1       1.0000 0.50730  0.49270  0.36430  Biso   1.000  O
  O2       1.0000 0.50730  0.01460  0.36430  Biso   1.000  O
  O3       1.0000 0.98540  0.49270  0.36430  Biso   1.000  O
  O4       1.0000 0.49270  0.50730  0.63570  Biso   1.000  O
  O5       1.0000 0.01460  0.50730  0.63570  Biso   1.000  O
  O6       1.0000 0.49270  0.98540  0.63570  Biso   1.000  O
  O7       1.0000 0.17397  0.82603  0.69763  Biso   1.000  O
  O8       1.0000 0.17397  0.34793  0.69763  Biso   1.000  O
  O9       1.0000 0.65207  0.82603  0.69763  Biso   1.000  O
  O10      1.0000 0.15937  0.84063  0.96903  Biso   1.000  O
  O11      1.0000 0.68127  0.84063  0.96903  Biso   1.000  O
  O12      1.0000 0.15937  0.31873  0.96903  Biso   1.000  O
  O13      1.0000 0.84063  0.15937  0.03097  Biso   1.000  O
  O14      1.0000 0.84063  0.68127  0.03097  Biso   1.000  O
  O15      1.0000 0.31873  0.15937  0.03097  Biso   1.000  O
  O16      1.0000 0.82603  0.17397  0.30237  Biso   1.000  O
  O17      1.0000 0.34793  0.17397  0.30237  Biso   1.000  O
  O18      1.0000 0.82603  0.65207  0.30237  Biso   1.000  O
  O19      1.0000 0.52602  0.47398  0.20850  Biso   1.000  O
  O20      1.0000 0.52602  0.05204  0.20850  Biso   1.000  O
  O21      1.0000 0.94796  0.47398  0.20850  Biso   1.000  O
  O22      1.0000 0.47398  0.52602  0.79150  Biso   1.000  O
  O23      1.0000 0.05204  0.52602  0.79150  Biso   1.000  O
  O24      1.0000 0.47398  0.94796  0.79150  Biso   1.000  O
  O25      1.0000 0.19269  0.80731  0.54183  Biso   1.000  O
  O26      1.0000 0.19269  0.38537  0.54183  Biso   1.000  O
  O27      1.0000 0.61463  0.80731  0.54183  Biso   1.000  O
  O28      1.0000 0.14065  0.85935  0.12483  Biso   1.000  O
  O29      1.0000 0.71871  0.85935  0.12483  Biso   1.000  O
  O30      1.0000 0.14065  0.28129  0.12483  Biso   1.000  O
  O31      1.0000 0.85935  0.14065  0.87517  Biso   1.000  O
  O32      1.0000 0.85935  0.71871  0.87517  Biso   1.000  O
  O33      1.0000 0.28129  0.14065  0.87517  Biso   1.000  O
  O34      1.0000 0.80731  0.19269  0.45817  Biso   1.000  O
  O35      1.0000 0.38537  0.19269  0.45817  Biso   1.000  O
  O36      1.0000 0.80731  0.61463  0.45817  Biso   1.000  O
  C1       1.0000 0.47560  0.46040  0.31770  Biso   1.000  C
  C2       1.0000 0.53960  0.01520  0.31770  Biso   1.000  C
  C3       1.0000 0.98480  0.52440  0.31770  Biso   1.000  C
  C4       1.0000 0.46040  0.47560  0.68230  Biso   1.000  C
  C5       1.0000 0.01520  0.53960  0.68230  Biso   1.000  C
  C6       1.0000 0.52440  0.98480  0.68230  Biso   1.000  C
  C7       1.0000 0.14227  0.79373  0.65103  Biso   1.000  C
  C8       1.0000 0.20627  0.34853  0.65103  Biso   1.000  C
  C9       1.0000 0.65147  0.85773  0.65103  Biso   1.000  C
  C10      1.0000 0.12707  0.80893  0.01563  Biso   1.000  C
  C11      1.0000 0.68187  0.87293  0.01563  Biso   1.000  C
  C12      1.0000 0.19107  0.31813  0.01563  Biso   1.000  C
  C13      1.0000 0.80893  0.12707  0.98437  Biso   1.000  C
  C14      1.0000 0.87293  0.68187  0.98437  Biso   1.000  C
  C15      1.0000 0.31813  0.19107  0.98437  Biso   1.000  C
  C16      1.0000 0.79373  0.14227  0.34897  Biso   1.000  C
  C17      1.0000 0.34853  0.20627  0.34897  Biso   1.000  C
  C18      1.0000 0.85773  0.65147  0.34897  Biso   1.000  C
  C19      1.0000 0.52440  0.53960  0.68230  Biso   1.000  C
  C20      1.0000 0.46040  0.98480  0.68230  Biso   1.000  C
  C21      1.0000 0.01520  0.47560  0.68230  Biso   1.000  C
  C22      1.0000 0.53960  0.52440  0.31770  Biso   1.000  C
  C23      1.0000 0.98480  0.46040  0.31770  Biso   1.000  C
  C24      1.0000 0.47560  0.01520  0.31770  Biso   1.000  C
  C25      1.0000 0.19107  0.87293  0.01563  Biso   1.000  C
  C26      1.0000 0.12707  0.31813  0.01563  Biso   1.000  C
  C27      1.0000 0.68187  0.80893  0.01563  Biso   1.000  C
  C28      1.0000 0.20627  0.85773  0.65103  Biso   1.000  C
  C29      1.0000 0.65147  0.79373  0.65103  Biso   1.000  C
  C30      1.0000 0.14227  0.34853  0.65103  Biso   1.000  C
  C31      1.0000 0.85773  0.20627  0.34897  Biso   1.000  C
  C32      1.0000 0.79373  0.65147  0.34897  Biso   1.000  C
  C33      1.0000 0.34853  0.14227  0.34897  Biso   1.000  C
  C34      1.0000 0.87293  0.19107  0.98437  Biso   1.000  C
  C35      1.0000 0.31813  0.12707  0.98437  Biso   1.000  C
  C36      1.0000 0.80893  0.68187  0.98437  Biso   1.000  C
  C37      1.0000 0.43690  0.43930  0.35060  Biso   1.000  C
  C38      1.0000 0.56070  0.99760  0.35060  Biso   1.000  C
  C39      1.0000 0.00240  0.56310  0.35060  Biso   1.000  C
  C40      1.0000 0.43930  0.43690  0.64940  Biso   1.000  C
  C41      1.0000 0.99760  0.56070  0.64940  Biso   1.000  C
  C42      1.0000 0.56310  0.00240  0.64940  Biso   1.000  C
  C43      1.0000 0.10357  0.77263  0.68393  Biso   1.000  C
  C44      1.0000 0.22737  0.33093  0.68393  Biso   1.000  C
  C45      1.0000 0.66907  0.89643  0.68393  Biso   1.000  C
  C46      1.0000 0.10597  0.77023  0.98273  Biso   1.000  C
  C47      1.0000 0.66427  0.89403  0.98273  Biso   1.000  C
  C48      1.0000 0.22977  0.33573  0.98273  Biso   1.000  C
  C49      1.0000 0.77023  0.10597  0.01727  Biso   1.000  C
  C50      1.0000 0.89403  0.66427  0.01727  Biso   1.000  C
  C51      1.0000 0.33573  0.22977  0.01727  Biso   1.000  C
  C52      1.0000 0.77263  0.10357  0.31607  Biso   1.000  C
  C53      1.0000 0.33093  0.22737  0.31607  Biso   1.000  C
  C54      1.0000 0.89643  0.66907  0.31607  Biso   1.000  C
  C55      1.0000 0.56310  0.56070  0.64940  Biso   1.000  C
  C56      1.0000 0.43930  0.00240  0.64940  Biso   1.000  C
  C57      1.0000 0.99760  0.43690  0.64940  Biso   1.000  C
  C58      1.0000 0.56070  0.56310  0.35060  Biso   1.000  C
  C59      1.0000 0.00240  0.43930  0.35060  Biso   1.000  C
  C60      1.0000 0.43690  0.99760  0.35060  Biso   1.000  C
  C61      1.0000 0.22977  0.89403  0.98273  Biso   1.000  C
  C62      1.0000 0.10597  0.33573  0.98273  Biso   1.000  C
  C63      1.0000 0.66427  0.77023  0.98273  Biso   1.000  C
  C64      1.0000 0.22737  0.89643  0.68393  Biso   1.000  C
  C65      1.0000 0.66907  0.77263  0.68393  Biso   1.000  C
  C66      1.0000 0.10357  0.33093  0.68393  Biso   1.000  C
  C67      1.0000 0.89643  0.22737  0.31607  Biso   1.000  C
  C68      1.0000 0.77263  0.66907  0.31607  Biso   1.000  C
  C69      1.0000 0.33093  0.10357  0.31607  Biso   1.000  C
  C70      1.0000 0.89403  0.22977  0.01727  Biso   1.000  C
  C71      1.0000 0.33573  0.10597  0.01727  Biso   1.000  C
  C72      1.0000 0.77023  0.66427  0.01727  Biso   1.000  C
  H1       1.0000 0.43031  0.44645  0.40348  Biso   1.000  H
  H2       1.0000 0.55355  0.98386  0.40348  Biso   1.000  H
  H3       1.0000 0.01614  0.56969  0.40348  Biso   1.000  H
  H4       1.0000 0.44645  0.43031  0.59652  Biso   1.000  H
  H5       1.0000 0.98386  0.55355  0.59652  Biso   1.000  H
  H6       1.0000 0.56969  0.01614  0.59652  Biso   1.000  H
  H7       1.0000 0.09698  0.77978  0.73681  Biso   1.000  H
  H8       1.0000 0.22022  0.31719  0.73681  Biso   1.000  H
  H9       1.0000 0.68281  0.90302  0.73681  Biso   1.000  H
  H10      1.0000 0.11312  0.76364  0.92985  Biso   1.000  H
  H11      1.0000 0.65053  0.88688  0.92985  Biso   1.000  H
  H12      1.0000 0.23636  0.34947  0.92985  Biso   1.000  H
  H13      1.0000 0.76364  0.11312  0.07015  Biso   1.000  H
  H14      1.0000 0.88688  0.65053  0.07015  Biso   1.000  H
  H15      1.0000 0.34947  0.23636  0.07015  Biso   1.000  H
  H16      1.0000 0.77978  0.09698  0.26319  Biso   1.000  H
  H17      1.0000 0.31719  0.22022  0.26319  Biso   1.000  H
  H18      1.0000 0.90302  0.68281  0.26319  Biso   1.000  H
  H19      1.0000 0.56969  0.55355  0.59652  Biso   1.000  H
  H20      1.0000 0.44645  0.01614  0.59652  Biso   1.000  H
  H21      1.0000 0.98386  0.43031  0.59652  Biso   1.000  H
  H22      1.0000 0.55355  0.56969  0.40348  Biso   1.000  H
  H23      1.0000 0.01614  0.44645  0.40348  Biso   1.000  H
  H24      1.0000 0.43031  0.98386  0.40348  Biso   1.000  H
  H25      1.0000 0.23636  0.88688  0.92985  Biso   1.000  H
  H26      1.0000 0.11312  0.34947  0.92985  Biso   1.000  H
  H27      1.0000 0.65053  0.76364  0.92985  Biso   1.000  H
  H28      1.0000 0.22022  0.90302  0.73681  Biso   1.000  H
  H29      1.0000 0.68281  0.77978  0.73681  Biso   1.000  H
  H30      1.0000 0.09698  0.31719  0.73681  Biso   1.000  H
  H31      1.0000 0.90302  0.22022  0.26319  Biso   1.000  H
  H32      1.0000 0.77978  0.68281  0.26319  Biso   1.000  H
  H33      1.0000 0.31719  0.09698  0.26319  Biso   1.000  H
  H34      1.0000 0.88688  0.23636  0.07015  Biso   1.000  H
  H35      1.0000 0.34947  0.11312  0.07015  Biso   1.000  H
  H36      1.0000 0.76364  0.65053  0.07015  Biso   1.000  H
  C73      1.0000 0.40770  0.40710  0.30300  Biso   1.000  C
  C74      1.0000 0.59290  0.00060  0.30300  Biso   1.000  C
  C75      1.0000 0.99940  0.59230  0.30300  Biso   1.000  C
  C76      1.0000 0.40710  0.40770  0.69700  Biso   1.000  C
  C77      1.0000 0.00060  0.59290  0.69700  Biso   1.000  C
  C78      1.0000 0.59230  0.99940  0.69700  Biso   1.000  C
  C79      1.0000 0.07437  0.74043  0.63633  Biso   1.000  C
  C80      1.0000 0.25957  0.33393  0.63633  Biso   1.000  C
  C81      1.0000 0.66607  0.92563  0.63633  Biso   1.000  C
  C82      1.0000 0.07377  0.74103  0.03033  Biso   1.000  C
  C83      1.0000 0.66727  0.92623  0.03033  Biso   1.000  C
  C84      1.0000 0.25897  0.33273  0.03033  Biso   1.000  C
  C85      1.0000 0.74103  0.07377  0.96967  Biso   1.000  C
  C86      1.0000 0.92623  0.66727  0.96967  Biso   1.000  C
  C87      1.0000 0.33273  0.25897  0.96967  Biso   1.000  C
  C88      1.0000 0.74043  0.07437  0.36367  Biso   1.000  C
  C89      1.0000 0.33393  0.25957  0.36367  Biso   1.000  C
  C90      1.0000 0.92563  0.66607  0.36367  Biso   1.000  C
  C91      1.0000 0.59230  0.59290  0.69700  Biso   1.000  C
  C92      1.0000 0.40710  0.99940  0.69700  Biso   1.000  C
  C93      1.0000 0.00060  0.40770  0.69700  Biso   1.000  C
  C94      1.0000 0.59290  0.59230  0.30300  Biso   1.000  C
  C95      1.0000 0.99940  0.40710  0.30300  Biso   1.000  C
  C96      1.0000 0.40770  0.00060  0.30300  Biso   1.000  C
  C97      1.0000 0.25897  0.92623  0.03033  Biso   1.000  C
  C98      1.0000 0.07377  0.33273  0.03033  Biso   1.000  C
  C99      1.0000 0.66727  0.74103  0.03033  Biso   1.000  C
  C100     1.0000 0.25957  0.92563  0.63633  Biso   1.000  C
  C101     1.0000 0.66607  0.74043  0.63633  Biso   1.000  C
  C102     1.0000 0.07437  0.33393  0.63633  Biso   1.000  C
  C103     1.0000 0.92563  0.25957  0.36367  Biso   1.000  C
  C104     1.0000 0.74043  0.66607  0.36367  Biso   1.000  C
  C105     1.0000 0.33393  0.07437  0.36367  Biso   1.000  C
  C106     1.0000 0.92623  0.25897  0.96967  Biso   1.000  C
  C107     1.0000 0.33273  0.07377  0.96967  Biso   1.000  C
  C108     1.0000 0.74103  0.66727  0.96967  Biso   1.000  C
  C109     1.0000 0.41770  0.39770  0.22350  Biso   1.000  C
  C110     1.0000 0.60230  0.02000  0.22350  Biso   1.000  C
  C111     1.0000 0.98000  0.58230  0.22350  Biso   1.000  C
  C112     1.0000 0.39770  0.41770  0.77650  Biso   1.000  C
  C113     1.0000 0.02000  0.60230  0.77650  Biso   1.000  C
  C114     1.0000 0.58230  0.98000  0.77650  Biso   1.000  C
  C115     1.0000 0.08437  0.73103  0.55683  Biso   1.000  C
  C116     1.0000 0.26897  0.35333  0.55683  Biso   1.000  C
  C117     1.0000 0.64667  0.91563  0.55683  Biso   1.000  C
  C118     1.0000 0.06437  0.75103  0.10983  Biso   1.000  C
  C119     1.0000 0.68667  0.93563  0.10983  Biso   1.000  C
  C120     1.0000 0.24897  0.31333  0.10983  Biso   1.000  C
  C121     1.0000 0.75103  0.06437  0.89017  Biso   1.000  C
  C122     1.0000 0.93563  0.68667  0.89017  Biso   1.000  C
  C123     1.0000 0.31333  0.24897  0.89017  Biso   1.000  C
  C124     1.0000 0.73103  0.08437  0.44317  Biso   1.000  C
  C125     1.0000 0.35333  0.26897  0.44317  Biso   1.000  C
  C126     1.0000 0.91563  0.64667  0.44317  Biso   1.000  C
  C127     1.0000 0.58230  0.60230  0.77650  Biso   1.000  C
  C128     1.0000 0.39770  0.98000  0.77650  Biso   1.000  C
  C129     1.0000 0.02000  0.41770  0.77650  Biso   1.000  C
  C130     1.0000 0.60230  0.58230  0.22350  Biso   1.000  C
  C131     1.0000 0.98000  0.39770  0.22350  Biso   1.000  C
  C132     1.0000 0.41770  0.02000  0.22350  Biso   1.000  C
  C133     1.0000 0.24897  0.93563  0.10983  Biso   1.000  C
  C134     1.0000 0.06437  0.31333  0.10983  Biso   1.000  C
  C135     1.0000 0.68667  0.75103  0.10983  Biso   1.000  C
  C136     1.0000 0.26897  0.91563  0.55683  Biso   1.000  C
  C137     1.0000 0.64667  0.73103  0.55683  Biso   1.000  C
  C138     1.0000 0.08437  0.35333  0.55683  Biso   1.000  C
  C139     1.0000 0.91563  0.26897  0.44317  Biso   1.000  C
  C140     1.0000 0.73103  0.64667  0.44317  Biso   1.000  C
  C141     1.0000 0.35333  0.08437  0.44317  Biso   1.000  C
  C142     1.0000 0.93563  0.24897  0.89017  Biso   1.000  C
  C143     1.0000 0.31333  0.06437  0.89017  Biso   1.000  C
  C144     1.0000 0.75103  0.68667  0.89017  Biso   1.000  C
  C145     1.0000 0.45780  0.42040  0.19020  Biso   1.000  C
  C146     1.0000 0.57960  0.03740  0.19020  Biso   1.000  C
  C147     1.0000 0.96260  0.54220  0.19020  Biso   1.000  C
  C148     1.0000 0.42040  0.45780  0.80980  Biso   1.000  C
  C149     1.0000 0.03740  0.57960  0.80980  Biso   1.000  C
  C150     1.0000 0.54220  0.96260  0.80980  Biso   1.000  C
  C151     1.0000 0.12447  0.75373  0.52353  Biso   1.000  C
  C152     1.0000 0.24627  0.37073  0.52353  Biso   1.000  C
  C153     1.0000 0.62927  0.87553  0.52353  Biso   1.000  C
  C154     1.0000 0.08707  0.79113  0.14313  Biso   1.000  C
  C155     1.0000 0.70407  0.91293  0.14313  Biso   1.000  C
  C156     1.0000 0.20887  0.29593  0.14313  Biso   1.000  C
  C157     1.0000 0.79113  0.08707  0.85687  Biso   1.000  C
  C158     1.0000 0.91293  0.70407  0.85687  Biso   1.000  C
  C159     1.0000 0.29593  0.20887  0.85687  Biso   1.000  C
  C160     1.0000 0.75373  0.12447  0.47647  Biso   1.000  C
  C161     1.0000 0.37073  0.24627  0.47647  Biso   1.000  C
  C162     1.0000 0.87553  0.62927  0.47647  Biso   1.000  C
  C163     1.0000 0.54220  0.57960  0.80980  Biso   1.000  C
  C164     1.0000 0.42040  0.96260  0.80980  Biso   1.000  C
  C165     1.0000 0.03740  0.45780  0.80980  Biso   1.000  C
  C166     1.0000 0.57960  0.54220  0.19020  Biso   1.000  C
  C167     1.0000 0.96260  0.42040  0.19020  Biso   1.000  C
  C168     1.0000 0.45780  0.03740  0.19020  Biso   1.000  C
  C169     1.0000 0.20887  0.91293  0.14313  Biso   1.000  C
  C170     1.0000 0.08707  0.29593  0.14313  Biso   1.000  C
  C171     1.0000 0.70407  0.79113  0.14313  Biso   1.000  C
  C172     1.0000 0.24627  0.87553  0.52353  Biso   1.000  C
  C173     1.0000 0.62927  0.75373  0.52353  Biso   1.000  C
  C174     1.0000 0.12447  0.37073  0.52353  Biso   1.000  C
  C175     1.0000 0.87553  0.24627  0.47647  Biso   1.000  C
  C176     1.0000 0.75373  0.62927  0.47647  Biso   1.000  C
  C177     1.0000 0.37073  0.12447  0.47647  Biso   1.000  C
  C178     1.0000 0.91293  0.20887  0.85687  Biso   1.000  C
  C179     1.0000 0.29593  0.08707  0.85687  Biso   1.000  C
  C180     1.0000 0.79113  0.70407  0.85687  Biso   1.000  C
  H37      1.0000 0.46453  0.41425  0.13653  Biso   1.000  H
  H38      1.0000 0.58575  0.05028  0.13653  Biso   1.000  H
  H39      1.0000 0.94972  0.53547  0.13653  Biso   1.000  H
  H40      1.0000 0.41425  0.46453  0.86347  Biso   1.000  H
  H41      1.0000 0.05028  0.58575  0.86347  Biso   1.000  H
  H42      1.0000 0.53547  0.94972  0.86347  Biso   1.000  H
  H43      1.0000 0.13120  0.74758  0.46986  Biso   1.000  H
  H44      1.0000 0.25242  0.38361  0.46986  Biso   1.000  H
  H45      1.0000 0.61639  0.86880  0.46986  Biso   1.000  H
  H46      1.0000 0.08092  0.79786  0.19680  Biso   1.000  H
  H47      1.0000 0.71695  0.91908  0.19680  Biso   1.000  H
  H48      1.0000 0.20214  0.28305  0.19680  Biso   1.000  H
  H49      1.0000 0.79786  0.08092  0.80320  Biso   1.000  H
  H50      1.0000 0.91908  0.71695  0.80320  Biso   1.000  H
  H51      1.0000 0.28305  0.20214  0.80320  Biso   1.000  H
  H52      1.0000 0.74758  0.13120  0.53014  Biso   1.000  H
  H53      1.0000 0.38361  0.25242  0.53014  Biso   1.000  H
  H54      1.0000 0.86880  0.61639  0.53014  Biso   1.000  H
  H55      1.0000 0.53547  0.58575  0.86347  Biso   1.000  H
  H56      1.0000 0.41425  0.94972  0.86347  Biso   1.000  H
  H57      1.0000 0.05028  0.46453  0.86347  Biso   1.000  H
  H58      1.0000 0.58575  0.53547  0.13653  Biso   1.000  H
  H59      1.0000 0.94972  0.41425  0.13653  Biso   1.000  H
  H60      1.0000 0.46453  0.05028  0.13653  Biso   1.000  H
  H61      1.0000 0.20214  0.91908  0.19680  Biso   1.000  H
  H62      1.0000 0.08092  0.28305  0.19680  Biso   1.000  H
  H63      1.0000 0.71695  0.79786  0.19680  Biso   1.000  H
  H64      1.0000 0.25242  0.86880  0.46986  Biso   1.000  H
  H65      1.0000 0.61639  0.74758  0.46986  Biso   1.000  H
  H66      1.0000 0.13120  0.38361  0.46986  Biso   1.000  H
  H67      1.0000 0.86880  0.25242  0.53014  Biso   1.000  H
  H68      1.0000 0.74758  0.61639  0.53014  Biso   1.000  H
  H69      1.0000 0.38361  0.13120  0.53014  Biso   1.000  H
  H70      1.0000 0.91908  0.20214  0.80320  Biso   1.000  H
  H71      1.0000 0.28305  0.08092  0.80320  Biso   1.000  H
  H72      1.0000 0.79786  0.71695  0.80320  Biso   1.000  H
  C181     1.0000 0.48570  0.45080  0.23720  Biso   1.000  C
  C182     1.0000 0.54920  0.03490  0.23720  Biso   1.000  C
  C183     1.0000 0.96510  0.51430  0.23720  Biso   1.000  C
  C184     1.0000 0.45080  0.48570  0.76280  Biso   1.000  C
  C185     1.0000 0.03490  0.54920  0.76280  Biso   1.000  C
  C186     1.0000 0.51430  0.96510  0.76280  Biso   1.000  C
  C187     1.0000 0.15237  0.78413  0.57053  Biso   1.000  C
  C188     1.0000 0.21587  0.36823  0.57053  Biso   1.000  C
  C189     1.0000 0.63177  0.84763  0.57053  Biso   1.000  C
  C190     1.0000 0.11747  0.81903  0.09613  Biso   1.000  C
  C191     1.0000 0.70157  0.88253  0.09613  Biso   1.000  C
  C192     1.0000 0.18097  0.29843  0.09613  Biso   1.000  C
  C193     1.0000 0.81903  0.11747  0.90387  Biso   1.000  C
  C194     1.0000 0.88253  0.70157  0.90387  Biso   1.000  C
  C195     1.0000 0.29843  0.18097  0.90387  Biso   1.000  C
  C196     1.0000 0.78413  0.15237  0.42947  Biso   1.000  C
  C197     1.0000 0.36823  0.21587  0.42947  Biso   1.000  C
  C198     1.0000 0.84763  0.63177  0.42947  Biso   1.000  C
  C199     1.0000 0.51430  0.54920  0.76280  Biso   1.000  C
  C200     1.0000 0.45080  0.96510  0.76280  Biso   1.000  C
  C201     1.0000 0.03490  0.48570  0.76280  Biso   1.000  C
  C202     1.0000 0.54920  0.51430  0.23720  Biso   1.000  C
  C203     1.0000 0.96510  0.45080  0.23720  Biso   1.000  C
  C204     1.0000 0.48570  0.03490  0.23720  Biso   1.000  C
  C205     1.0000 0.18097  0.88253  0.09613  Biso   1.000  C
  C206     1.0000 0.11747  0.29843  0.09613  Biso   1.000  C
  C207     1.0000 0.70157  0.81903  0.09613  Biso   1.000  C
  C208     1.0000 0.21587  0.84763  0.57053  Biso   1.000  C
  C209     1.0000 0.63177  0.78413  0.57053  Biso   1.000  C
  C210     1.0000 0.15237  0.36823  0.57053  Biso   1.000  C
  C211     1.0000 0.84763  0.21587  0.42947  Biso   1.000  C
  C212     1.0000 0.78413  0.63177  0.42947  Biso   1.000  C
  C213     1.0000 0.36823  0.15237  0.42947  Biso   1.000  C
  C214     1.0000 0.88253  0.18097  0.90387  Biso   1.000  C
  C215     1.0000 0.29843  0.11747  0.90387  Biso   1.000  C
  C216     1.0000 0.81903  0.70157  0.90387  Biso   1.000  C
  N109     1.0000 0.39460  0.49180  0.17300  Biso   1.000  N
  N110     1.0000 0.50820  0.90280  0.17300  Biso   1.000  N
  N111     1.0000 0.09720  0.60540  0.17300  Biso   1.000  N
  N112     1.0000 0.49180  0.39460  0.82700  Biso   1.000  N
  N113     1.0000 0.90280  0.50820  0.82700  Biso   1.000  N
  N114     1.0000 0.60540  0.09720  0.82700  Biso   1.000  N
  N115     1.0000 0.06127  0.82513  0.50633  Biso   1.000  N
  N116     1.0000 0.17487  0.23613  0.50633  Biso   1.000  N
  N117     1.0000 0.76387  0.93873  0.50633  Biso   1.000  N
  N118     1.0000 0.15847  0.72793  0.16033  Biso   1.000  N
  N119     1.0000 0.56947  0.84153  0.16033  Biso   1.000  N
  N120     1.0000 0.27207  0.43053  0.16033  Biso   1.000  N
  N121     1.0000 0.72793  0.15847  0.83967  Biso   1.000  N
  N122     1.0000 0.84153  0.56947  0.83967  Biso   1.000  N
  N123     1.0000 0.43053  0.27207  0.83967  Biso   1.000  N
  N124     1.0000 0.82513  0.06127  0.49367  Biso   1.000  N
  N125     1.0000 0.23613  0.17487  0.49367  Biso   1.000  N
  N126     1.0000 0.93873  0.76387  0.49367  Biso   1.000  N
  N127     1.0000 0.60540  0.50820  0.82700  Biso   1.000  N
  N128     1.0000 0.49180  0.09720  0.82700  Biso   1.000  N
  N129     1.0000 0.90280  0.39460  0.82700  Biso   1.000  N
  N130     1.0000 0.50820  0.60540  0.17300  Biso   1.000  N
  N131     1.0000 0.09720  0.49180  0.17300  Biso   1.000  N
  N132     1.0000 0.39460  0.90280  0.17300  Biso   1.000  N
  N133     1.0000 0.27207  0.84153  0.16033  Biso   1.000  N
  N134     1.0000 0.15847  0.43053  0.16033  Biso   1.000  N
  N135     1.0000 0.56947  0.72793  0.16033  Biso   1.000  N
  N136     1.0000 0.17487  0.93873  0.50633  Biso   1.000  N
  N137     1.0000 0.76387  0.82513  0.50633  Biso   1.000  N
  N138     1.0000 0.06127  0.23613  0.50633  Biso   1.000  N
  N139     1.0000 0.93873  0.17487  0.49367  Biso   1.000  N
  N140     1.0000 0.82513  0.76387  0.49367  Biso   1.000  N
  N141     1.0000 0.23613  0.06127  0.49367  Biso   1.000  N
  N142     1.0000 0.84153  0.27207  0.83967  Biso   1.000  N
  N143     1.0000 0.43053  0.15847  0.83967  Biso   1.000  N
  N144     1.0000 0.72793  0.56947  0.83967  Biso   1.000  N
  H73      1.0000 0.39565  0.51611  0.18557  Biso   1.000  H
  H74      1.0000 0.48389  0.87954  0.18557  Biso   1.000  H
  H75      1.0000 0.12046  0.60435  0.18557  Biso   1.000  H
  H76      1.0000 0.51611  0.39565  0.81443  Biso   1.000  H
  H77      1.0000 0.87954  0.48389  0.81443  Biso   1.000  H
  H78      1.0000 0.60435  0.12046  0.81443  Biso   1.000  H
  H79      1.0000 0.06232  0.84944  0.51890  Biso   1.000  H
  H80      1.0000 0.15056  0.21287  0.51890  Biso   1.000  H
  H81      1.0000 0.78713  0.93768  0.51890  Biso   1.000  H
  H82      1.0000 0.18278  0.72898  0.14776  Biso   1.000  H
  H83      1.0000 0.54621  0.81722  0.14776  Biso   1.000  H
  H84      1.0000 0.27102  0.45379  0.14776  Biso   1.000  H
  H85      1.0000 0.72898  0.18278  0.85224  Biso   1.000  H
  H86      1.0000 0.81722  0.54621  0.85224  Biso   1.000  H
  H87      1.0000 0.45379  0.27102  0.85224  Biso   1.000  H
  H88      1.0000 0.84944  0.06232  0.48110  Biso   1.000  H
  H89      1.0000 0.21287  0.15056  0.48110  Biso   1.000  H
  H90      1.0000 0.93768  0.78713  0.48110  Biso   1.000  H
  H91      1.0000 0.60435  0.48389  0.81443  Biso   1.000  H
  H92      1.0000 0.51611  0.12046  0.81443  Biso   1.000  H
  H93      1.0000 0.87954  0.39565  0.81443  Biso   1.000  H
  H94      1.0000 0.48389  0.60435  0.18557  Biso   1.000  H
  H95      1.0000 0.12046  0.51611  0.18557  Biso   1.000  H
  H96      1.0000 0.39565  0.87954  0.18557  Biso   1.000  H
  H97      1.0000 0.27102  0.81722  0.14776  Biso   1.000  H
  H98      1.0000 0.18278  0.45379  0.14776  Biso   1.000  H
  H99      1.0000 0.54621  0.72898  0.14776  Biso   1.000  H
  H100     1.0000 0.15056  0.93768  0.51890  Biso   1.000  H
  H101     1.0000 0.78713  0.84944  0.51890  Biso   1.000  H
  H102     1.0000 0.06232  0.21287  0.51890  Biso   1.000  H
  H103     1.0000 0.93768  0.15056  0.48110  Biso   1.000  H
  H104     1.0000 0.84944  0.78713  0.48110  Biso   1.000  H
  H105     1.0000 0.21287  0.06232  0.48110  Biso   1.000  H
  H106     1.0000 0.81722  0.27102  0.85224  Biso   1.000  H
  H107     1.0000 0.45379  0.18278  0.85224  Biso   1.000  H
  H108     1.0000 0.72898  0.54621  0.85224  Biso   1.000  H
  H109     1.0000 0.40055  0.48310  0.22151  Biso   1.000  H
  H110     1.0000 0.51690  0.91745  0.22151  Biso   1.000  H
  H111     1.0000 0.08255  0.59945  0.22151  Biso   1.000  H
  H112     1.0000 0.48310  0.40055  0.77849  Biso   1.000  H
  H113     1.0000 0.91745  0.51690  0.77849  Biso   1.000  H
  H114     1.0000 0.59945  0.08255  0.77849  Biso   1.000  H
  H115     1.0000 0.06722  0.81643  0.55484  Biso   1.000  H
  H116     1.0000 0.18357  0.25078  0.55484  Biso   1.000  H
  H117     1.0000 0.74922  0.93278  0.55484  Biso   1.000  H
  H118     1.0000 0.14977  0.73388  0.11182  Biso   1.000  H
  H119     1.0000 0.58412  0.85023  0.11182  Biso   1.000  H
  H120     1.0000 0.26612  0.41588  0.11182  Biso   1.000  H
  H121     1.0000 0.73388  0.14977  0.88818  Biso   1.000  H
  H122     1.0000 0.85023  0.58412  0.88818  Biso   1.000  H
  H123     1.0000 0.41588  0.26612  0.88818  Biso   1.000  H
  H124     1.0000 0.81643  0.06722  0.44516  Biso   1.000  H
  H125     1.0000 0.25078  0.18357  0.44516  Biso   1.000  H
  H126     1.0000 0.93278  0.74922  0.44516  Biso   1.000  H
  H127     1.0000 0.59945  0.51690  0.77849  Biso   1.000  H
  H128     1.0000 0.48310  0.08255  0.77849  Biso   1.000  H
  H129     1.0000 0.91745  0.40055  0.77849  Biso   1.000  H
  H130     1.0000 0.51690  0.59945  0.22151  Biso   1.000  H
  H131     1.0000 0.08255  0.48310  0.22151  Biso   1.000  H
  H132     1.0000 0.40055  0.91745  0.22151  Biso   1.000  H
  H133     1.0000 0.26612  0.85023  0.11182  Biso   1.000  H
  H134     1.0000 0.14977  0.41588  0.11182  Biso   1.000  H
  H135     1.0000 0.58412  0.73388  0.11182  Biso   1.000  H
  H136     1.0000 0.18357  0.93278  0.55484  Biso   1.000  H
  H137     1.0000 0.74922  0.81643  0.55484  Biso   1.000  H
  H138     1.0000 0.06722  0.25078  0.55484  Biso   1.000  H
  H139     1.0000 0.93278  0.18357  0.44516  Biso   1.000  H
  H140     1.0000 0.81643  0.74922  0.44516  Biso   1.000  H
  H141     1.0000 0.25078  0.06722  0.44516  Biso   1.000  H
  H142     1.0000 0.85023  0.26612  0.88818  Biso   1.000  H
  H143     1.0000 0.41588  0.14977  0.88818  Biso   1.000  H
  H144     1.0000 0.73388  0.58412  0.88818  Biso   1.000  H
  C217     1.0000 0.35050  0.46310  0.16200  Biso   1.000  C
  C218     1.0000 0.53690  0.88740  0.16200  Biso   1.000  C
  C219     1.0000 0.11260  0.64950  0.16200  Biso   1.000  C
  C220     1.0000 0.46310  0.35050  0.83800  Biso   1.000  C
  C221     1.0000 0.88740  0.53690  0.83800  Biso   1.000  C
  C222     1.0000 0.64950  0.11260  0.83800  Biso   1.000  C
  C223     1.0000 0.01717  0.79643  0.49533  Biso   1.000  C
  C224     1.0000 0.20357  0.22073  0.49533  Biso   1.000  C
  C225     1.0000 0.77927  0.98283  0.49533  Biso   1.000  C
  C226     1.0000 0.12977  0.68383  0.17133  Biso   1.000  C
  C227     1.0000 0.55407  0.87023  0.17133  Biso   1.000  C
  C228     1.0000 0.31617  0.44593  0.17133  Biso   1.000  C
  C229     1.0000 0.68383  0.12977  0.82867  Biso   1.000  C
  C230     1.0000 0.87023  0.55407  0.82867  Biso   1.000  C
  C231     1.0000 0.44593  0.31617  0.82867  Biso   1.000  C
  C232     1.0000 0.79643  0.01717  0.50467  Biso   1.000  C
  C233     1.0000 0.22073  0.20357  0.50467  Biso   1.000  C
  C234     1.0000 0.98283  0.77927  0.50467  Biso   1.000  C
  C235     1.0000 0.64950  0.53690  0.83800  Biso   1.000  C
  C236     1.0000 0.46310  0.11260  0.83800  Biso   1.000  C
  C237     1.0000 0.88740  0.35050  0.83800  Biso   1.000  C
  C238     1.0000 0.53690  0.64950  0.16200  Biso   1.000  C
  C239     1.0000 0.11260  0.46310  0.16200  Biso   1.000  C
  C240     1.0000 0.35050  0.88740  0.16200  Biso   1.000  C
  C241     1.0000 0.31617  0.87023  0.17133  Biso   1.000  C
  C242     1.0000 0.12977  0.44593  0.17133  Biso   1.000  C
  C243     1.0000 0.55407  0.68383  0.17133  Biso   1.000  C
  C244     1.0000 0.20357  0.98283  0.49533  Biso   1.000  C
  C245     1.0000 0.77927  0.79643  0.49533  Biso   1.000  C
  C246     1.0000 0.01717  0.22073  0.49533  Biso   1.000  C
  C247     1.0000 0.98283  0.20357  0.50467  Biso   1.000  C
  C248     1.0000 0.79643  0.77927  0.50467  Biso   1.000  C
  C249     1.0000 0.22073  0.01717  0.50467  Biso   1.000  C
  C250     1.0000 0.87023  0.31617  0.82867  Biso   1.000  C
  C251     1.0000 0.44593  0.12977  0.82867  Biso   1.000  C
  C252     1.0000 0.68383  0.55407  0.82867  Biso   1.000  C
  H145     1.0000 0.33548  0.46338  0.21205  Biso   1.000  H
  H146     1.0000 0.53662  0.87210  0.21205  Biso   1.000  H
  H147     1.0000 0.12790  0.66452  0.21205  Biso   1.000  H
  H148     1.0000 0.46338  0.33548  0.78795  Biso   1.000  H
  H149     1.0000 0.87210  0.53662  0.78795  Biso   1.000  H
  H150     1.0000 0.66452  0.12790  0.78795  Biso   1.000  H
  H151     1.0000 0.00215  0.79671  0.54538  Biso   1.000  H
  H152     1.0000 0.20329  0.20543  0.54538  Biso   1.000  H
  H153     1.0000 0.79457  0.99785  0.54538  Biso   1.000  H
  H154     1.0000 0.13005  0.66881  0.12128  Biso   1.000  H
  H155     1.0000 0.53877  0.86995  0.12128  Biso   1.000  H
  H156     1.0000 0.33119  0.46123  0.12128  Biso   1.000  H
  H157     1.0000 0.66881  0.13005  0.87872  Biso   1.000  H
  H158     1.0000 0.86995  0.53877  0.87872  Biso   1.000  H
  H159     1.0000 0.46123  0.33119  0.87872  Biso   1.000  H
  H160     1.0000 0.79671  0.00215  0.45462  Biso   1.000  H
  H161     1.0000 0.20543  0.20329  0.45462  Biso   1.000  H
  H162     1.0000 0.99785  0.79457  0.45462  Biso   1.000  H
  H163     1.0000 0.66452  0.53662  0.78795  Biso   1.000  H
  H164     1.0000 0.46338  0.12790  0.78795  Biso   1.000  H
  H165     1.0000 0.87210  0.33548  0.78795  Biso   1.000  H
  H166     1.0000 0.53662  0.66452  0.21205  Biso   1.000  H
  H167     1.0000 0.12790  0.46338  0.21205  Biso   1.000  H
  H168     1.0000 0.33548  0.87210  0.21205  Biso   1.000  H
  H169     1.0000 0.33119  0.86995  0.12128  Biso   1.000  H
  H170     1.0000 0.13005  0.46123  0.12128  Biso   1.000  H
  H171     1.0000 0.53877  0.66881  0.12128  Biso   1.000  H
  H172     1.0000 0.20329  0.99785  0.54538  Biso   1.000  H
  H173     1.0000 0.79457  0.79671  0.54538  Biso   1.000  H
  H174     1.0000 0.00215  0.20543  0.54538  Biso   1.000  H
  H175     1.0000 0.99785  0.20329  0.45462  Biso   1.000  H
  H176     1.0000 0.79671  0.79457  0.45462  Biso   1.000  H
  H177     1.0000 0.20543  0.00215  0.45462  Biso   1.000  H
  H178     1.0000 0.86995  0.33119  0.87872  Biso   1.000  H
  H179     1.0000 0.46123  0.13005  0.87872  Biso   1.000  H
  H180     1.0000 0.66881  0.53877  0.87872  Biso   1.000  H
  H181     1.0000 0.34037  0.47152  0.11282  Biso   1.000  H
  H182     1.0000 0.52848  0.86885  0.11282  Biso   1.000  H
  H183     1.0000 0.13115  0.65963  0.11282  Biso   1.000  H
  H184     1.0000 0.47152  0.34037  0.88718  Biso   1.000  H
  H185     1.0000 0.86885  0.52848  0.88718  Biso   1.000  H
  H186     1.0000 0.65963  0.13115  0.88718  Biso   1.000  H
  H187     1.0000 0.00704  0.80485  0.44615  Biso   1.000  H
  H188     1.0000 0.19515  0.20218  0.44615  Biso   1.000  H
  H189     1.0000 0.79782  0.99296  0.44615  Biso   1.000  H
  H190     1.0000 0.13819  0.67370  0.22051  Biso   1.000  H
  H191     1.0000 0.53552  0.86181  0.22051  Biso   1.000  H
  H192     1.0000 0.32630  0.46448  0.22051  Biso   1.000  H
  H193     1.0000 0.67370  0.13819  0.77949  Biso   1.000  H
  H194     1.0000 0.86181  0.53552  0.77949  Biso   1.000  H
  H195     1.0000 0.46448  0.32630  0.77949  Biso   1.000  H
  H196     1.0000 0.80485  0.00704  0.55385  Biso   1.000  H
  H197     1.0000 0.20218  0.19515  0.55385  Biso   1.000  H
  H198     1.0000 0.99296  0.79782  0.55385  Biso   1.000  H
  H199     1.0000 0.65963  0.52848  0.88718  Biso   1.000  H
  H200     1.0000 0.47152  0.13115  0.88718  Biso   1.000  H
  H201     1.0000 0.86885  0.34037  0.88718  Biso   1.000  H
  H202     1.0000 0.52848  0.65963  0.11282  Biso   1.000  H
  H203     1.0000 0.13115  0.47152  0.11282  Biso   1.000  H
  H204     1.0000 0.34037  0.86885  0.11282  Biso   1.000  H
  H205     1.0000 0.32630  0.86181  0.22051  Biso   1.000  H
  H206     1.0000 0.13819  0.46448  0.22051  Biso   1.000  H
  H207     1.0000 0.53552  0.67370  0.22051  Biso   1.000  H
  H208     1.0000 0.19515  0.99296  0.44615  Biso   1.000  H
  H209     1.0000 0.79782  0.80485  0.44615  Biso   1.000  H
  H210     1.0000 0.00704  0.20218  0.44615  Biso   1.000  H
  H211     1.0000 0.99296  0.19515  0.55385  Biso   1.000  H
  H212     1.0000 0.80485  0.79782  0.55385  Biso   1.000  H
  H213     1.0000 0.20218  0.00704  0.55385  Biso   1.000  H
  H214     1.0000 0.86181  0.32630  0.77949  Biso   1.000  H
  H215     1.0000 0.46448  0.13819  0.77949  Biso   1.000  H
  H216     1.0000 0.67370  0.53552  0.77949  Biso   1.000  H
  H217     1.0000 0.34579  0.43497  0.15262  Biso   1.000  H
  H218     1.0000 0.56503  0.91082  0.15262  Biso   1.000  H
  H219     1.0000 0.08918  0.65421  0.15262  Biso   1.000  H
  H220     1.0000 0.43497  0.34579  0.84738  Biso   1.000  H
  H221     1.0000 0.91082  0.56503  0.84738  Biso   1.000  H
  H222     1.0000 0.65421  0.08918  0.84738  Biso   1.000  H
  H223     1.0000 0.01246  0.76830  0.48595  Biso   1.000  H
  H224     1.0000 0.23170  0.24415  0.48595  Biso   1.000  H
  H225     1.0000 0.75585  0.98754  0.48595  Biso   1.000  H
  H226     1.0000 0.10164  0.67912  0.18071  Biso   1.000  H
  H227     1.0000 0.57749  0.89836  0.18071  Biso   1.000  H
  H228     1.0000 0.32088  0.42251  0.18071  Biso   1.000  H
  H229     1.0000 0.67912  0.10164  0.81929  Biso   1.000  H
  H230     1.0000 0.89836  0.57749  0.81929  Biso   1.000  H
  H231     1.0000 0.42251  0.32088  0.81929  Biso   1.000  H
  H232     1.0000 0.76830  0.01246  0.51405  Biso   1.000  H
  H233     1.0000 0.24415  0.23170  0.51405  Biso   1.000  H
  H234     1.0000 0.98754  0.75585  0.51405  Biso   1.000  H
  H235     1.0000 0.65421  0.56503  0.84738  Biso   1.000  H
  H236     1.0000 0.43497  0.08918  0.84738  Biso   1.000  H
  H237     1.0000 0.91082  0.34579  0.84738  Biso   1.000  H
  H238     1.0000 0.56503  0.65421  0.15262  Biso   1.000  H
  H239     1.0000 0.08918  0.43497  0.15262  Biso   1.000  H
  H240     1.0000 0.34579  0.91082  0.15262  Biso   1.000  H
  H241     1.0000 0.32088  0.89836  0.18071  Biso   1.000  H
  H242     1.0000 0.10164  0.42251  0.18071  Biso   1.000  H
  H243     1.0000 0.57749  0.67912  0.18071  Biso   1.000  H
  H244     1.0000 0.23170  0.98754  0.48595  Biso   1.000  H
  H245     1.0000 0.75585  0.76830  0.48595  Biso   1.000  H
  H246     1.0000 0.01246  0.24415  0.48595  Biso   1.000  H
  H247     1.0000 0.98754  0.23170  0.51405  Biso   1.000  H
  H248     1.0000 0.76830  0.75585  0.51405  Biso   1.000  H
  H249     1.0000 0.24415  0.01246  0.51405  Biso   1.000  H
  H250     1.0000 0.89836  0.32088  0.81929  Biso   1.000  H
  H251     1.0000 0.42251  0.10164  0.81929  Biso   1.000  H
  H252     1.0000 0.67912  0.57749  0.81929  Biso   1.000  H
  C253     1.0000 0.43140  0.50480  0.12300  Biso   1.000  C
  C254     1.0000 0.49520  0.92660  0.12300  Biso   1.000  C
  C255     1.0000 0.07340  0.56860  0.12300  Biso   1.000  C
  C256     1.0000 0.50480  0.43140  0.87700  Biso   1.000  C
  C257     1.0000 0.92660  0.49520  0.87700  Biso   1.000  C
  C258     1.0000 0.56860  0.07340  0.87700  Biso   1.000  C
  C259     1.0000 0.09807  0.83813  0.45633  Biso   1.000  C
  C260     1.0000 0.16187  0.25993  0.45633  Biso   1.000  C
  C261     1.0000 0.74007  0.90193  0.45633  Biso   1.000  C
  C262     1.0000 0.17147  0.76473  0.21033  Biso   1.000  C
  C263     1.0000 0.59327  0.82853  0.21033  Biso   1.000  C
  C264     1.0000 0.23527  0.40673  0.21033  Biso   1.000  C
  C265     1.0000 0.76473  0.17147  0.78967  Biso   1.000  C
  C266     1.0000 0.82853  0.59327  0.78967  Biso   1.000  C
  C267     1.0000 0.40673  0.23527  0.78967  Biso   1.000  C
  C268     1.0000 0.83813  0.09807  0.54367  Biso   1.000  C
  C269     1.0000 0.25993  0.16187  0.54367  Biso   1.000  C
  C270     1.0000 0.90193  0.74007  0.54367  Biso   1.000  C
  C271     1.0000 0.56860  0.49520  0.87700  Biso   1.000  C
  C272     1.0000 0.50480  0.07340  0.87700  Biso   1.000  C
  C273     1.0000 0.92660  0.43140  0.87700  Biso   1.000  C
  C274     1.0000 0.49520  0.56860  0.12300  Biso   1.000  C
  C275     1.0000 0.07340  0.50480  0.12300  Biso   1.000  C
  C276     1.0000 0.43140  0.92660  0.12300  Biso   1.000  C
  C277     1.0000 0.23527  0.82853  0.21033  Biso   1.000  C
  C278     1.0000 0.17147  0.40673  0.21033  Biso   1.000  C
  C279     1.0000 0.59327  0.76473  0.21033  Biso   1.000  C
  C280     1.0000 0.16187  0.90193  0.45633  Biso   1.000  C
  C281     1.0000 0.74007  0.83813  0.45633  Biso   1.000  C
  C282     1.0000 0.09807  0.25993  0.45633  Biso   1.000  C
  C283     1.0000 0.90193  0.16187  0.54367  Biso   1.000  C
  C284     1.0000 0.83813  0.74007  0.54367  Biso   1.000  C
  C285     1.0000 0.25993  0.09807  0.54367  Biso   1.000  C
  C286     1.0000 0.82853  0.23527  0.78967  Biso   1.000  C
  C287     1.0000 0.40673  0.17147  0.78967  Biso   1.000  C
  C288     1.0000 0.76473  0.59327  0.78967  Biso   1.000  C
  H253     1.0000 0.45564  0.52535  0.15515  Biso   1.000  H
  H254     1.0000 0.47465  0.93029  0.15515  Biso   1.000  H
  H255     1.0000 0.06971  0.54436  0.15515  Biso   1.000  H
  H256     1.0000 0.52535  0.45564  0.84485  Biso   1.000  H
  H257     1.0000 0.93029  0.47465  0.84485  Biso   1.000  H
  H258     1.0000 0.54436  0.06971  0.84485  Biso   1.000  H
  H259     1.0000 0.12231  0.85868  0.48848  Biso   1.000  H
  H260     1.0000 0.14132  0.26362  0.48848  Biso   1.000  H
  H261     1.0000 0.73638  0.87769  0.48848  Biso   1.000  H
  H262     1.0000 0.19202  0.78897  0.17818  Biso   1.000  H
  H263     1.0000 0.59696  0.80798  0.17818  Biso   1.000  H
  H264     1.0000 0.21103  0.40304  0.17818  Biso   1.000  H
  H265     1.0000 0.78897  0.19202  0.82182  Biso   1.000  H
  H266     1.0000 0.80798  0.59696  0.82182  Biso   1.000  H
  H267     1.0000 0.40304  0.21103  0.82182  Biso   1.000  H
  H268     1.0000 0.85868  0.12231  0.51152  Biso   1.000  H
  H269     1.0000 0.26362  0.14132  0.51152  Biso   1.000  H
  H270     1.0000 0.87769  0.73638  0.51152  Biso   1.000  H
  H271     1.0000 0.54436  0.47465  0.84485  Biso   1.000  H
  H272     1.0000 0.52535  0.06971  0.84485  Biso   1.000  H
  H273     1.0000 0.93029  0.45564  0.84485  Biso   1.000  H
  H274     1.0000 0.47465  0.54436  0.15515  Biso   1.000  H
  H275     1.0000 0.06971  0.52535  0.15515  Biso   1.000  H
  H276     1.0000 0.45564  0.93029  0.15515  Biso   1.000  H
  H277     1.0000 0.21103  0.80798  0.17818  Biso   1.000  H
  H278     1.0000 0.19202  0.40304  0.17818  Biso   1.000  H
  H279     1.0000 0.59696  0.78897  0.17818  Biso   1.000  H
  H280     1.0000 0.14132  0.87769  0.48848  Biso   1.000  H
  H281     1.0000 0.73638  0.85868  0.48848  Biso   1.000  H
  H282     1.0000 0.12231  0.26362  0.48848  Biso   1.000  H
  H283     1.0000 0.87769  0.14132  0.51152  Biso   1.000  H
  H284     1.0000 0.85868  0.73638  0.51152  Biso   1.000  H
  H285     1.0000 0.26362  0.12231  0.51152  Biso   1.000  H
  H286     1.0000 0.80798  0.21103  0.82182  Biso   1.000  H
  H287     1.0000 0.40304  0.19202  0.82182  Biso   1.000  H
  H288     1.0000 0.78897  0.59696  0.82182  Biso   1.000  H
  H289     1.0000 0.43457  0.48077  0.11070  Biso   1.000  H
  H290     1.0000 0.51923  0.95380  0.11070  Biso   1.000  H
  H291     1.0000 0.04620  0.56543  0.11070  Biso   1.000  H
  H292     1.0000 0.48077  0.43457  0.88930  Biso   1.000  H
  H293     1.0000 0.95380  0.51923  0.88930  Biso   1.000  H
  H294     1.0000 0.56543  0.04620  0.88930  Biso   1.000  H
  H295     1.0000 0.10124  0.81410  0.44403  Biso   1.000  H
  H296     1.0000 0.18590  0.28713  0.44403  Biso   1.000  H
  H297     1.0000 0.71287  0.89876  0.44403  Biso   1.000  H
  H298     1.0000 0.14744  0.76790  0.22263  Biso   1.000  H
  H299     1.0000 0.62047  0.85256  0.22263  Biso   1.000  H
  H300     1.0000 0.23210  0.37953  0.22263  Biso   1.000  H
  H301     1.0000 0.76790  0.14744  0.77737  Biso   1.000  H
  H302     1.0000 0.85256  0.62047  0.77737  Biso   1.000  H
  H303     1.0000 0.37953  0.23210  0.77737  Biso   1.000  H
  H304     1.0000 0.81410  0.10124  0.55597  Biso   1.000  H
  H305     1.0000 0.28713  0.18590  0.55597  Biso   1.000  H
  H306     1.0000 0.89876  0.71287  0.55597  Biso   1.000  H
  H307     1.0000 0.56543  0.51923  0.88930  Biso   1.000  H
  H308     1.0000 0.48077  0.04620  0.88930  Biso   1.000  H
  H309     1.0000 0.95380  0.43457  0.88930  Biso   1.000  H
  H310     1.0000 0.51923  0.56543  0.11070  Biso   1.000  H
  H311     1.0000 0.04620  0.48077  0.11070  Biso   1.000  H
  H312     1.0000 0.43457  0.95380  0.11070  Biso   1.000  H
  H313     1.0000 0.23210  0.85256  0.22263  Biso   1.000  H
  H314     1.0000 0.14744  0.37953  0.22263  Biso   1.000  H
  H315     1.0000 0.62047  0.76790  0.22263  Biso   1.000  H
  H316     1.0000 0.18590  0.89876  0.44403  Biso   1.000  H
  H317     1.0000 0.71287  0.81410  0.44403  Biso   1.000  H
  H318     1.0000 0.10124  0.28713  0.44403  Biso   1.000  H
  H319     1.0000 0.89876  0.18590  0.55597  Biso   1.000  H
  H320     1.0000 0.81410  0.71287  0.55597  Biso   1.000  H
  H321     1.0000 0.28713  0.10124  0.55597  Biso   1.000  H
  H322     1.0000 0.85256  0.23210  0.77737  Biso   1.000  H
  H323     1.0000 0.37953  0.14744  0.77737  Biso   1.000  H
  H324     1.0000 0.76790  0.62047  0.77737  Biso   1.000  H
  H325     1.0000 0.42915  0.51732  0.07090  Biso   1.000  H
  H326     1.0000 0.48268  0.91183  0.07090  Biso   1.000  H
  H327     1.0000 0.08817  0.57085  0.07090  Biso   1.000  H
  H328     1.0000 0.51732  0.42915  0.92910  Biso   1.000  H
  H329     1.0000 0.91183  0.48268  0.92910  Biso   1.000  H
  H330     1.0000 0.57085  0.08817  0.92910  Biso   1.000  H
  H331     1.0000 0.09582  0.85065  0.40423  Biso   1.000  H
  H332     1.0000 0.14935  0.24516  0.40423  Biso   1.000  H
  H333     1.0000 0.75484  0.90418  0.40423  Biso   1.000  H
  H334     1.0000 0.18399  0.76248  0.26243  Biso   1.000  H
  H335     1.0000 0.57850  0.81601  0.26243  Biso   1.000  H
  H336     1.0000 0.23752  0.42150  0.26243  Biso   1.000  H
  H337     1.0000 0.76248  0.18399  0.73757  Biso   1.000  H
  H338     1.0000 0.81601  0.57850  0.73757  Biso   1.000  H
  H339     1.0000 0.42150  0.23752  0.73757  Biso   1.000  H
  H340     1.0000 0.85065  0.09582  0.59577  Biso   1.000  H
  H341     1.0000 0.24516  0.14935  0.59577  Biso   1.000  H
  H342     1.0000 0.90418  0.75484  0.59577  Biso   1.000  H
  H343     1.0000 0.57085  0.48268  0.92910  Biso   1.000  H
  H344     1.0000 0.51732  0.08817  0.92910  Biso   1.000  H
  H345     1.0000 0.91183  0.42915  0.92910  Biso   1.000  H
  H346     1.0000 0.48268  0.57085  0.07090  Biso   1.000  H
  H347     1.0000 0.08817  0.51732  0.07090  Biso   1.000  H
  H348     1.0000 0.42915  0.91183  0.07090  Biso   1.000  H
  H349     1.0000 0.23752  0.81601  0.26243  Biso   1.000  H
  H350     1.0000 0.18399  0.42150  0.26243  Biso   1.000  H
  H351     1.0000 0.57850  0.76248  0.26243  Biso   1.000  H
  H352     1.0000 0.14935  0.90418  0.40423  Biso   1.000  H
  H353     1.0000 0.75484  0.85065  0.40423  Biso   1.000  H
  H354     1.0000 0.09582  0.24516  0.40423  Biso   1.000  H
  H355     1.0000 0.90418  0.14935  0.59577  Biso   1.000  H
  H356     1.0000 0.85065  0.75484  0.59577  Biso   1.000  H
  H357     1.0000 0.24516  0.09582  0.59577  Biso   1.000  H
  H358     1.0000 0.81601  0.23752  0.73757  Biso   1.000  H
  H359     1.0000 0.42150  0.18399  0.73757  Biso   1.000  H
  H360     1.0000 0.76248  0.57850  0.73757  Biso   1.000  H
