data_image0
_cell_length_a       44.8511
_cell_length_b       19.046
_cell_length_c       14.7115
_cell_angle_alpha    90
_cell_angle_beta     102.38
_cell_angle_gamma    90

_symmetry_space_group_name_H-M    "P 1"
_symmetry_int_tables_number       1

loop_
  _symmetry_equiv_pos_as_xyz
  'x, y, z'

loop_
  _atom_site_label
  _atom_site_occupancy
  _atom_site_fract_x
  _atom_site_fract_y
  _atom_site_fract_z
  _atom_site_thermal_displace_type
  _atom_site_B_iso_or_equiv
  _atom_site_type_symbol
  Cu1      1.0000 0.87312  0.04288  0.63424  Biso   1.000  Cu
  Cu2      1.0000 0.12688  0.04288  0.86576  Biso   1.000  Cu
  Cu3      1.0000 0.37312  0.54288  0.63424  Biso   1.000  Cu
  Cu4      1.0000 0.62688  0.54288  0.86576  Biso   1.000  Cu
  Cu5      1.0000 0.12688  0.95712  0.36576  Biso   1.000  Cu
  Cu6      1.0000 0.87312  0.95712  0.13424  Biso   1.000  Cu
  Cu7      1.0000 0.62688  0.45712  0.36576  Biso   1.000  Cu
  Cu8      1.0000 0.37312  0.45712  0.13424  Biso   1.000  Cu
  Cu9      1.0000 0.87662  0.54209  0.59337  Biso   1.000  Cu
  Cu10     1.0000 0.12338  0.54209  0.90663  Biso   1.000  Cu
  Cu11     1.0000 0.37662  0.04209  0.59337  Biso   1.000  Cu
  Cu12     1.0000 0.62338  0.04209  0.90663  Biso   1.000  Cu
  Cu13     1.0000 0.12338  0.45791  0.40663  Biso   1.000  Cu
  Cu14     1.0000 0.87662  0.45791  0.09337  Biso   1.000  Cu
  Cu15     1.0000 0.62338  0.95791  0.40663  Biso   1.000  Cu
  Cu16     1.0000 0.37662  0.95791  0.09337  Biso   1.000  Cu
  O1       1.0000 0.87746  0.95820  0.56510  Biso   1.000  O
  O2       1.0000 0.12254  0.95820  0.93490  Biso   1.000  O
  O3       1.0000 0.37746  0.45820  0.56510  Biso   1.000  O
  O4       1.0000 0.62254  0.45820  0.93490  Biso   1.000  O
  O5       1.0000 0.12254  0.04180  0.43490  Biso   1.000  O
  O6       1.0000 0.87746  0.04180  0.06510  Biso   1.000  O
  O7       1.0000 0.62254  0.54180  0.43490  Biso   1.000  O
  O8       1.0000 0.37746  0.54180  0.06510  Biso   1.000  O
  O9       1.0000 0.89512  0.99450  0.44320  Biso   1.000  O
  O10      1.0000 0.10488  0.99450  0.05680  Biso   1.000  O
  O11      1.0000 0.39512  0.49450  0.44320  Biso   1.000  O
  O12      1.0000 0.60488  0.49450  0.05680  Biso   1.000  O
  O13      1.0000 0.10488  0.00550  0.55680  Biso   1.000  O
  O14      1.0000 0.89512  0.00550  0.94320  Biso   1.000  O
  O15      1.0000 0.60488  0.50550  0.55680  Biso   1.000  O
  O16      1.0000 0.39512  0.50550  0.94320  Biso   1.000  O
  O17      1.0000 0.86661  0.12930  0.69750  Biso   1.000  O
  O18      1.0000 0.13339  0.12930  0.80250  Biso   1.000  O
  O19      1.0000 0.36661  0.62930  0.69750  Biso   1.000  O
  O20      1.0000 0.63339  0.62930  0.80250  Biso   1.000  O
  O21      1.0000 0.13339  0.87070  0.30250  Biso   1.000  O
  O22      1.0000 0.86661  0.87070  0.19750  Biso   1.000  O
  O23      1.0000 0.63339  0.37070  0.30250  Biso   1.000  O
  O24      1.0000 0.36661  0.37070  0.19750  Biso   1.000  O
  O25      1.0000 0.87510  0.20360  0.58910  Biso   1.000  O
  O26      1.0000 0.12490  0.20360  0.91090  Biso   1.000  O
  O27      1.0000 0.37510  0.70360  0.58910  Biso   1.000  O
  O28      1.0000 0.62490  0.70360  0.91090  Biso   1.000  O
  O29      1.0000 0.12490  0.79640  0.41090  Biso   1.000  O
  O30      1.0000 0.87510  0.79640  0.08910  Biso   1.000  O
  O31      1.0000 0.62490  0.29640  0.41090  Biso   1.000  O
  O32      1.0000 0.37510  0.29640  0.08910  Biso   1.000  O
  O33      1.0000 0.87916  0.63130  0.53620  Biso   1.000  O
  O34      1.0000 0.12084  0.63130  0.96380  Biso   1.000  O
  O35      1.0000 0.37916  0.13130  0.53620  Biso   1.000  O
  O36      1.0000 0.62084  0.13130  0.96380  Biso   1.000  O
  O37      1.0000 0.12084  0.36870  0.46380  Biso   1.000  O
  O38      1.0000 0.87916  0.36870  0.03620  Biso   1.000  O
  O39      1.0000 0.62084  0.86870  0.46380  Biso   1.000  O
  O40      1.0000 0.37916  0.86870  0.03620  Biso   1.000  O
  O41      1.0000 0.86512  0.70910  0.63240  Biso   1.000  O
  O42      1.0000 0.13488  0.70910  0.86760  Biso   1.000  O
  O43      1.0000 0.36512  0.20910  0.63240  Biso   1.000  O
  O44      1.0000 0.63488  0.20910  0.86760  Biso   1.000  O
  O45      1.0000 0.13488  0.29090  0.36760  Biso   1.000  O
  O46      1.0000 0.86512  0.29090  0.13240  Biso   1.000  O
  O47      1.0000 0.63488  0.79090  0.36760  Biso   1.000  O
  O48      1.0000 0.36512  0.79090  0.13240  Biso   1.000  O
  O49      1.0000 0.81317  0.28650  0.89630  Biso   1.000  O
  O50      1.0000 0.18683  0.28650  0.60370  Biso   1.000  O
  O51      1.0000 0.31317  0.78650  0.89630  Biso   1.000  O
  O52      1.0000 0.68683  0.78650  0.60370  Biso   1.000  O
  O53      1.0000 0.18683  0.71350  0.10370  Biso   1.000  O
  O54      1.0000 0.81317  0.71350  0.39630  Biso   1.000  O
  O55      1.0000 0.68683  0.21350  0.10370  Biso   1.000  O
  O56      1.0000 0.31317  0.21350  0.39630  Biso   1.000  O
  O57      1.0000 0.93645  0.77020  0.33850  Biso   1.000  O
  O58      1.0000 0.06355  0.77020  0.16150  Biso   1.000  O
  O59      1.0000 0.43645  0.27020  0.33850  Biso   1.000  O
  O60      1.0000 0.56355  0.27020  0.16150  Biso   1.000  O
  O61      1.0000 0.06355  0.22980  0.66150  Biso   1.000  O
  O62      1.0000 0.93645  0.22980  0.83850  Biso   1.000  O
  O63      1.0000 0.56355  0.72980  0.66150  Biso   1.000  O
  O64      1.0000 0.43645  0.72980  0.83850  Biso   1.000  O
  O65      1.0000 0.87481  0.45360  0.65520  Biso   1.000  O
  O66      1.0000 0.12519  0.45360  0.84480  Biso   1.000  O
  O67      1.0000 0.37481  0.95360  0.65520  Biso   1.000  O
  O68      1.0000 0.62519  0.95360  0.84480  Biso   1.000  O
  O69      1.0000 0.12519  0.54640  0.34480  Biso   1.000  O
  O70      1.0000 0.87481  0.54640  0.15520  Biso   1.000  O
  O71      1.0000 0.62519  0.04640  0.34480  Biso   1.000  O
  O72      1.0000 0.37481  0.04640  0.15520  Biso   1.000  O
  O73      1.0000 0.85759  0.49650  0.77390  Biso   1.000  O
  O74      1.0000 0.14241  0.49650  0.72610  Biso   1.000  O
  O75      1.0000 0.35759  0.99650  0.77390  Biso   1.000  O
  O76      1.0000 0.64241  0.99650  0.72610  Biso   1.000  O
  O77      1.0000 0.14241  0.50350  0.22610  Biso   1.000  O
  O78      1.0000 0.85759  0.50350  0.27390  Biso   1.000  O
  O79      1.0000 0.64241  0.00350  0.22610  Biso   1.000  O
  O80      1.0000 0.35759  0.00350  0.27390  Biso   1.000  O
  N1       1.0000 0.82733  0.03070  0.59200  Biso   1.000  N
  N2       1.0000 0.17267  0.03070  0.90800  Biso   1.000  N
  N3       1.0000 0.32733  0.53070  0.59200  Biso   1.000  N
  N4       1.0000 0.67267  0.53070  0.90800  Biso   1.000  N
  N5       1.0000 0.17267  0.96930  0.40800  Biso   1.000  N
  N6       1.0000 0.82733  0.96930  0.09200  Biso   1.000  N
  N7       1.0000 0.67267  0.46930  0.40800  Biso   1.000  N
  N8       1.0000 0.32733  0.46930  0.09200  Biso   1.000  N
  N9       1.0000 0.91947  0.04840  0.67360  Biso   1.000  N
  N10      1.0000 0.08053  0.04840  0.82640  Biso   1.000  N
  N11      1.0000 0.41947  0.54840  0.67360  Biso   1.000  N
  N12      1.0000 0.58053  0.54840  0.82640  Biso   1.000  N
  N13      1.0000 0.08053  0.95160  0.32640  Biso   1.000  N
  N14      1.0000 0.91947  0.95160  0.17360  Biso   1.000  N
  N15      1.0000 0.58053  0.45160  0.32640  Biso   1.000  N
  N16      1.0000 0.41947  0.45160  0.17360  Biso   1.000  N
  N17      1.0000 0.66842  0.96890  0.46210  Biso   1.000  N
  N18      1.0000 0.33158  0.96890  0.03790  Biso   1.000  N
  N19      1.0000 0.16842  0.46890  0.46210  Biso   1.000  N
  N20      1.0000 0.83158  0.46890  0.03790  Biso   1.000  N
  N21      1.0000 0.33158  0.03110  0.53790  Biso   1.000  N
  N22      1.0000 0.66842  0.03110  0.96210  Biso   1.000  N
  N23      1.0000 0.83158  0.53110  0.53790  Biso   1.000  N
  N24      1.0000 0.16842  0.53110  0.96210  Biso   1.000  N
  C1       1.0000 0.80726  0.08390  0.57170  Biso   1.000  C
  C2       1.0000 0.19274  0.08390  0.92830  Biso   1.000  C
  C3       1.0000 0.30726  0.58390  0.57170  Biso   1.000  C
  C4       1.0000 0.69274  0.58390  0.92830  Biso   1.000  C
  C5       1.0000 0.19274  0.91610  0.42830  Biso   1.000  C
  C6       1.0000 0.80726  0.91610  0.07170  Biso   1.000  C
  C7       1.0000 0.69274  0.41610  0.42830  Biso   1.000  C
  C8       1.0000 0.30726  0.41610  0.07170  Biso   1.000  C
  H1       1.0000 0.81472  0.12948  0.57238  Biso   1.000  H
  H2       1.0000 0.18528  0.12948  0.92762  Biso   1.000  H
  H3       1.0000 0.31472  0.62948  0.57238  Biso   1.000  H
  H4       1.0000 0.68528  0.62948  0.92762  Biso   1.000  H
  H5       1.0000 0.18528  0.87052  0.42762  Biso   1.000  H
  H6       1.0000 0.81472  0.87052  0.07238  Biso   1.000  H
  H7       1.0000 0.68528  0.37052  0.42762  Biso   1.000  H
  H8       1.0000 0.31472  0.37052  0.07238  Biso   1.000  H
  C9       1.0000 0.77611  0.07360  0.55000  Biso   1.000  C
  C10      1.0000 0.22389  0.07360  0.95000  Biso   1.000  C
  C11      1.0000 0.27611  0.57360  0.55000  Biso   1.000  C
  C12      1.0000 0.72389  0.57360  0.95000  Biso   1.000  C
  C13      1.0000 0.22389  0.92640  0.45000  Biso   1.000  C
  C14      1.0000 0.77611  0.92640  0.05000  Biso   1.000  C
  C15      1.0000 0.72389  0.42640  0.45000  Biso   1.000  C
  C16      1.0000 0.27611  0.42640  0.05000  Biso   1.000  C
  H9       1.0000 0.76307  0.11201  0.53705  Biso   1.000  H
  H10      1.0000 0.23693  0.11201  0.96295  Biso   1.000  H
  H11      1.0000 0.26307  0.61201  0.53705  Biso   1.000  H
  H12      1.0000 0.73693  0.61201  0.96295  Biso   1.000  H
  H13      1.0000 0.23693  0.88799  0.46295  Biso   1.000  H
  H14      1.0000 0.76307  0.88799  0.03705  Biso   1.000  H
  H15      1.0000 0.73693  0.38799  0.46295  Biso   1.000  H
  H16      1.0000 0.26307  0.38799  0.03705  Biso   1.000  H
  C17      1.0000 0.76413  0.00650  0.54740  Biso   1.000  C
  C18      1.0000 0.23587  0.00650  0.95260  Biso   1.000  C
  C19      1.0000 0.26413  0.50650  0.54740  Biso   1.000  C
  C20      1.0000 0.73587  0.50650  0.95260  Biso   1.000  C
  C21      1.0000 0.23587  0.99350  0.45260  Biso   1.000  C
  C22      1.0000 0.76413  0.99350  0.04740  Biso   1.000  C
  C23      1.0000 0.73587  0.49350  0.45260  Biso   1.000  C
  C24      1.0000 0.26413  0.49350  0.04740  Biso   1.000  C
  C25      1.0000 0.78507  0.95270  0.56970  Biso   1.000  C
  C26      1.0000 0.21493  0.95270  0.93030  Biso   1.000  C
  C27      1.0000 0.28507  0.45270  0.56970  Biso   1.000  C
  C28      1.0000 0.71493  0.45270  0.93030  Biso   1.000  C
  C29      1.0000 0.21493  0.04730  0.43030  Biso   1.000  C
  C30      1.0000 0.78507  0.04730  0.06970  Biso   1.000  C
  C31      1.0000 0.71493  0.54730  0.43030  Biso   1.000  C
  C32      1.0000 0.28507  0.54730  0.06970  Biso   1.000  C
  H17      1.0000 0.77827  0.90655  0.56962  Biso   1.000  H
  H18      1.0000 0.22173  0.90655  0.93038  Biso   1.000  H
  H19      1.0000 0.27827  0.40655  0.56962  Biso   1.000  H
  H20      1.0000 0.72173  0.40655  0.93038  Biso   1.000  H
  H21      1.0000 0.22173  0.09345  0.43038  Biso   1.000  H
  H22      1.0000 0.77827  0.09345  0.06962  Biso   1.000  H
  H23      1.0000 0.72173  0.59345  0.43038  Biso   1.000  H
  H24      1.0000 0.27827  0.59345  0.06962  Biso   1.000  H
  C33      1.0000 0.81557  0.96640  0.59190  Biso   1.000  C
  C34      1.0000 0.18443  0.96640  0.90810  Biso   1.000  C
  C35      1.0000 0.31557  0.46640  0.59190  Biso   1.000  C
  C36      1.0000 0.68443  0.46640  0.90810  Biso   1.000  C
  C37      1.0000 0.18443  0.03360  0.40810  Biso   1.000  C
  C38      1.0000 0.81557  0.03360  0.09190  Biso   1.000  C
  C39      1.0000 0.68443  0.53360  0.40810  Biso   1.000  C
  C40      1.0000 0.31557  0.53360  0.09190  Biso   1.000  C
  H25      1.0000 0.82892  0.92887  0.60774  Biso   1.000  H
  H26      1.0000 0.17108  0.92887  0.89226  Biso   1.000  H
  H27      1.0000 0.32892  0.42887  0.60774  Biso   1.000  H
  H28      1.0000 0.67108  0.42887  0.89226  Biso   1.000  H
  H29      1.0000 0.17108  0.07113  0.39226  Biso   1.000  H
  H30      1.0000 0.82892  0.07113  0.10774  Biso   1.000  H
  H31      1.0000 0.67108  0.57113  0.39226  Biso   1.000  H
  H32      1.0000 0.32892  0.57113  0.10774  Biso   1.000  H
  C41      1.0000 0.73105  0.99270  0.51980  Biso   1.000  C
  C42      1.0000 0.26895  0.99270  0.98020  Biso   1.000  C
  C43      1.0000 0.23105  0.49270  0.51980  Biso   1.000  C
  C44      1.0000 0.76895  0.49270  0.98020  Biso   1.000  C
  C45      1.0000 0.26895  0.00730  0.48020  Biso   1.000  C
  C46      1.0000 0.73105  0.00730  0.01980  Biso   1.000  C
  C47      1.0000 0.76895  0.50730  0.48020  Biso   1.000  C
  C48      1.0000 0.23105  0.50730  0.01980  Biso   1.000  C
  C49      1.0000 0.70978  0.04450  0.52690  Biso   1.000  C
  C50      1.0000 0.29022  0.04450  0.97310  Biso   1.000  C
  C51      1.0000 0.20978  0.54450  0.52690  Biso   1.000  C
  C52      1.0000 0.79022  0.54450  0.97310  Biso   1.000  C
  C53      1.0000 0.29022  0.95550  0.47310  Biso   1.000  C
  C54      1.0000 0.70978  0.95550  0.02690  Biso   1.000  C
  C55      1.0000 0.79022  0.45550  0.47310  Biso   1.000  C
  C56      1.0000 0.20978  0.45550  0.02690  Biso   1.000  C
  H33      1.0000 0.71626  0.08793  0.55253  Biso   1.000  H
  H34      1.0000 0.28374  0.08793  0.94747  Biso   1.000  H
  H35      1.0000 0.21626  0.58793  0.55253  Biso   1.000  H
  H36      1.0000 0.78374  0.58793  0.94747  Biso   1.000  H
  H37      1.0000 0.28374  0.91207  0.44747  Biso   1.000  H
  H38      1.0000 0.71626  0.91207  0.05253  Biso   1.000  H
  H39      1.0000 0.78374  0.41207  0.44747  Biso   1.000  H
  H40      1.0000 0.21626  0.41207  0.05253  Biso   1.000  H
  C57      1.0000 0.67915  0.03120  0.49590  Biso   1.000  C
  C58      1.0000 0.32085  0.03120  0.00410  Biso   1.000  C
  C59      1.0000 0.17915  0.53120  0.49590  Biso   1.000  C
  C60      1.0000 0.82085  0.53120  0.00410  Biso   1.000  C
  C61      1.0000 0.32085  0.96880  0.50410  Biso   1.000  C
  C62      1.0000 0.67915  0.96880  0.99590  Biso   1.000  C
  C63      1.0000 0.82085  0.46880  0.50410  Biso   1.000  C
  C64      1.0000 0.17915  0.46880  0.99590  Biso   1.000  C
  H41      1.0000 0.66532  0.06714  0.49850  Biso   1.000  H
  H42      1.0000 0.33468  0.06714  0.00150  Biso   1.000  H
  H43      1.0000 0.16532  0.56714  0.49850  Biso   1.000  H
  H44      1.0000 0.83468  0.56714  0.00150  Biso   1.000  H
  H45      1.0000 0.33468  0.93286  0.50150  Biso   1.000  H
  H46      1.0000 0.66532  0.93286  0.99850  Biso   1.000  H
  H47      1.0000 0.83468  0.43286  0.50150  Biso   1.000  H
  H48      1.0000 0.16532  0.43286  0.99850  Biso   1.000  H
  C65      1.0000 0.68859  0.91790  0.45880  Biso   1.000  C
  C66      1.0000 0.31141  0.91790  0.04120  Biso   1.000  C
  C67      1.0000 0.18859  0.41790  0.45880  Biso   1.000  C
  C68      1.0000 0.81141  0.41790  0.04120  Biso   1.000  C
  C69      1.0000 0.31141  0.08210  0.54120  Biso   1.000  C
  C70      1.0000 0.68859  0.08210  0.95880  Biso   1.000  C
  C71      1.0000 0.81141  0.58210  0.54120  Biso   1.000  C
  C72      1.0000 0.18859  0.58210  0.95880  Biso   1.000  C
  H49      1.0000 0.68149  0.87378  0.43728  Biso   1.000  H
  H50      1.0000 0.31851  0.87378  0.06272  Biso   1.000  H
  H51      1.0000 0.18149  0.37378  0.43728  Biso   1.000  H
  H52      1.0000 0.81851  0.37378  0.06272  Biso   1.000  H
  H53      1.0000 0.31851  0.12622  0.56272  Biso   1.000  H
  H54      1.0000 0.68149  0.12622  0.93728  Biso   1.000  H
  H55      1.0000 0.81851  0.62622  0.56272  Biso   1.000  H
  H56      1.0000 0.18149  0.62622  0.93728  Biso   1.000  H
  C73      1.0000 0.71966  0.92870  0.48650  Biso   1.000  C
  C74      1.0000 0.28034  0.92870  0.01350  Biso   1.000  C
  C75      1.0000 0.21966  0.42870  0.48650  Biso   1.000  C
  C76      1.0000 0.78034  0.42870  0.01350  Biso   1.000  C
  C77      1.0000 0.28034  0.07130  0.51350  Biso   1.000  C
  C78      1.0000 0.71966  0.07130  0.98650  Biso   1.000  C
  C79      1.0000 0.78034  0.57130  0.51350  Biso   1.000  C
  C80      1.0000 0.21966  0.57130  0.98650  Biso   1.000  C
  H57      1.0000 0.73304  0.89207  0.48243  Biso   1.000  H
  H58      1.0000 0.26696  0.89207  0.01757  Biso   1.000  H
  H59      1.0000 0.23304  0.39207  0.48243  Biso   1.000  H
  H60      1.0000 0.76696  0.39207  0.01757  Biso   1.000  H
  H61      1.0000 0.26696  0.10793  0.51757  Biso   1.000  H
  H62      1.0000 0.73304  0.10793  0.98243  Biso   1.000  H
  H63      1.0000 0.76696  0.60793  0.51757  Biso   1.000  H
  H64      1.0000 0.23304  0.60793  0.98243  Biso   1.000  H
  C81      1.0000 0.88818  0.94770  0.49380  Biso   1.000  C
  C82      1.0000 0.11182  0.94770  0.00620  Biso   1.000  C
  C83      1.0000 0.38818  0.44770  0.49380  Biso   1.000  C
  C84      1.0000 0.61182  0.44770  0.00620  Biso   1.000  C
  C85      1.0000 0.11182  0.05230  0.50620  Biso   1.000  C
  C86      1.0000 0.88818  0.05230  0.99380  Biso   1.000  C
  C87      1.0000 0.61182  0.55230  0.50620  Biso   1.000  C
  C88      1.0000 0.38818  0.55230  0.99380  Biso   1.000  C
  C89      1.0000 0.86695  0.19060  0.66250  Biso   1.000  C
  C90      1.0000 0.13305  0.19060  0.83750  Biso   1.000  C
  C91      1.0000 0.36695  0.69060  0.66250  Biso   1.000  C
  C92      1.0000 0.63305  0.69060  0.83750  Biso   1.000  C
  C93      1.0000 0.13305  0.80940  0.33750  Biso   1.000  C
  C94      1.0000 0.86695  0.80940  0.16250  Biso   1.000  C
  C95      1.0000 0.63305  0.30940  0.33750  Biso   1.000  C
  C96      1.0000 0.36695  0.30940  0.16250  Biso   1.000  C
  C97      1.0000 0.89374  0.87180  0.47520  Biso   1.000  C
  C98      1.0000 0.10626  0.87180  0.02480  Biso   1.000  C
  C99      1.0000 0.39374  0.37180  0.47520  Biso   1.000  C
  C100     1.0000 0.60626  0.37180  0.02480  Biso   1.000  C
  C101     1.0000 0.10626  0.12820  0.52480  Biso   1.000  C
  C102     1.0000 0.89374  0.12820  0.97520  Biso   1.000  C
  C103     1.0000 0.60626  0.62820  0.52480  Biso   1.000  C
  C104     1.0000 0.39374  0.62820  0.97520  Biso   1.000  C
  C105     1.0000 0.88282  0.82050  0.52550  Biso   1.000  C
  C106     1.0000 0.11718  0.82050  0.97450  Biso   1.000  C
  C107     1.0000 0.38282  0.32050  0.52550  Biso   1.000  C
  C108     1.0000 0.61718  0.32050  0.97450  Biso   1.000  C
  C109     1.0000 0.11718  0.17950  0.47450  Biso   1.000  C
  C110     1.0000 0.88282  0.17950  0.02550  Biso   1.000  C
  C111     1.0000 0.61718  0.67950  0.47450  Biso   1.000  C
  C112     1.0000 0.38282  0.67950  0.02550  Biso   1.000  C
  H65      1.0000 0.87160  0.83308  0.56936  Biso   1.000  H
  H66      1.0000 0.12840  0.83308  0.93064  Biso   1.000  H
  H67      1.0000 0.37160  0.33308  0.56936  Biso   1.000  H
  H68      1.0000 0.62840  0.33308  0.93064  Biso   1.000  H
  H69      1.0000 0.12840  0.16692  0.43064  Biso   1.000  H
  H70      1.0000 0.87160  0.16692  0.06936  Biso   1.000  H
  H71      1.0000 0.62840  0.66692  0.43064  Biso   1.000  H
  H72      1.0000 0.37160  0.66692  0.06936  Biso   1.000  H
  C113     1.0000 0.91081  0.85300  0.41070  Biso   1.000  C
  C114     1.0000 0.08919  0.85300  0.08930  Biso   1.000  C
  C115     1.0000 0.41081  0.35300  0.41070  Biso   1.000  C
  C116     1.0000 0.58919  0.35300  0.08930  Biso   1.000  C
  C117     1.0000 0.08919  0.14700  0.58930  Biso   1.000  C
  C118     1.0000 0.91081  0.14700  0.91070  Biso   1.000  C
  C119     1.0000 0.58919  0.64700  0.58930  Biso   1.000  C
  C120     1.0000 0.41081  0.64700  0.91070  Biso   1.000  C
  H73      1.0000 0.91767  0.88733  0.37521  Biso   1.000  H
  H74      1.0000 0.08233  0.88733  0.12479  Biso   1.000  H
  H75      1.0000 0.41767  0.38733  0.37521  Biso   1.000  H
  H76      1.0000 0.58233  0.38733  0.12479  Biso   1.000  H
  H77      1.0000 0.08233  0.11267  0.62479  Biso   1.000  H
  H78      1.0000 0.91767  0.11267  0.87521  Biso   1.000  H
  H79      1.0000 0.58233  0.61267  0.62479  Biso   1.000  H
  H80      1.0000 0.41767  0.61267  0.87521  Biso   1.000  H
  C121     1.0000 0.91764  0.78300  0.39930  Biso   1.000  C
  C122     1.0000 0.08236  0.78300  0.10070  Biso   1.000  C
  C123     1.0000 0.41764  0.28300  0.39930  Biso   1.000  C
  C124     1.0000 0.58236  0.28300  0.10070  Biso   1.000  C
  C125     1.0000 0.08236  0.21700  0.60070  Biso   1.000  C
  C126     1.0000 0.91764  0.21700  0.89930  Biso   1.000  C
  C127     1.0000 0.58236  0.71700  0.60070  Biso   1.000  C
  C128     1.0000 0.41764  0.71700  0.89930  Biso   1.000  C
  C129     1.0000 0.90591  0.73160  0.44670  Biso   1.000  C
  C130     1.0000 0.09409  0.73160  0.05330  Biso   1.000  C
  C131     1.0000 0.40591  0.23160  0.44670  Biso   1.000  C
  C132     1.0000 0.59409  0.23160  0.05330  Biso   1.000  C
  C133     1.0000 0.09409  0.26840  0.55330  Biso   1.000  C
  C134     1.0000 0.90591  0.26840  0.94670  Biso   1.000  C
  C135     1.0000 0.59409  0.76840  0.55330  Biso   1.000  C
  C136     1.0000 0.40591  0.76840  0.94670  Biso   1.000  C
  H81      1.0000 0.90954  0.68452  0.43604  Biso   1.000  H
  H82      1.0000 0.09046  0.68452  0.06396  Biso   1.000  H
  H83      1.0000 0.40954  0.18452  0.43604  Biso   1.000  H
  H84      1.0000 0.59046  0.18452  0.06396  Biso   1.000  H
  H85      1.0000 0.09046  0.31548  0.56396  Biso   1.000  H
  H86      1.0000 0.90954  0.31548  0.93604  Biso   1.000  H
  H87      1.0000 0.59046  0.81548  0.56396  Biso   1.000  H
  H88      1.0000 0.40954  0.81548  0.93604  Biso   1.000  H
  C137     1.0000 0.88849  0.75010  0.51110  Biso   1.000  C
  C138     1.0000 0.11151  0.75010  0.98890  Biso   1.000  C
  C139     1.0000 0.38849  0.25010  0.51110  Biso   1.000  C
  C140     1.0000 0.61151  0.25010  0.98890  Biso   1.000  C
  C141     1.0000 0.11151  0.24990  0.48890  Biso   1.000  C
  C142     1.0000 0.88849  0.24990  0.01110  Biso   1.000  C
  C143     1.0000 0.61151  0.74990  0.48890  Biso   1.000  C
  C144     1.0000 0.38849  0.74990  0.01110  Biso   1.000  C
  C145     1.0000 0.84003  0.23650  0.78430  Biso   1.000  C
  C146     1.0000 0.15997  0.23650  0.71570  Biso   1.000  C
  C147     1.0000 0.34003  0.73650  0.78430  Biso   1.000  C
  C148     1.0000 0.65997  0.73650  0.71570  Biso   1.000  C
  C149     1.0000 0.15997  0.76350  0.21570  Biso   1.000  C
  C150     1.0000 0.84003  0.76350  0.28430  Biso   1.000  C
  C151     1.0000 0.65997  0.26350  0.21570  Biso   1.000  C
  C152     1.0000 0.34003  0.26350  0.28430  Biso   1.000  C
  H89      1.0000 0.83537  0.19067  0.79822  Biso   1.000  H
  H90      1.0000 0.16463  0.19067  0.70178  Biso   1.000  H
  H91      1.0000 0.33537  0.69067  0.79822  Biso   1.000  H
  H92      1.0000 0.66463  0.69067  0.70178  Biso   1.000  H
  H93      1.0000 0.16463  0.80933  0.20178  Biso   1.000  H
  H94      1.0000 0.83537  0.80933  0.29822  Biso   1.000  H
  H95      1.0000 0.66463  0.30933  0.20178  Biso   1.000  H
  H96      1.0000 0.33537  0.30933  0.29822  Biso   1.000  H
  C153     1.0000 0.86408  0.31770  0.69820  Biso   1.000  C
  C154     1.0000 0.13592  0.31770  0.80180  Biso   1.000  C
  C155     1.0000 0.36408  0.81770  0.69820  Biso   1.000  C
  C156     1.0000 0.63592  0.81770  0.80180  Biso   1.000  C
  C157     1.0000 0.13592  0.68230  0.30180  Biso   1.000  C
  C158     1.0000 0.86408  0.68230  0.19820  Biso   1.000  C
  C159     1.0000 0.63592  0.18230  0.30180  Biso   1.000  C
  C160     1.0000 0.36408  0.18230  0.19820  Biso   1.000  C
  H97      1.0000 0.87501  0.32638  0.65227  Biso   1.000  H
  H98      1.0000 0.12499  0.32638  0.84773  Biso   1.000  H
  H99      1.0000 0.37501  0.82638  0.65227  Biso   1.000  H
  H100     1.0000 0.62499  0.82638  0.84773  Biso   1.000  H
  H101     1.0000 0.12499  0.67362  0.34773  Biso   1.000  H
  H102     1.0000 0.87501  0.67362  0.15227  Biso   1.000  H
  H103     1.0000 0.62499  0.17362  0.34773  Biso   1.000  H
  H104     1.0000 0.37501  0.17362  0.15227  Biso   1.000  H
  C161     1.0000 0.85554  0.37310  0.74750  Biso   1.000  C
  C162     1.0000 0.14446  0.37310  0.75250  Biso   1.000  C
  C163     1.0000 0.35554  0.87310  0.74750  Biso   1.000  C
  C164     1.0000 0.64446  0.87310  0.75250  Biso   1.000  C
  C165     1.0000 0.14446  0.62690  0.25250  Biso   1.000  C
  C166     1.0000 0.85554  0.62690  0.24750  Biso   1.000  C
  C167     1.0000 0.64446  0.12690  0.25250  Biso   1.000  C
  C168     1.0000 0.35554  0.12690  0.24750  Biso   1.000  C
  C169     1.0000 0.83861  0.36000  0.81430  Biso   1.000  C
  C170     1.0000 0.16139  0.36000  0.68570  Biso   1.000  C
  C171     1.0000 0.33861  0.86000  0.81430  Biso   1.000  C
  C172     1.0000 0.66139  0.86000  0.68570  Biso   1.000  C
  C173     1.0000 0.16139  0.64000  0.18570  Biso   1.000  C
  C174     1.0000 0.83861  0.64000  0.31430  Biso   1.000  C
  C175     1.0000 0.66139  0.14000  0.18570  Biso   1.000  C
  C176     1.0000 0.33861  0.14000  0.31430  Biso   1.000  C
  H105     1.0000 0.83269  0.39697  0.84782  Biso   1.000  H
  H106     1.0000 0.16731  0.39697  0.65218  Biso   1.000  H
  H107     1.0000 0.33269  0.89697  0.84782  Biso   1.000  H
  H108     1.0000 0.66731  0.89697  0.65218  Biso   1.000  H
  H109     1.0000 0.16731  0.60303  0.15218  Biso   1.000  H
  H110     1.0000 0.83269  0.60303  0.34782  Biso   1.000  H
  H111     1.0000 0.66731  0.10303  0.15218  Biso   1.000  H
  H112     1.0000 0.33269  0.10303  0.34782  Biso   1.000  H
  C177     1.0000 0.83059  0.29230  0.83100  Biso   1.000  C
  C178     1.0000 0.16941  0.29230  0.66900  Biso   1.000  C
  C179     1.0000 0.33059  0.79230  0.83100  Biso   1.000  C
  C180     1.0000 0.66941  0.79230  0.66900  Biso   1.000  C
  C181     1.0000 0.16941  0.70770  0.16900  Biso   1.000  C
  C182     1.0000 0.83059  0.70770  0.33100  Biso   1.000  C
  C183     1.0000 0.66941  0.20770  0.16900  Biso   1.000  C
  C184     1.0000 0.33059  0.20770  0.33100  Biso   1.000  C
  C185     1.0000 0.79975  0.21980  0.90790  Biso   1.000  C
  C186     1.0000 0.20025  0.21980  0.59210  Biso   1.000  C
  C187     1.0000 0.29975  0.71980  0.90790  Biso   1.000  C
  C188     1.0000 0.70025  0.71980  0.59210  Biso   1.000  C
  C189     1.0000 0.20025  0.78020  0.09210  Biso   1.000  C
  C190     1.0000 0.79975  0.78020  0.40790  Biso   1.000  C
  C191     1.0000 0.70025  0.28020  0.09210  Biso   1.000  C
  C192     1.0000 0.29975  0.28020  0.40790  Biso   1.000  C
  H113     1.0000 0.81463  0.18887  0.94559  Biso   1.000  H
  H114     1.0000 0.18537  0.18887  0.55441  Biso   1.000  H
  H115     1.0000 0.31463  0.68887  0.94559  Biso   1.000  H
  H116     1.0000 0.68537  0.68887  0.55441  Biso   1.000  H
  H117     1.0000 0.18537  0.81113  0.05441  Biso   1.000  H
  H118     1.0000 0.81463  0.81113  0.44559  Biso   1.000  H
  H119     1.0000 0.68537  0.31113  0.05441  Biso   1.000  H
  H120     1.0000 0.31463  0.31113  0.44559  Biso   1.000  H
  H121     1.0000 0.79217  0.19770  0.84798  Biso   1.000  H
  H122     1.0000 0.20783  0.19770  0.65202  Biso   1.000  H
  H123     1.0000 0.29217  0.69770  0.84798  Biso   1.000  H
  H124     1.0000 0.70783  0.69770  0.65202  Biso   1.000  H
  H125     1.0000 0.20783  0.80230  0.15202  Biso   1.000  H
  H126     1.0000 0.79217  0.80230  0.34798  Biso   1.000  H
  H127     1.0000 0.70783  0.30230  0.15202  Biso   1.000  H
  H128     1.0000 0.29217  0.30230  0.34798  Biso   1.000  H
  C193     1.0000 0.77388  0.23460  0.95580  Biso   1.000  C
  C194     1.0000 0.22612  0.23460  0.54420  Biso   1.000  C
  C195     1.0000 0.27388  0.73460  0.95580  Biso   1.000  C
  C196     1.0000 0.72612  0.73460  0.54420  Biso   1.000  C
  C197     1.0000 0.22612  0.76540  0.04420  Biso   1.000  C
  C198     1.0000 0.77388  0.76540  0.45580  Biso   1.000  C
  C199     1.0000 0.72612  0.26540  0.04420  Biso   1.000  C
  C200     1.0000 0.27388  0.26540  0.45580  Biso   1.000  C
  C201     1.0000 0.74449  0.24310  0.90510  Biso   1.000  C
  C202     1.0000 0.25551  0.24310  0.59490  Biso   1.000  C
  C203     1.0000 0.24449  0.74310  0.90510  Biso   1.000  C
  C204     1.0000 0.75551  0.74310  0.59490  Biso   1.000  C
  C205     1.0000 0.25551  0.75690  0.09490  Biso   1.000  C
  C206     1.0000 0.74449  0.75690  0.40510  Biso   1.000  C
  C207     1.0000 0.75551  0.25690  0.09490  Biso   1.000  C
  C208     1.0000 0.24449  0.25690  0.40510  Biso   1.000  C
  H129     1.0000 0.74053  0.23877  0.84068  Biso   1.000  H
  H130     1.0000 0.25947  0.23877  0.65932  Biso   1.000  H
  H131     1.0000 0.24053  0.73877  0.84068  Biso   1.000  H
  H132     1.0000 0.75947  0.73877  0.65932  Biso   1.000  H
  H133     1.0000 0.25947  0.76123  0.15932  Biso   1.000  H
  H134     1.0000 0.74053  0.76123  0.34068  Biso   1.000  H
  H135     1.0000 0.75947  0.26123  0.15932  Biso   1.000  H
  H136     1.0000 0.24053  0.26123  0.34068  Biso   1.000  H
  C209     1.0000 0.77905  0.24200  0.05160  Biso   1.000  C
  C210     1.0000 0.22095  0.24200  0.44840  Biso   1.000  C
  C211     1.0000 0.27905  0.74200  0.05160  Biso   1.000  C
  C212     1.0000 0.72095  0.74200  0.44840  Biso   1.000  C
  C213     1.0000 0.22095  0.75800  0.94840  Biso   1.000  C
  C214     1.0000 0.77905  0.75800  0.55160  Biso   1.000  C
  C215     1.0000 0.72095  0.25800  0.94840  Biso   1.000  C
  C216     1.0000 0.27905  0.25800  0.55160  Biso   1.000  C
  H137     1.0000 0.79874  0.23682  0.08717  Biso   1.000  H
  H138     1.0000 0.20126  0.23682  0.41283  Biso   1.000  H
  H139     1.0000 0.29874  0.73682  0.08717  Biso   1.000  H
  H140     1.0000 0.70126  0.73682  0.41283  Biso   1.000  H
  H141     1.0000 0.20126  0.76318  0.91283  Biso   1.000  H
  H142     1.0000 0.79874  0.76318  0.58717  Biso   1.000  H
  H143     1.0000 0.70126  0.26318  0.91283  Biso   1.000  H
  H144     1.0000 0.29874  0.26318  0.58717  Biso   1.000  H
  C217     1.0000 0.87638  0.69380  0.56530  Biso   1.000  C
  C218     1.0000 0.12362  0.69380  0.93470  Biso   1.000  C
  C219     1.0000 0.37638  0.19380  0.56530  Biso   1.000  C
  C220     1.0000 0.62362  0.19380  0.93470  Biso   1.000  C
  C221     1.0000 0.12362  0.30620  0.43470  Biso   1.000  C
  C222     1.0000 0.87638  0.30620  0.06530  Biso   1.000  C
  C223     1.0000 0.62362  0.80620  0.43470  Biso   1.000  C
  C224     1.0000 0.37638  0.80620  0.06530  Biso   1.000  C
  C225     1.0000 0.94740  0.70060  0.33580  Biso   1.000  C
  C226     1.0000 0.05260  0.70060  0.16420  Biso   1.000  C
  C227     1.0000 0.44740  0.20060  0.33580  Biso   1.000  C
  C228     1.0000 0.55260  0.20060  0.16420  Biso   1.000  C
  C229     1.0000 0.05260  0.29940  0.66420  Biso   1.000  C
  C230     1.0000 0.94740  0.29940  0.83580  Biso   1.000  C
  C231     1.0000 0.55260  0.79940  0.66420  Biso   1.000  C
  C232     1.0000 0.44740  0.79940  0.83580  Biso   1.000  C
  H145     1.0000 0.93136  0.67065  0.30160  Biso   1.000  H
  H146     1.0000 0.06864  0.67065  0.19840  Biso   1.000  H
  H147     1.0000 0.43136  0.17065  0.30160  Biso   1.000  H
  H148     1.0000 0.56864  0.17065  0.19840  Biso   1.000  H
  H149     1.0000 0.06864  0.32935  0.69840  Biso   1.000  H
  H150     1.0000 0.93136  0.32935  0.80160  Biso   1.000  H
  H151     1.0000 0.56864  0.82935  0.69840  Biso   1.000  H
  H152     1.0000 0.43136  0.82935  0.80160  Biso   1.000  H
  H153     1.0000 0.95371  0.68231  0.39852  Biso   1.000  H
  H154     1.0000 0.04629  0.68231  0.10148  Biso   1.000  H
  H155     1.0000 0.45371  0.18231  0.39852  Biso   1.000  H
  H156     1.0000 0.54629  0.18231  0.10148  Biso   1.000  H
  H157     1.0000 0.04629  0.31769  0.60148  Biso   1.000  H
  H158     1.0000 0.95371  0.31769  0.89852  Biso   1.000  H
  H159     1.0000 0.54629  0.81769  0.60148  Biso   1.000  H
  H160     1.0000 0.45371  0.81769  0.89852  Biso   1.000  H
  C233     1.0000 0.97450  0.70130  0.28820  Biso   1.000  C
  C234     1.0000 0.02550  0.70130  0.21180  Biso   1.000  C
  C235     1.0000 0.47450  0.20130  0.28820  Biso   1.000  C
  C236     1.0000 0.52550  0.20130  0.21180  Biso   1.000  C
  C237     1.0000 0.02550  0.29870  0.71180  Biso   1.000  C
  C238     1.0000 0.97450  0.29870  0.78820  Biso   1.000  C
  C239     1.0000 0.52550  0.79870  0.71180  Biso   1.000  C
  C240     1.0000 0.47450  0.79870  0.78820  Biso   1.000  C
  C241     1.0000 0.97070  0.70180  0.19550  Biso   1.000  C
  C242     1.0000 0.02930  0.70180  0.30450  Biso   1.000  C
  C243     1.0000 0.47070  0.20180  0.19550  Biso   1.000  C
  C244     1.0000 0.52930  0.20180  0.30450  Biso   1.000  C
  C245     1.0000 0.02930  0.29820  0.80450  Biso   1.000  C
  C246     1.0000 0.97070  0.29820  0.69550  Biso   1.000  C
  C247     1.0000 0.52930  0.79820  0.80450  Biso   1.000  C
  C248     1.0000 0.47070  0.79820  0.69550  Biso   1.000  C
  H161     1.0000 0.95126  0.70239  0.15760  Biso   1.000  H
  H162     1.0000 0.04874  0.70239  0.34240  Biso   1.000  H
  H163     1.0000 0.45126  0.20239  0.15760  Biso   1.000  H
  H164     1.0000 0.54874  0.20239  0.34240  Biso   1.000  H
  H165     1.0000 0.04874  0.29761  0.84240  Biso   1.000  H
  H166     1.0000 0.95126  0.29761  0.65760  Biso   1.000  H
  H167     1.0000 0.54874  0.79761  0.84240  Biso   1.000  H
  H168     1.0000 0.45126  0.79761  0.65760  Biso   1.000  H
  C249     1.0000 0.00370  0.70160  0.34350  Biso   1.000  C
  C250     1.0000 0.99630  0.70160  0.15650  Biso   1.000  C
  C251     1.0000 0.50370  0.20160  0.34350  Biso   1.000  C
  C252     1.0000 0.49630  0.20160  0.15650  Biso   1.000  C
  C253     1.0000 0.99630  0.29840  0.65650  Biso   1.000  C
  C254     1.0000 0.00370  0.29840  0.84350  Biso   1.000  C
  C255     1.0000 0.49630  0.79840  0.65650  Biso   1.000  C
  C256     1.0000 0.50370  0.79840  0.84350  Biso   1.000  C
  H169     1.0000 0.00618  0.70154  0.40787  Biso   1.000  H
  H170     1.0000 0.99382  0.70154  0.09213  Biso   1.000  H
  H171     1.0000 0.50618  0.20154  0.40787  Biso   1.000  H
  H172     1.0000 0.49382  0.20154  0.09213  Biso   1.000  H
  H173     1.0000 0.99382  0.29846  0.59213  Biso   1.000  H
  H174     1.0000 0.00618  0.29846  0.90787  Biso   1.000  H
  H175     1.0000 0.49382  0.79846  0.59213  Biso   1.000  H
  H176     1.0000 0.50618  0.79846  0.90787  Biso   1.000  H
  C257     1.0000 0.96712  0.10860  0.70330  Biso   1.000  C
  C258     1.0000 0.03288  0.10860  0.79670  Biso   1.000  C
  C259     1.0000 0.46712  0.60860  0.70330  Biso   1.000  C
  C260     1.0000 0.53288  0.60860  0.79670  Biso   1.000  C
  C261     1.0000 0.03288  0.89140  0.29670  Biso   1.000  C
  C262     1.0000 0.96712  0.89140  0.20330  Biso   1.000  C
  C263     1.0000 0.53288  0.39140  0.29670  Biso   1.000  C
  C264     1.0000 0.46712  0.39140  0.20330  Biso   1.000  C
  H177     1.0000 0.97752  0.15072  0.70194  Biso   1.000  H
  H178     1.0000 0.02248  0.15072  0.79806  Biso   1.000  H
  H179     1.0000 0.47752  0.65072  0.70194  Biso   1.000  H
  H180     1.0000 0.52248  0.65072  0.79806  Biso   1.000  H
  H181     1.0000 0.02248  0.84928  0.29806  Biso   1.000  H
  H182     1.0000 0.97752  0.84928  0.20194  Biso   1.000  H
  H183     1.0000 0.52248  0.34928  0.29806  Biso   1.000  H
  H184     1.0000 0.47752  0.34928  0.20194  Biso   1.000  H
  C265     1.0000 0.98311  0.04840  0.73370  Biso   1.000  C
  C266     1.0000 0.01689  0.04840  0.76630  Biso   1.000  C
  C267     1.0000 0.48311  0.54840  0.73370  Biso   1.000  C
  C268     1.0000 0.51689  0.54840  0.76630  Biso   1.000  C
  C269     1.0000 0.01689  0.95160  0.26630  Biso   1.000  C
  C270     1.0000 0.98311  0.95160  0.23370  Biso   1.000  C
  C271     1.0000 0.51689  0.45160  0.26630  Biso   1.000  C
  C272     1.0000 0.48311  0.45160  0.23370  Biso   1.000  C
  C273     1.0000 0.85654  0.24930  0.71630  Biso   1.000  C
  C274     1.0000 0.14346  0.24930  0.78370  Biso   1.000  C
  C275     1.0000 0.35654  0.74930  0.71630  Biso   1.000  C
  C276     1.0000 0.64346  0.74930  0.78370  Biso   1.000  C
  C277     1.0000 0.14346  0.75070  0.28370  Biso   1.000  C
  C278     1.0000 0.85654  0.75070  0.21630  Biso   1.000  C
  C279     1.0000 0.64346  0.25070  0.28370  Biso   1.000  C
  C280     1.0000 0.35654  0.25070  0.21630  Biso   1.000  C
  C281     1.0000 0.86308  0.44770  0.72620  Biso   1.000  C
  C282     1.0000 0.13692  0.44770  0.77380  Biso   1.000  C
  C283     1.0000 0.36308  0.94770  0.72620  Biso   1.000  C
  C284     1.0000 0.63692  0.94770  0.77380  Biso   1.000  C
  C285     1.0000 0.13692  0.55230  0.27380  Biso   1.000  C
  C286     1.0000 0.86308  0.55230  0.22620  Biso   1.000  C
  C287     1.0000 0.63692  0.05230  0.27380  Biso   1.000  C
  C288     1.0000 0.36308  0.05230  0.22620  Biso   1.000  C
  C289     1.0000 0.93595  0.10700  0.67510  Biso   1.000  C
  C290     1.0000 0.06405  0.10700  0.82490  Biso   1.000  C
  C291     1.0000 0.43595  0.60700  0.67510  Biso   1.000  C
  C292     1.0000 0.56405  0.60700  0.82490  Biso   1.000  C
  C293     1.0000 0.06405  0.89300  0.32490  Biso   1.000  C
  C294     1.0000 0.93595  0.89300  0.17510  Biso   1.000  C
  C295     1.0000 0.56405  0.39300  0.32490  Biso   1.000  C
  C296     1.0000 0.43595  0.39300  0.17510  Biso   1.000  C
  H185     1.0000 0.92576  0.14875  0.65599  Biso   1.000  H
  H186     1.0000 0.07424  0.14875  0.84401  Biso   1.000  H
  H187     1.0000 0.42576  0.64875  0.65599  Biso   1.000  H
  H188     1.0000 0.57424  0.64875  0.84401  Biso   1.000  H
  H189     1.0000 0.07424  0.85125  0.34401  Biso   1.000  H
  H190     1.0000 0.92576  0.85125  0.15599  Biso   1.000  H
  H191     1.0000 0.57424  0.35125  0.34401  Biso   1.000  H
  H192     1.0000 0.42576  0.35125  0.15599  Biso   1.000  H
  C297     1.0000 0.96589  0.98710  0.73140  Biso   1.000  C
  C298     1.0000 0.03411  0.98710  0.76860  Biso   1.000  C
  C299     1.0000 0.46589  0.48710  0.73140  Biso   1.000  C
  C300     1.0000 0.53411  0.48710  0.76860  Biso   1.000  C
  C301     1.0000 0.03411  0.01290  0.26860  Biso   1.000  C
  C302     1.0000 0.96589  0.01290  0.23140  Biso   1.000  C
  C303     1.0000 0.53411  0.51290  0.26860  Biso   1.000  C
  C304     1.0000 0.46589  0.51290  0.23140  Biso   1.000  C
  H193     1.0000 0.97561  0.94481  0.75041  Biso   1.000  H
  H194     1.0000 0.02439  0.94481  0.74959  Biso   1.000  H
  H195     1.0000 0.47561  0.44481  0.75041  Biso   1.000  H
  H196     1.0000 0.52439  0.44481  0.74959  Biso   1.000  H
  H197     1.0000 0.02439  0.05519  0.24959  Biso   1.000  H
  H198     1.0000 0.97561  0.05519  0.25041  Biso   1.000  H
  H199     1.0000 0.52439  0.55519  0.24959  Biso   1.000  H
  H200     1.0000 0.47561  0.55519  0.25041  Biso   1.000  H
  C305     1.0000 0.93481  0.98870  0.70140  Biso   1.000  C
  C306     1.0000 0.06519  0.98870  0.79860  Biso   1.000  C
  C307     1.0000 0.43481  0.48870  0.70140  Biso   1.000  C
  C308     1.0000 0.56519  0.48870  0.79860  Biso   1.000  C
  C309     1.0000 0.06519  0.01130  0.29860  Biso   1.000  C
  C310     1.0000 0.93481  0.01130  0.20140  Biso   1.000  C
  C311     1.0000 0.56519  0.51130  0.29860  Biso   1.000  C
  C312     1.0000 0.43481  0.51130  0.20140  Biso   1.000  C
  H201     1.0000 0.92390  0.94711  0.70027  Biso   1.000  H
  H202     1.0000 0.07610  0.94711  0.79973  Biso   1.000  H
  H203     1.0000 0.42390  0.44711  0.70027  Biso   1.000  H
  H204     1.0000 0.57610  0.44711  0.79973  Biso   1.000  H
  H205     1.0000 0.07610  0.05289  0.29973  Biso   1.000  H
  H206     1.0000 0.92390  0.05289  0.20027  Biso   1.000  H
  H207     1.0000 0.57610  0.55289  0.29973  Biso   1.000  H
  H208     1.0000 0.42390  0.55289  0.20027  Biso   1.000  H
  N25      1.0000 0.91840  0.54830  0.67300  Biso   1.000  N
  N26      1.0000 0.08160  0.54830  0.82700  Biso   1.000  N
  N27      1.0000 0.41840  0.04830  0.67300  Biso   1.000  N
  N28      1.0000 0.58160  0.04830  0.82700  Biso   1.000  N
  N29      1.0000 0.08160  0.45170  0.32700  Biso   1.000  N
  N30      1.0000 0.91840  0.45170  0.17300  Biso   1.000  N
  N31      1.0000 0.58160  0.95170  0.32700  Biso   1.000  N
  N32      1.0000 0.41840  0.95170  0.17300  Biso   1.000  N
  C313     1.0000 0.93080  0.60000  0.72610  Biso   1.000  C
  C314     1.0000 0.06920  0.60000  0.77390  Biso   1.000  C
  C315     1.0000 0.43080  0.10000  0.72610  Biso   1.000  C
  C316     1.0000 0.56920  0.10000  0.77390  Biso   1.000  C
  C317     1.0000 0.06920  0.40000  0.27390  Biso   1.000  C
  C318     1.0000 0.93080  0.40000  0.22610  Biso   1.000  C
  C319     1.0000 0.56920  0.90000  0.27390  Biso   1.000  C
  C320     1.0000 0.43080  0.90000  0.22610  Biso   1.000  C
  H209     1.0000 0.91840  0.63747  0.73458  Biso   1.000  H
  H210     1.0000 0.08160  0.63747  0.76542  Biso   1.000  H
  H211     1.0000 0.41840  0.13747  0.73458  Biso   1.000  H
  H212     1.0000 0.58160  0.13747  0.76542  Biso   1.000  H
  H213     1.0000 0.08160  0.36253  0.26542  Biso   1.000  H
  H214     1.0000 0.91840  0.36253  0.23458  Biso   1.000  H
  H215     1.0000 0.58160  0.86253  0.26542  Biso   1.000  H
  H216     1.0000 0.41840  0.86253  0.23458  Biso   1.000  H
  C321     1.0000 0.96190  0.60270  0.77110  Biso   1.000  C
  C322     1.0000 0.03810  0.60270  0.72890  Biso   1.000  C
  C323     1.0000 0.46190  0.10270  0.77110  Biso   1.000  C
  C324     1.0000 0.53810  0.10270  0.72890  Biso   1.000  C
  C325     1.0000 0.03810  0.39730  0.22890  Biso   1.000  C
  C326     1.0000 0.96190  0.39730  0.27110  Biso   1.000  C
  C327     1.0000 0.53810  0.89730  0.22890  Biso   1.000  C
  C328     1.0000 0.46190  0.89730  0.27110  Biso   1.000  C
  H217     1.0000 0.96985  0.64209  0.80508  Biso   1.000  H
  H218     1.0000 0.03015  0.64209  0.69492  Biso   1.000  H
  H219     1.0000 0.46985  0.14209  0.80508  Biso   1.000  H
  H220     1.0000 0.53015  0.14209  0.69492  Biso   1.000  H
  H221     1.0000 0.03015  0.35791  0.19492  Biso   1.000  H
  H222     1.0000 0.96985  0.35791  0.30508  Biso   1.000  H
  H223     1.0000 0.53015  0.85791  0.19492  Biso   1.000  H
  H224     1.0000 0.46985  0.85791  0.30508  Biso   1.000  H
  C329     1.0000 0.98020  0.54560  0.76370  Biso   1.000  C
  C330     1.0000 0.01980  0.54560  0.73630  Biso   1.000  C
  C331     1.0000 0.48020  0.04560  0.76370  Biso   1.000  C
  C332     1.0000 0.51980  0.04560  0.73630  Biso   1.000  C
  C333     1.0000 0.01980  0.45440  0.23630  Biso   1.000  C
  C334     1.0000 0.98020  0.45440  0.26370  Biso   1.000  C
  C335     1.0000 0.51980  0.95440  0.23630  Biso   1.000  C
  C336     1.0000 0.48020  0.95440  0.26370  Biso   1.000  C
  C337     1.0000 0.03000  0.48610  0.82170  Biso   1.000  C
  C338     1.0000 0.97000  0.48610  0.67830  Biso   1.000  C
  C339     1.0000 0.53000  0.98610  0.82170  Biso   1.000  C
  C340     1.0000 0.47000  0.98610  0.67830  Biso   1.000  C
  C341     1.0000 0.97000  0.51390  0.17830  Biso   1.000  C
  C342     1.0000 0.03000  0.51390  0.32170  Biso   1.000  C
  C343     1.0000 0.47000  0.01390  0.17830  Biso   1.000  C
  C344     1.0000 0.53000  0.01390  0.32170  Biso   1.000  C
  H225     1.0000 0.02052  0.44332  0.82680  Biso   1.000  H
  H226     1.0000 0.97948  0.44332  0.67320  Biso   1.000  H
  H227     1.0000 0.52052  0.94332  0.82680  Biso   1.000  H
  H228     1.0000 0.47948  0.94332  0.67320  Biso   1.000  H
  H229     1.0000 0.97948  0.55668  0.17320  Biso   1.000  H
  H230     1.0000 0.02052  0.55668  0.32680  Biso   1.000  H
  H231     1.0000 0.47948  0.05668  0.17320  Biso   1.000  H
  H232     1.0000 0.52052  0.05668  0.32680  Biso   1.000  H
  C345     1.0000 0.06370  0.49410  0.83600  Biso   1.000  C
  C346     1.0000 0.93630  0.49410  0.66400  Biso   1.000  C
  C347     1.0000 0.56370  0.99410  0.83600  Biso   1.000  C
  C348     1.0000 0.43630  0.99410  0.66400  Biso   1.000  C
  C349     1.0000 0.93630  0.50590  0.16400  Biso   1.000  C
  C350     1.0000 0.06370  0.50590  0.33600  Biso   1.000  C
  C351     1.0000 0.43630  0.00590  0.16400  Biso   1.000  C
  C352     1.0000 0.56370  0.00590  0.33600  Biso   1.000  C
  H233     1.0000 0.07520  0.45542  0.82614  Biso   1.000  H
  H234     1.0000 0.92480  0.45542  0.67386  Biso   1.000  H
  H235     1.0000 0.57520  0.95542  0.82614  Biso   1.000  H
  H236     1.0000 0.42480  0.95542  0.67386  Biso   1.000  H
  H237     1.0000 0.92480  0.54458  0.17386  Biso   1.000  H
  H238     1.0000 0.07520  0.54458  0.32614  Biso   1.000  H
  H239     1.0000 0.42480  0.04458  0.17386  Biso   1.000  H
  H240     1.0000 0.57520  0.04458  0.32614  Biso   1.000  H
  N33      1.0000 0.07660  0.54750  0.86000  Biso   1.000  N
  N34      1.0000 0.92340  0.54750  0.64000  Biso   1.000  N
  N35      1.0000 0.57660  0.04750  0.86000  Biso   1.000  N
  N36      1.0000 0.42340  0.04750  0.64000  Biso   1.000  N
  N37      1.0000 0.92340  0.45250  0.14000  Biso   1.000  N
  N38      1.0000 0.07660  0.45250  0.36000  Biso   1.000  N
  N39      1.0000 0.42340  0.95250  0.14000  Biso   1.000  N
  N40      1.0000 0.57660  0.95250  0.36000  Biso   1.000  N
  C353     1.0000 0.06120  0.60700  0.84670  Biso   1.000  C
  C354     1.0000 0.93880  0.60700  0.65330  Biso   1.000  C
  C355     1.0000 0.56120  0.10700  0.84670  Biso   1.000  C
  C356     1.0000 0.43880  0.10700  0.65330  Biso   1.000  C
  C357     1.0000 0.93880  0.39300  0.15330  Biso   1.000  C
  C358     1.0000 0.06120  0.39300  0.34670  Biso   1.000  C
  C359     1.0000 0.43880  0.89300  0.15330  Biso   1.000  C
  C360     1.0000 0.56120  0.89300  0.34670  Biso   1.000  C
  H241     1.0000 0.07176  0.64907  0.85868  Biso   1.000  H
  H242     1.0000 0.92824  0.64907  0.64132  Biso   1.000  H
  H243     1.0000 0.57176  0.14907  0.85868  Biso   1.000  H
  H244     1.0000 0.42824  0.14907  0.64132  Biso   1.000  H
  H245     1.0000 0.92824  0.35093  0.14132  Biso   1.000  H
  H246     1.0000 0.07176  0.35093  0.35868  Biso   1.000  H
  H247     1.0000 0.42824  0.85093  0.14132  Biso   1.000  H
  H248     1.0000 0.57176  0.85093  0.35868  Biso   1.000  H
  C361     1.0000 0.03060  0.60890  0.81620  Biso   1.000  C
  C362     1.0000 0.96940  0.60890  0.68380  Biso   1.000  C
  C363     1.0000 0.53060  0.10890  0.81620  Biso   1.000  C
  C364     1.0000 0.46940  0.10890  0.68380  Biso   1.000  C
  C365     1.0000 0.96940  0.39110  0.18380  Biso   1.000  C
  C366     1.0000 0.03060  0.39110  0.31620  Biso   1.000  C
  C367     1.0000 0.46940  0.89110  0.18380  Biso   1.000  C
  C368     1.0000 0.53060  0.89110  0.31620  Biso   1.000  C
  H249     1.0000 0.02061  0.65187  0.80628  Biso   1.000  H
  H250     1.0000 0.97939  0.65187  0.69372  Biso   1.000  H
  H251     1.0000 0.52061  0.15187  0.80628  Biso   1.000  H
  H252     1.0000 0.47939  0.15187  0.69372  Biso   1.000  H
  H253     1.0000 0.97939  0.34813  0.19372  Biso   1.000  H
  H254     1.0000 0.02061  0.34813  0.30628  Biso   1.000  H
  H255     1.0000 0.47939  0.84813  0.19372  Biso   1.000  H
  H256     1.0000 0.52061  0.84813  0.30628  Biso   1.000  H
  C369     1.0000 0.01420  0.54780  0.79990  Biso   1.000  C
  C370     1.0000 0.98580  0.54780  0.70010  Biso   1.000  C
  C371     1.0000 0.51420  0.04780  0.79990  Biso   1.000  C
  C372     1.0000 0.48580  0.04780  0.70010  Biso   1.000  C
  C373     1.0000 0.98580  0.45220  0.20010  Biso   1.000  C
  C374     1.0000 0.01420  0.45220  0.29990  Biso   1.000  C
  C375     1.0000 0.48580  0.95220  0.20010  Biso   1.000  C
  C376     1.0000 0.51420  0.95220  0.29990  Biso   1.000  C
  C377     1.0000 0.96700  0.48860  0.71280  Biso   1.000  C
  C378     1.0000 0.03300  0.48860  0.78720  Biso   1.000  C
  C379     1.0000 0.46700  0.98860  0.71280  Biso   1.000  C
  C380     1.0000 0.53300  0.98860  0.78720  Biso   1.000  C
  C381     1.0000 0.03300  0.51140  0.28720  Biso   1.000  C
  C382     1.0000 0.96700  0.51140  0.21280  Biso   1.000  C
  C383     1.0000 0.53300  0.01140  0.28720  Biso   1.000  C
  C384     1.0000 0.46700  0.01140  0.21280  Biso   1.000  C
  H257     1.0000 0.97855  0.44766  0.71669  Biso   1.000  H
  H258     1.0000 0.02145  0.44766  0.78331  Biso   1.000  H
  H259     1.0000 0.47855  0.94766  0.71669  Biso   1.000  H
  H260     1.0000 0.52145  0.94766  0.78331  Biso   1.000  H
  H261     1.0000 0.02145  0.55234  0.28331  Biso   1.000  H
  H262     1.0000 0.97855  0.55234  0.21669  Biso   1.000  H
  H263     1.0000 0.52145  0.05234  0.28331  Biso   1.000  H
  H264     1.0000 0.47855  0.05234  0.21669  Biso   1.000  H
  C385     1.0000 0.93880  0.48740  0.65800  Biso   1.000  C
  C386     1.0000 0.06120  0.48740  0.84200  Biso   1.000  C
  C387     1.0000 0.43880  0.98740  0.65800  Biso   1.000  C
  C388     1.0000 0.56120  0.98740  0.84200  Biso   1.000  C
  C389     1.0000 0.06120  0.51260  0.34200  Biso   1.000  C
  C390     1.0000 0.93880  0.51260  0.15800  Biso   1.000  C
  C391     1.0000 0.56120  0.01260  0.34200  Biso   1.000  C
  C392     1.0000 0.43880  0.01260  0.15800  Biso   1.000  C
  H265     1.0000 0.93235  0.45251  0.61359  Biso   1.000  H
  H266     1.0000 0.06765  0.45251  0.88641  Biso   1.000  H
  H267     1.0000 0.43235  0.95251  0.61359  Biso   1.000  H
  H268     1.0000 0.56765  0.95251  0.88641  Biso   1.000  H
  H269     1.0000 0.06765  0.54749  0.38641  Biso   1.000  H
  H270     1.0000 0.93235  0.54749  0.11359  Biso   1.000  H
  H271     1.0000 0.56765  0.04749  0.38641  Biso   1.000  H
  H272     1.0000 0.43235  0.04749  0.11359  Biso   1.000  H
  O81      1.0000 0.88904  0.48390  0.46580  Biso   1.000  O
  O82      1.0000 0.11096  0.48390  0.03420  Biso   1.000  O
  O83      1.0000 0.38904  0.98390  0.46580  Biso   1.000  O
  O84      1.0000 0.61096  0.98390  0.03420  Biso   1.000  O
  O85      1.0000 0.11096  0.51610  0.53420  Biso   1.000  O
  O86      1.0000 0.88904  0.51610  0.96580  Biso   1.000  O
  O87      1.0000 0.61096  0.01610  0.53420  Biso   1.000  O
  O88      1.0000 0.38904  0.01610  0.96580  Biso   1.000  O
  O89      1.0000 0.87147  0.97470  0.75800  Biso   1.000  O
  O90      1.0000 0.12853  0.97470  0.74200  Biso   1.000  O
  O91      1.0000 0.37147  0.47470  0.75800  Biso   1.000  O
  O92      1.0000 0.62853  0.47470  0.74200  Biso   1.000  O
  O93      1.0000 0.12853  0.02530  0.24200  Biso   1.000  O
  O94      1.0000 0.87147  0.02530  0.25800  Biso   1.000  O
  O95      1.0000 0.62853  0.52530  0.24200  Biso   1.000  O
  O96      1.0000 0.37147  0.52530  0.25800  Biso   1.000  O
  H273     1.0000 0.87052  0.92353  0.74256  Biso   1.000  H
  H274     1.0000 0.12948  0.92353  0.75744  Biso   1.000  H
  H275     1.0000 0.37052  0.42353  0.74256  Biso   1.000  H
  H276     1.0000 0.62948  0.42353  0.75744  Biso   1.000  H
  H277     1.0000 0.12948  0.07647  0.25744  Biso   1.000  H
  H278     1.0000 0.87052  0.07647  0.24256  Biso   1.000  H
  H279     1.0000 0.62948  0.57647  0.25744  Biso   1.000  H
  H280     1.0000 0.37052  0.57647  0.24256  Biso   1.000  H
  H281     1.0000 0.87937  0.50098  0.40256  Biso   1.000  H
  H282     1.0000 0.12063  0.50098  0.09744  Biso   1.000  H
  H283     1.0000 0.37937  0.00098  0.40256  Biso   1.000  H
  H284     1.0000 0.62063  0.00098  0.09744  Biso   1.000  H
  H285     1.0000 0.12063  0.49902  0.59744  Biso   1.000  H
  H286     1.0000 0.87937  0.49902  0.90256  Biso   1.000  H
  H287     1.0000 0.62063  0.99902  0.59744  Biso   1.000  H
  H288     1.0000 0.37937  0.99902  0.90256  Biso   1.000  H
  H289     1.0000 0.89016  0.43333  0.46871  Biso   1.000  H
  H290     1.0000 0.10984  0.43333  0.03129  Biso   1.000  H
  H291     1.0000 0.39016  0.93333  0.46871  Biso   1.000  H
  H292     1.0000 0.60984  0.93333  0.03129  Biso   1.000  H
  H293     1.0000 0.10984  0.56667  0.53129  Biso   1.000  H
  H294     1.0000 0.89016  0.56667  0.96871  Biso   1.000  H
  H295     1.0000 0.60984  0.06667  0.53129  Biso   1.000  H
  H296     1.0000 0.39016  0.06667  0.96871  Biso   1.000  H
  H297     1.0000 0.87358  0.99354  0.81691  Biso   1.000  H
  H298     1.0000 0.12642  0.99354  0.68309  Biso   1.000  H
  H299     1.0000 0.37358  0.49354  0.81691  Biso   1.000  H
  H300     1.0000 0.62642  0.49354  0.68309  Biso   1.000  H
  H301     1.0000 0.12642  0.00646  0.18309  Biso   1.000  H
  H302     1.0000 0.87358  0.00646  0.31691  Biso   1.000  H
  H303     1.0000 0.62642  0.50646  0.18309  Biso   1.000  H
  H304     1.0000 0.37358  0.50646  0.31691  Biso   1.000  H
  N41      1.0000 0.77510  0.07550  0.78620  Biso   1.000  N
  N42      1.0000 0.22490  0.07550  0.71380  Biso   1.000  N
  N43      1.0000 0.27510  0.57550  0.78620  Biso   1.000  N
  N44      1.0000 0.72490  0.57550  0.71380  Biso   1.000  N
  N45      1.0000 0.22490  0.92450  0.21380  Biso   1.000  N
  N46      1.0000 0.77510  0.92450  0.28620  Biso   1.000  N
  N47      1.0000 0.72490  0.42450  0.21380  Biso   1.000  N
  N48      1.0000 0.27510  0.42450  0.28620  Biso   1.000  N
  N49      1.0000 0.76540  0.71110  0.87930  Biso   1.000  N
  N50      1.0000 0.23460  0.71110  0.62070  Biso   1.000  N
  N51      1.0000 0.26540  0.21110  0.87930  Biso   1.000  N
  N52      1.0000 0.73460  0.21110  0.62070  Biso   1.000  N
  N53      1.0000 0.23460  0.28890  0.12070  Biso   1.000  N
  N54      1.0000 0.76540  0.28890  0.37930  Biso   1.000  N
  N55      1.0000 0.73460  0.78890  0.12070  Biso   1.000  N
  N56      1.0000 0.26540  0.78890  0.37930  Biso   1.000  N
  C393     1.0000 0.79940  0.03500  0.81250  Biso   1.000  C
  C394     1.0000 0.20060  0.03500  0.68750  Biso   1.000  C
  C395     1.0000 0.29940  0.53500  0.81250  Biso   1.000  C
  C396     1.0000 0.70060  0.53500  0.68750  Biso   1.000  C
  C397     1.0000 0.20060  0.96500  0.18750  Biso   1.000  C
  C398     1.0000 0.79940  0.96500  0.31250  Biso   1.000  C
  C399     1.0000 0.70060  0.46500  0.18750  Biso   1.000  C
  C400     1.0000 0.29940  0.46500  0.31250  Biso   1.000  C
  H305     1.0000 0.81845  0.05647  0.82175  Biso   1.000  H
  H306     1.0000 0.18155  0.05647  0.67825  Biso   1.000  H
  H307     1.0000 0.31845  0.55647  0.82175  Biso   1.000  H
  H308     1.0000 0.68155  0.55647  0.67825  Biso   1.000  H
  H309     1.0000 0.18155  0.94353  0.17825  Biso   1.000  H
  H310     1.0000 0.81845  0.94353  0.32175  Biso   1.000  H
  H311     1.0000 0.68155  0.44353  0.17825  Biso   1.000  H
  H312     1.0000 0.31845  0.44353  0.32175  Biso   1.000  H
  C401     1.0000 0.74780  0.04360  0.77350  Biso   1.000  C
  C402     1.0000 0.25220  0.04360  0.72650  Biso   1.000  C
  C403     1.0000 0.24780  0.54360  0.77350  Biso   1.000  C
  C404     1.0000 0.75220  0.54360  0.72650  Biso   1.000  C
  C405     1.0000 0.25220  0.95640  0.22650  Biso   1.000  C
  C406     1.0000 0.74780  0.95640  0.27350  Biso   1.000  C
  C407     1.0000 0.75220  0.45640  0.22650  Biso   1.000  C
  C408     1.0000 0.24780  0.45640  0.27350  Biso   1.000  C
  H313     1.0000 0.73023  0.07061  0.75613  Biso   1.000  H
  H314     1.0000 0.26977  0.07061  0.74387  Biso   1.000  H
  H315     1.0000 0.23023  0.57061  0.75613  Biso   1.000  H
  H316     1.0000 0.76977  0.57061  0.74387  Biso   1.000  H
  H317     1.0000 0.26977  0.92939  0.24387  Biso   1.000  H
  H318     1.0000 0.73023  0.92939  0.25613  Biso   1.000  H
  H319     1.0000 0.76977  0.42939  0.24387  Biso   1.000  H
  H320     1.0000 0.23023  0.42939  0.25613  Biso   1.000  H
  C409     1.0000 0.74490  0.97140  0.78540  Biso   1.000  C
  C410     1.0000 0.25510  0.97140  0.71460  Biso   1.000  C
  C411     1.0000 0.24490  0.47140  0.78540  Biso   1.000  C
  C412     1.0000 0.75510  0.47140  0.71460  Biso   1.000  C
  C413     1.0000 0.25510  0.02860  0.21460  Biso   1.000  C
  C414     1.0000 0.74490  0.02860  0.28540  Biso   1.000  C
  C415     1.0000 0.75510  0.52860  0.21460  Biso   1.000  C
  C416     1.0000 0.24490  0.52860  0.28540  Biso   1.000  C
  H321     1.0000 0.72567  0.95090  0.77423  Biso   1.000  H
  H322     1.0000 0.27433  0.95090  0.72577  Biso   1.000  H
  H323     1.0000 0.22567  0.45090  0.77423  Biso   1.000  H
  H324     1.0000 0.77433  0.45090  0.72577  Biso   1.000  H
  H325     1.0000 0.27433  0.04910  0.22577  Biso   1.000  H
  H326     1.0000 0.72567  0.04910  0.27423  Biso   1.000  H
  H327     1.0000 0.77433  0.54910  0.22577  Biso   1.000  H
  H328     1.0000 0.22567  0.54910  0.27423  Biso   1.000  H
  C417     1.0000 0.79870  0.96280  0.82730  Biso   1.000  C
  C418     1.0000 0.20130  0.96280  0.67270  Biso   1.000  C
  C419     1.0000 0.29870  0.46280  0.82730  Biso   1.000  C
  C420     1.0000 0.70130  0.46280  0.67270  Biso   1.000  C
  C421     1.0000 0.20130  0.03720  0.17270  Biso   1.000  C
  C422     1.0000 0.79870  0.03720  0.32730  Biso   1.000  C
  C423     1.0000 0.70130  0.53720  0.17270  Biso   1.000  C
  C424     1.0000 0.29870  0.53720  0.32730  Biso   1.000  C
  H329     1.0000 0.81662  0.93720  0.84575  Biso   1.000  H
  H330     1.0000 0.18338  0.93720  0.65425  Biso   1.000  H
  H331     1.0000 0.31662  0.43720  0.84575  Biso   1.000  H
  H332     1.0000 0.68338  0.43720  0.65425  Biso   1.000  H
  H333     1.0000 0.18338  0.06280  0.15425  Biso   1.000  H
  H334     1.0000 0.81662  0.06280  0.34575  Biso   1.000  H
  H335     1.0000 0.68338  0.56280  0.15425  Biso   1.000  H
  H336     1.0000 0.31662  0.56280  0.34575  Biso   1.000  H
  C425     1.0000 0.77061  0.93060  0.81380  Biso   1.000  C
  C426     1.0000 0.22939  0.93060  0.68620  Biso   1.000  C
  C427     1.0000 0.27061  0.43060  0.81380  Biso   1.000  C
  C428     1.0000 0.72939  0.43060  0.68620  Biso   1.000  C
  C429     1.0000 0.22939  0.06940  0.18620  Biso   1.000  C
  C430     1.0000 0.77061  0.06940  0.31380  Biso   1.000  C
  C431     1.0000 0.72939  0.56940  0.18620  Biso   1.000  C
  C432     1.0000 0.27061  0.56940  0.31380  Biso   1.000  C
  C433     1.0000 0.76854  0.85400  0.83280  Biso   1.000  C
  C434     1.0000 0.23146  0.85400  0.66720  Biso   1.000  C
  C435     1.0000 0.26854  0.35400  0.83280  Biso   1.000  C
  C436     1.0000 0.73146  0.35400  0.66720  Biso   1.000  C
  C437     1.0000 0.23146  0.14600  0.16720  Biso   1.000  C
  C438     1.0000 0.76854  0.14600  0.33280  Biso   1.000  C
  C439     1.0000 0.73146  0.64600  0.16720  Biso   1.000  C
  C440     1.0000 0.26854  0.64600  0.33280  Biso   1.000  C
  C441     1.0000 0.79320  0.81140  0.84510  Biso   1.000  C
  C442     1.0000 0.20680  0.81140  0.65490  Biso   1.000  C
  C443     1.0000 0.29320  0.31140  0.84510  Biso   1.000  C
  C444     1.0000 0.70680  0.31140  0.65490  Biso   1.000  C
  C445     1.0000 0.20680  0.18860  0.15490  Biso   1.000  C
  C446     1.0000 0.79320  0.18860  0.34510  Biso   1.000  C
  C447     1.0000 0.70680  0.68860  0.15490  Biso   1.000  C
  C448     1.0000 0.29320  0.68860  0.34510  Biso   1.000  C
  H337     1.0000 0.81198  0.82926  0.83865  Biso   1.000  H
  H338     1.0000 0.18802  0.82926  0.66135  Biso   1.000  H
  H339     1.0000 0.31198  0.32926  0.83865  Biso   1.000  H
  H340     1.0000 0.68802  0.32926  0.66135  Biso   1.000  H
  H341     1.0000 0.18802  0.17074  0.16135  Biso   1.000  H
  H342     1.0000 0.81198  0.17074  0.33865  Biso   1.000  H
  H343     1.0000 0.68802  0.67074  0.16135  Biso   1.000  H
  H344     1.0000 0.31198  0.67074  0.33865  Biso   1.000  H
  C449     1.0000 0.79060  0.74050  0.86750  Biso   1.000  C
  C450     1.0000 0.20940  0.74050  0.63250  Biso   1.000  C
  C451     1.0000 0.29060  0.24050  0.86750  Biso   1.000  C
  C452     1.0000 0.70940  0.24050  0.63250  Biso   1.000  C
  C453     1.0000 0.20940  0.25950  0.13250  Biso   1.000  C
  C454     1.0000 0.79060  0.25950  0.36750  Biso   1.000  C
  C455     1.0000 0.70940  0.75950  0.13250  Biso   1.000  C
  C456     1.0000 0.29060  0.75950  0.36750  Biso   1.000  C
  H345     1.0000 0.80798  0.71253  0.87447  Biso   1.000  H
  H346     1.0000 0.19202  0.71253  0.62553  Biso   1.000  H
  H347     1.0000 0.30798  0.21253  0.87447  Biso   1.000  H
  H348     1.0000 0.69202  0.21253  0.62553  Biso   1.000  H
  H349     1.0000 0.19202  0.28747  0.12553  Biso   1.000  H
  H350     1.0000 0.80798  0.28747  0.37447  Biso   1.000  H
  H351     1.0000 0.69202  0.78747  0.12553  Biso   1.000  H
  H352     1.0000 0.30798  0.78747  0.37447  Biso   1.000  H
  C457     1.0000 0.74180  0.75080  0.86340  Biso   1.000  C
  C458     1.0000 0.25820  0.75080  0.63660  Biso   1.000  C
  C459     1.0000 0.24180  0.25080  0.86340  Biso   1.000  C
  C460     1.0000 0.75820  0.25080  0.63660  Biso   1.000  C
  C461     1.0000 0.25820  0.24920  0.13660  Biso   1.000  C
  C462     1.0000 0.74180  0.24920  0.36340  Biso   1.000  C
  C463     1.0000 0.75820  0.74920  0.13660  Biso   1.000  C
  C464     1.0000 0.24180  0.74920  0.36340  Biso   1.000  C
  H353     1.0000 0.72328  0.73016  0.86641  Biso   1.000  H
  H354     1.0000 0.27672  0.73016  0.63359  Biso   1.000  H
  H355     1.0000 0.22328  0.23016  0.86641  Biso   1.000  H
  H356     1.0000 0.77672  0.23016  0.63359  Biso   1.000  H
  H357     1.0000 0.27672  0.26984  0.13359  Biso   1.000  H
  H358     1.0000 0.72328  0.26984  0.36641  Biso   1.000  H
  H359     1.0000 0.77672  0.76984  0.13359  Biso   1.000  H
  H360     1.0000 0.22328  0.76984  0.36641  Biso   1.000  H
  C465     1.0000 0.74130  0.82280  0.84180  Biso   1.000  C
  C466     1.0000 0.25870  0.82280  0.65820  Biso   1.000  C
  C467     1.0000 0.24130  0.32280  0.84180  Biso   1.000  C
  C468     1.0000 0.75870  0.32280  0.65820  Biso   1.000  C
  C469     1.0000 0.25870  0.17720  0.15820  Biso   1.000  C
  C470     1.0000 0.74130  0.17720  0.34180  Biso   1.000  C
  C471     1.0000 0.75870  0.67720  0.15820  Biso   1.000  C
  C472     1.0000 0.24130  0.67720  0.34180  Biso   1.000  C
  H361     1.0000 0.72334  0.84870  0.83390  Biso   1.000  H
  H362     1.0000 0.27666  0.84870  0.66610  Biso   1.000  H
  H363     1.0000 0.22334  0.34870  0.83390  Biso   1.000  H
  H364     1.0000 0.77666  0.34870  0.66610  Biso   1.000  H
  H365     1.0000 0.27666  0.15130  0.16610  Biso   1.000  H
  H366     1.0000 0.72334  0.15130  0.33390  Biso   1.000  H
  H367     1.0000 0.77666  0.65130  0.16610  Biso   1.000  H
  H368     1.0000 0.22334  0.65130  0.33390  Biso   1.000  H
  O97      1.0000 0.87490  0.13440  0.43130  Biso   1.000  O
  O98      1.0000 0.12510  0.13440  0.06870  Biso   1.000  O
  O99      1.0000 0.37490  0.63440  0.43130  Biso   1.000  O
  O100     1.0000 0.62510  0.63440  0.06870  Biso   1.000  O
  O101     1.0000 0.12510  0.86560  0.56870  Biso   1.000  O
  O102     1.0000 0.87490  0.86560  0.93130  Biso   1.000  O
  O103     1.0000 0.62510  0.36560  0.56870  Biso   1.000  O
  O104     1.0000 0.37490  0.36560  0.93130  Biso   1.000  O
  H369     1.0000 0.87524  0.16628  0.47809  Biso   1.000  H
  H370     1.0000 0.12476  0.16628  0.02191  Biso   1.000  H
  H371     1.0000 0.37524  0.66628  0.47809  Biso   1.000  H
  H372     1.0000 0.62476  0.66628  0.02191  Biso   1.000  H
  H373     1.0000 0.12476  0.83372  0.52191  Biso   1.000  H
  H374     1.0000 0.87524  0.83372  0.97809  Biso   1.000  H
  H375     1.0000 0.62476  0.33372  0.52191  Biso   1.000  H
  H376     1.0000 0.37524  0.33372  0.97809  Biso   1.000  H
  H377     1.0000 0.88594  0.09084  0.44338  Biso   1.000  H
  H378     1.0000 0.11406  0.09084  0.05662  Biso   1.000  H
  H379     1.0000 0.38594  0.59084  0.44338  Biso   1.000  H
  H380     1.0000 0.61406  0.59084  0.05662  Biso   1.000  H
  H381     1.0000 0.11406  0.90916  0.55662  Biso   1.000  H
  H382     1.0000 0.88594  0.90916  0.94338  Biso   1.000  H
  H383     1.0000 0.61406  0.40916  0.55662  Biso   1.000  H
  H384     1.0000 0.38594  0.40916  0.94338  Biso   1.000  H
  O105     1.0000 0.86720  0.83030  0.74960  Biso   1.000  O
  O106     1.0000 0.13280  0.83030  0.75040  Biso   1.000  O
  O107     1.0000 0.36720  0.33030  0.74960  Biso   1.000  O
  O108     1.0000 0.63280  0.33030  0.75040  Biso   1.000  O
  O109     1.0000 0.13280  0.16970  0.25040  Biso   1.000  O
  O110     1.0000 0.86720  0.16970  0.24960  Biso   1.000  O
  O111     1.0000 0.63280  0.66970  0.25040  Biso   1.000  O
  O112     1.0000 0.36720  0.66970  0.24960  Biso   1.000  O
  H385     1.0000 0.86651  0.82690  0.81370  Biso   1.000  H
  H386     1.0000 0.13349  0.82690  0.68630  Biso   1.000  H
  H387     1.0000 0.36651  0.32690  0.81370  Biso   1.000  H
  H388     1.0000 0.63349  0.32690  0.68630  Biso   1.000  H
  H389     1.0000 0.13349  0.17310  0.18630  Biso   1.000  H
  H390     1.0000 0.86651  0.17310  0.31370  Biso   1.000  H
  H391     1.0000 0.63349  0.67310  0.18630  Biso   1.000  H
  H392     1.0000 0.36651  0.67310  0.31370  Biso   1.000  H
  H393     1.0000 0.87180  0.78960  0.71865  Biso   1.000  H
  H394     1.0000 0.12820  0.78960  0.78135  Biso   1.000  H
  H395     1.0000 0.37180  0.28960  0.71865  Biso   1.000  H
  H396     1.0000 0.62820  0.28960  0.78135  Biso   1.000  H
  H397     1.0000 0.12820  0.21040  0.28135  Biso   1.000  H
  H398     1.0000 0.87180  0.21040  0.21865  Biso   1.000  H
  H399     1.0000 0.62820  0.71040  0.28135  Biso   1.000  H
  H400     1.0000 0.37180  0.71040  0.21865  Biso   1.000  H
  O113     1.0000 0.85050  0.35890  0.28480  Biso   1.000  O
  O114     1.0000 0.14950  0.35890  0.21520  Biso   1.000  O
  O115     1.0000 0.35050  0.85890  0.28480  Biso   1.000  O
  O116     1.0000 0.64950  0.85890  0.21520  Biso   1.000  O
  O117     1.0000 0.14950  0.64110  0.71520  Biso   1.000  O
  O118     1.0000 0.85050  0.64110  0.78480  Biso   1.000  O
  O119     1.0000 0.64950  0.14110  0.71520  Biso   1.000  O
  O120     1.0000 0.35050  0.14110  0.78480  Biso   1.000  O
  H401     1.0000 0.85365  0.33049  0.23146  Biso   1.000  H
  H402     1.0000 0.14635  0.33049  0.26854  Biso   1.000  H
  H403     1.0000 0.35365  0.83049  0.23146  Biso   1.000  H
  H404     1.0000 0.64635  0.83049  0.26854  Biso   1.000  H
  H405     1.0000 0.14635  0.66951  0.76854  Biso   1.000  H
  H406     1.0000 0.85365  0.66951  0.73146  Biso   1.000  H
  H407     1.0000 0.64635  0.16951  0.76854  Biso   1.000  H
  H408     1.0000 0.35365  0.16951  0.73146  Biso   1.000  H
  H409     1.0000 0.85210  0.41252  0.27644  Biso   1.000  H
  H410     1.0000 0.14790  0.41252  0.22356  Biso   1.000  H
  H411     1.0000 0.35210  0.91252  0.27644  Biso   1.000  H
  H412     1.0000 0.64790  0.91252  0.22356  Biso   1.000  H
  H413     1.0000 0.14790  0.58748  0.72356  Biso   1.000  H
  H414     1.0000 0.85210  0.58748  0.77644  Biso   1.000  H
  H415     1.0000 0.64790  0.08748  0.72356  Biso   1.000  H
  H416     1.0000 0.35210  0.08748  0.77644  Biso   1.000  H
  O121     1.0000 0.88190  0.33000  0.46590  Biso   1.000  O
  O122     1.0000 0.11810  0.33000  0.03410  Biso   1.000  O
  O123     1.0000 0.38190  0.83000  0.46590  Biso   1.000  O
  O124     1.0000 0.61810  0.83000  0.03410  Biso   1.000  O
  O125     1.0000 0.11810  0.67000  0.53410  Biso   1.000  O
  O126     1.0000 0.88190  0.67000  0.96590  Biso   1.000  O
  O127     1.0000 0.61810  0.17000  0.53410  Biso   1.000  O
  O128     1.0000 0.38190  0.17000  0.96590  Biso   1.000  O
  H417     1.0000 0.86514  0.32816  0.40918  Biso   1.000  H
  H418     1.0000 0.13486  0.32816  0.09082  Biso   1.000  H
  H419     1.0000 0.36514  0.82816  0.40918  Biso   1.000  H
  H420     1.0000 0.63486  0.82816  0.09082  Biso   1.000  H
  H421     1.0000 0.13486  0.67184  0.59082  Biso   1.000  H
  H422     1.0000 0.86514  0.67184  0.90918  Biso   1.000  H
  H423     1.0000 0.63486  0.17184  0.59082  Biso   1.000  H
  H424     1.0000 0.36514  0.17184  0.90918  Biso   1.000  H
  H425     1.0000 0.88159  0.28342  0.49694  Biso   1.000  H
  H426     1.0000 0.11841  0.28342  0.00306  Biso   1.000  H
  H427     1.0000 0.38159  0.78342  0.49694  Biso   1.000  H
  H428     1.0000 0.61841  0.78342  0.00306  Biso   1.000  H
  H429     1.0000 0.11841  0.71658  0.50306  Biso   1.000  H
  H430     1.0000 0.88159  0.71658  0.99694  Biso   1.000  H
  H431     1.0000 0.61841  0.21658  0.50306  Biso   1.000  H
  H432     1.0000 0.38159  0.21658  0.99694  Biso   1.000  H
  O129     1.0000 0.98570  0.46660  0.99000  Biso   1.000  O
  O130     1.0000 0.01430  0.46660  0.51000  Biso   1.000  O
  O131     1.0000 0.48570  0.96660  0.99000  Biso   1.000  O
  O132     1.0000 0.51430  0.96660  0.51000  Biso   1.000  O
  O133     1.0000 0.01430  0.53340  0.01000  Biso   1.000  O
  O134     1.0000 0.98570  0.53340  0.49000  Biso   1.000  O
  O135     1.0000 0.51430  0.03340  0.01000  Biso   1.000  O
  O136     1.0000 0.48570  0.03340  0.49000  Biso   1.000  O
  C473     1.0000 0.96110  0.90820  0.96230  Biso   1.000  C
  C474     1.0000 0.03890  0.90820  0.53770  Biso   1.000  C
  C475     1.0000 0.46110  0.40820  0.96230  Biso   1.000  C
  C476     1.0000 0.53890  0.40820  0.53770  Biso   1.000  C
  C477     1.0000 0.03890  0.09180  0.03770  Biso   1.000  C
  C478     1.0000 0.96110  0.09180  0.46230  Biso   1.000  C
  C479     1.0000 0.53890  0.59180  0.03770  Biso   1.000  C
  C480     1.0000 0.46110  0.59180  0.46230  Biso   1.000  C
  O137     1.0000 0.01320  0.85660  0.94400  Biso   1.000  O
  O138     1.0000 0.98680  0.85660  0.55600  Biso   1.000  O
  O139     1.0000 0.51320  0.35660  0.94400  Biso   1.000  O
  O140     1.0000 0.48680  0.35660  0.55600  Biso   1.000  O
  O141     1.0000 0.98680  0.14340  0.05600  Biso   1.000  O
  O142     1.0000 0.01320  0.14340  0.44400  Biso   1.000  O
  O143     1.0000 0.48680  0.64340  0.05600  Biso   1.000  O
  O144     1.0000 0.51320  0.64340  0.44400  Biso   1.000  O
  O145     1.0000 0.97300  0.76320  0.89900  Biso   1.000  O
  O146     1.0000 0.02700  0.76320  0.60100  Biso   1.000  O
  O147     1.0000 0.47300  0.26320  0.89900  Biso   1.000  O
  O148     1.0000 0.52700  0.26320  0.60100  Biso   1.000  O
  O149     1.0000 0.02700  0.23680  0.10100  Biso   1.000  O
  O150     1.0000 0.97300  0.23680  0.39900  Biso   1.000  O
  O151     1.0000 0.52700  0.73680  0.10100  Biso   1.000  O
  O152     1.0000 0.47300  0.73680  0.39900  Biso   1.000  O
  O153     1.0000 0.02790  0.98690  0.01360  Biso   1.000  O
  O154     1.0000 0.97210  0.98690  0.48640  Biso   1.000  O
  O155     1.0000 0.52790  0.48690  0.01360  Biso   1.000  O
  O156     1.0000 0.47210  0.48690  0.48640  Biso   1.000  O
  O157     1.0000 0.97210  0.01310  0.98640  Biso   1.000  O
  O158     1.0000 0.02790  0.01310  0.51360  Biso   1.000  O
  O159     1.0000 0.47210  0.51310  0.98640  Biso   1.000  O
  O160     1.0000 0.52790  0.51310  0.51360  Biso   1.000  O
  C481     1.0000 0.00620  0.79500  0.89700  Biso   1.000  C
  C482     1.0000 0.99380  0.79500  0.60300  Biso   1.000  C
  C483     1.0000 0.50620  0.29500  0.89700  Biso   1.000  C
  C484     1.0000 0.49380  0.29500  0.60300  Biso   1.000  C
  C485     1.0000 0.99380  0.20500  0.10300  Biso   1.000  C
  C486     1.0000 0.00620  0.20500  0.39700  Biso   1.000  C
  C487     1.0000 0.49380  0.70500  0.10300  Biso   1.000  C
  C488     1.0000 0.50620  0.70500  0.39700  Biso   1.000  C
  C489     1.0000 0.95510  0.82250  0.91800  Biso   1.000  C
  C490     1.0000 0.04490  0.82250  0.58200  Biso   1.000  C
  C491     1.0000 0.45510  0.32250  0.91800  Biso   1.000  C
  C492     1.0000 0.54490  0.32250  0.58200  Biso   1.000  C
  C493     1.0000 0.04490  0.17750  0.08200  Biso   1.000  C
  C494     1.0000 0.95510  0.17750  0.41800  Biso   1.000  C
  C495     1.0000 0.54490  0.67750  0.08200  Biso   1.000  C
  C496     1.0000 0.45510  0.67750  0.41800  Biso   1.000  C
  O161     1.0000 0.98850  0.89560  0.96510  Biso   1.000  O
  O162     1.0000 0.01150  0.89560  0.53490  Biso   1.000  O
  O163     1.0000 0.48850  0.39560  0.96510  Biso   1.000  O
  O164     1.0000 0.51150  0.39560  0.53490  Biso   1.000  O
  O165     1.0000 0.01150  0.10440  0.03490  Biso   1.000  O
  O166     1.0000 0.98850  0.10440  0.46510  Biso   1.000  O
  O167     1.0000 0.51150  0.60440  0.03490  Biso   1.000  O
  O168     1.0000 0.48850  0.60440  0.46510  Biso   1.000  O
  C497     1.0000 0.00040  0.97080  0.97840  Biso   1.000  C
  C498     1.0000 0.99960  0.97080  0.52160  Biso   1.000  C
  C499     1.0000 0.50040  0.47080  0.97840  Biso   1.000  C
  C500     1.0000 0.49960  0.47080  0.52160  Biso   1.000  C
  C501     1.0000 0.99960  0.02920  0.02160  Biso   1.000  C
  C502     1.0000 0.00040  0.02920  0.47840  Biso   1.000  C
  C503     1.0000 0.49960  0.52920  0.02160  Biso   1.000  C
  C504     1.0000 0.50040  0.52920  0.47840  Biso   1.000  C
