data_image0
_cell_length_a       23.6733
_cell_length_b       18.9166
_cell_length_c       17.611
_cell_angle_alpha    90
_cell_angle_beta     109.708
_cell_angle_gamma    90

_symmetry_space_group_name_H-M    "P 1"
_symmetry_int_tables_number       1

loop_
  _symmetry_equiv_pos_as_xyz
  'x, y, z'

loop_
  _atom_site_label
  _atom_site_occupancy
  _atom_site_fract_x
  _atom_site_fract_y
  _atom_site_fract_z
  _atom_site_thermal_displace_type
  _atom_site_B_iso_or_equiv
  _atom_site_type_symbol
  Cu1      1.0000 0.02012  0.53542  0.22444  Biso   1.000  Cu
  Cu2      1.0000 0.97988  0.03542  0.27556  Biso   1.000  Cu
  Cu3      1.0000 0.97988  0.46458  0.77556  Biso   1.000  Cu
  Cu4      1.0000 0.02012  0.96458  0.72444  Biso   1.000  Cu
  Cu5      1.0000 0.53758  0.44765  0.24724  Biso   1.000  Cu
  Cu6      1.0000 0.46242  0.94765  0.25276  Biso   1.000  Cu
  Cu7      1.0000 0.46242  0.55235  0.75276  Biso   1.000  Cu
  Cu8      1.0000 0.53758  0.05235  0.74724  Biso   1.000  Cu
  O1       1.0000 0.93560  0.78230  0.52000  Biso   1.000  O
  O2       1.0000 0.06440  0.28230  0.98000  Biso   1.000  O
  O3       1.0000 0.06440  0.21770  0.48000  Biso   1.000  O
  O4       1.0000 0.93560  0.71770  0.02000  Biso   1.000  O
  O5       1.0000 0.96770  0.94490  0.32290  Biso   1.000  O
  O6       1.0000 0.03230  0.44490  0.17710  Biso   1.000  O
  O7       1.0000 0.03230  0.05510  0.67710  Biso   1.000  O
  O8       1.0000 0.96770  0.55510  0.82290  Biso   1.000  O
  O9       1.0000 0.00770  0.62430  0.27040  Biso   1.000  O
  O10      1.0000 0.99230  0.12430  0.22960  Biso   1.000  O
  O11      1.0000 0.99230  0.37570  0.72960  Biso   1.000  O
  O12      1.0000 0.00770  0.87570  0.77040  Biso   1.000  O
  O13      1.0000 0.98990  0.88150  0.23100  Biso   1.000  O
  O14      1.0000 0.01010  0.38150  0.26900  Biso   1.000  O
  O15      1.0000 0.01010  0.11850  0.76900  Biso   1.000  O
  O16      1.0000 0.98990  0.61850  0.73100  Biso   1.000  O
  O17      1.0000 0.49740  0.85510  0.28420  Biso   1.000  O
  O18      1.0000 0.50260  0.35510  0.21580  Biso   1.000  O
  O19      1.0000 0.50260  0.14490  0.71580  Biso   1.000  O
  O20      1.0000 0.49740  0.64490  0.78420  Biso   1.000  O
  N1       1.0000 0.93080  0.52830  0.16270  Biso   1.000  N
  N2       1.0000 0.06920  0.02830  0.33730  Biso   1.000  N
  N3       1.0000 0.06920  0.47170  0.83730  Biso   1.000  N
  N4       1.0000 0.93080  0.97170  0.66270  Biso   1.000  N
  O21      1.0000 0.57600  0.53970  0.28480  Biso   1.000  O
  O22      1.0000 0.42400  0.03970  0.21520  Biso   1.000  O
  O23      1.0000 0.42400  0.46030  0.71520  Biso   1.000  O
  O24      1.0000 0.57600  0.96030  0.78480  Biso   1.000  O
  O25      1.0000 0.50670  0.60360  0.20260  Biso   1.000  O
  O26      1.0000 0.49330  0.10360  0.29740  Biso   1.000  O
  O27      1.0000 0.49330  0.39640  0.79740  Biso   1.000  O
  O28      1.0000 0.50670  0.89640  0.70260  Biso   1.000  O
  N5       1.0000 0.48760  0.45700  0.32130  Biso   1.000  N
  N6       1.0000 0.51240  0.95700  0.17870  Biso   1.000  N
  N7       1.0000 0.51240  0.54300  0.67870  Biso   1.000  N
  N8       1.0000 0.48760  0.04300  0.82130  Biso   1.000  N
  N9       1.0000 0.04760  0.59560  0.12760  Biso   1.000  N
  N10      1.0000 0.95240  0.09560  0.37240  Biso   1.000  N
  N11      1.0000 0.95240  0.40440  0.87240  Biso   1.000  N
  N12      1.0000 0.04760  0.90440  0.62760  Biso   1.000  N
  C1       1.0000 0.98280  0.75530  0.31550  Biso   1.000  C
  C2       1.0000 0.01720  0.25530  0.18450  Biso   1.000  C
  C3       1.0000 0.01720  0.24470  0.68450  Biso   1.000  C
  C4       1.0000 0.98280  0.74470  0.81550  Biso   1.000  C
  H1       1.0000 0.99321  0.75060  0.26939  Biso   1.000  H
  H2       1.0000 0.00679  0.25060  0.23061  Biso   1.000  H
  H3       1.0000 0.00679  0.24940  0.73061  Biso   1.000  H
  H4       1.0000 0.99321  0.74940  0.76939  Biso   1.000  H
  O29      1.0000 0.98710  0.57210  0.36970  Biso   1.000  O
  O30      1.0000 0.01290  0.07210  0.13030  Biso   1.000  O
  O31      1.0000 0.01290  0.42790  0.63030  Biso   1.000  O
  O32      1.0000 0.98710  0.92790  0.86970  Biso   1.000  O
  N13      1.0000 0.38160  0.88800  0.15850  Biso   1.000  N
  N14      1.0000 0.61840  0.38800  0.34150  Biso   1.000  N
  N15      1.0000 0.61840  0.11200  0.84150  Biso   1.000  N
  N16      1.0000 0.38160  0.61200  0.65850  Biso   1.000  N
  N17      1.0000 0.10730  0.53460  0.29970  Biso   1.000  N
  N18      1.0000 0.89270  0.03460  0.20030  Biso   1.000  N
  N19      1.0000 0.89270  0.46540  0.70030  Biso   1.000  N
  N20      1.0000 0.10730  0.96540  0.79970  Biso   1.000  N
  N21      1.0000 0.57270  0.44620  0.15650  Biso   1.000  N
  N22      1.0000 0.42730  0.94620  0.34350  Biso   1.000  N
  N23      1.0000 0.42730  0.55380  0.84350  Biso   1.000  N
  N24      1.0000 0.57270  0.05380  0.65650  Biso   1.000  N
  C5       1.0000 0.95010  0.76840  0.45360  Biso   1.000  C
  C6       1.0000 0.04990  0.26840  0.04640  Biso   1.000  C
  C7       1.0000 0.04990  0.23160  0.54640  Biso   1.000  C
  C8       1.0000 0.95010  0.73160  0.95360  Biso   1.000  C
  C9       1.0000 0.97060  0.82440  0.34140  Biso   1.000  C
  C10      1.0000 0.02940  0.32440  0.15860  Biso   1.000  C
  C11      1.0000 0.02940  0.17560  0.65860  Biso   1.000  C
  C12      1.0000 0.97060  0.67560  0.84140  Biso   1.000  C
  C13      1.0000 0.58100  0.78340  0.34660  Biso   1.000  C
  C14      1.0000 0.41900  0.28340  0.15340  Biso   1.000  C
  C15      1.0000 0.41900  0.21660  0.65340  Biso   1.000  C
  C16      1.0000 0.58100  0.71660  0.84660  Biso   1.000  C
  O33      1.0000 0.72610  0.71380  0.45880  Biso   1.000  O
  O34      1.0000 0.27390  0.21380  0.04120  Biso   1.000  O
  O35      1.0000 0.27390  0.28620  0.54120  Biso   1.000  O
  O36      1.0000 0.72610  0.78620  0.95880  Biso   1.000  O
  C17      1.0000 0.95460  0.82810  0.41050  Biso   1.000  C
  C18      1.0000 0.04540  0.32810  0.08950  Biso   1.000  C
  C19      1.0000 0.04540  0.17190  0.58950  Biso   1.000  C
  C20      1.0000 0.95460  0.67190  0.91050  Biso   1.000  C
  H5       1.0000 0.94679  0.87211  0.42834  Biso   1.000  H
  H6       1.0000 0.05321  0.37211  0.07166  Biso   1.000  H
  H7       1.0000 0.05321  0.12789  0.57166  Biso   1.000  H
  H8       1.0000 0.94679  0.62789  0.92834  Biso   1.000  H
  C21      1.0000 0.96140  0.70180  0.42800  Biso   1.000  C
  C22      1.0000 0.03860  0.20180  0.07200  Biso   1.000  C
  C23      1.0000 0.03860  0.29820  0.57200  Biso   1.000  C
  C24      1.0000 0.96140  0.79820  0.92800  Biso   1.000  C
  H9       1.0000 0.95753  0.66130  0.45576  Biso   1.000  H
  H10      1.0000 0.04247  0.16130  0.04424  Biso   1.000  H
  H11      1.0000 0.04247  0.33870  0.54424  Biso   1.000  H
  H12      1.0000 0.95753  0.83870  0.95576  Biso   1.000  H
  C25      1.0000 0.97890  0.69720  0.35880  Biso   1.000  C
  C26      1.0000 0.02110  0.19720  0.14120  Biso   1.000  C
  C27      1.0000 0.02110  0.30280  0.64120  Biso   1.000  C
  C28      1.0000 0.97890  0.80280  0.85880  Biso   1.000  C
  C29      1.0000 0.90260  0.57310  0.10050  Biso   1.000  C
  C30      1.0000 0.09740  0.07310  0.39950  Biso   1.000  C
  C31      1.0000 0.09740  0.42690  0.89950  Biso   1.000  C
  C32      1.0000 0.90260  0.92690  0.60050  Biso   1.000  C
  H13      1.0000 0.92529  0.60790  0.08691  Biso   1.000  H
  H14      1.0000 0.07471  0.10790  0.41309  Biso   1.000  H
  H15      1.0000 0.07471  0.39210  0.91309  Biso   1.000  H
  H16      1.0000 0.92529  0.89210  0.58691  Biso   1.000  H
  O37      1.0000 0.57410  0.90210  0.37930  Biso   1.000  O
  O38      1.0000 0.42590  0.40210  0.12070  Biso   1.000  O
  O39      1.0000 0.42590  0.09790  0.62070  Biso   1.000  O
  O40      1.0000 0.57410  0.59790  0.87930  Biso   1.000  O
  C33      1.0000 0.10410  0.66370  0.03430  Biso   1.000  C
  C34      1.0000 0.89590  0.16370  0.46570  Biso   1.000  C
  C35      1.0000 0.89590  0.33630  0.96570  Biso   1.000  C
  C36      1.0000 0.10410  0.83630  0.53430  Biso   1.000  C
  C37      1.0000 0.80670  0.51960  0.07850  Biso   1.000  C
  C38      1.0000 0.19330  0.01960  0.42150  Biso   1.000  C
  C39      1.0000 0.19330  0.48040  0.92150  Biso   1.000  C
  C40      1.0000 0.80670  0.98040  0.57850  Biso   1.000  C
  C41      1.0000 0.84210  0.56920  0.05680  Biso   1.000  C
  C42      1.0000 0.15790  0.06920  0.44320  Biso   1.000  C
  C43      1.0000 0.15790  0.43080  0.94320  Biso   1.000  C
  C44      1.0000 0.84210  0.93080  0.55680  Biso   1.000  C
  H17      1.0000 0.82510  0.59942  0.01343  Biso   1.000  H
  H18      1.0000 0.17490  0.09942  0.48657  Biso   1.000  H
  H19      1.0000 0.17490  0.40058  0.98657  Biso   1.000  H
  H20      1.0000 0.82510  0.90058  0.51343  Biso   1.000  H
  C45      1.0000 0.54910  0.85050  0.33740  Biso   1.000  C
  C46      1.0000 0.45090  0.35050  0.16260  Biso   1.000  C
  C47      1.0000 0.45090  0.14950  0.66260  Biso   1.000  C
  C48      1.0000 0.54910  0.64950  0.83740  Biso   1.000  C
  C49      1.0000 0.89570  0.47960  0.18280  Biso   1.000  C
  C50      1.0000 0.10430  0.97960  0.31720  Biso   1.000  C
  C51      1.0000 0.10430  0.52040  0.81720  Biso   1.000  C
  C52      1.0000 0.89570  0.02040  0.68280  Biso   1.000  C
  H21      1.0000 0.91337  0.44892  0.22547  Biso   1.000  H
  H22      1.0000 0.08663  0.94892  0.27453  Biso   1.000  H
  H23      1.0000 0.08663  0.55108  0.77453  Biso   1.000  H
  H24      1.0000 0.91337  0.05108  0.72547  Biso   1.000  H
  C53      1.0000 0.58450  0.66030  0.30850  Biso   1.000  C
  C54      1.0000 0.41550  0.16030  0.19150  Biso   1.000  C
  C55      1.0000 0.41550  0.33970  0.69150  Biso   1.000  C
  C56      1.0000 0.58450  0.83970  0.80850  Biso   1.000  C
  C57      1.0000 0.55360  0.72530  0.29890  Biso   1.000  C
  C58      1.0000 0.44640  0.22530  0.20110  Biso   1.000  C
  C59      1.0000 0.44640  0.27470  0.70110  Biso   1.000  C
  C60      1.0000 0.55360  0.77470  0.79890  Biso   1.000  C
  H25      1.0000 0.51530  0.72954  0.26113  Biso   1.000  H
  H26      1.0000 0.48470  0.22954  0.23887  Biso   1.000  H
  H27      1.0000 0.48470  0.27046  0.73887  Biso   1.000  H
  H28      1.0000 0.51530  0.77046  0.76113  Biso   1.000  H
  C61      1.0000 0.62080  0.44150  0.03330  Biso   1.000  C
  C62      1.0000 0.37920  0.94150  0.46670  Biso   1.000  C
  C63      1.0000 0.37920  0.55850  0.96670  Biso   1.000  C
  C64      1.0000 0.62080  0.05850  0.53330  Biso   1.000  C
  C65      1.0000 0.58570  0.49690  0.03930  Biso   1.000  C
  C66      1.0000 0.41430  0.99690  0.46070  Biso   1.000  C
  C67      1.0000 0.41430  0.50310  0.96070  Biso   1.000  C
  C68      1.0000 0.58570  0.00310  0.53930  Biso   1.000  C
  H29      1.0000 0.57774  0.53402  0.00253  Biso   1.000  H
  H30      1.0000 0.42226  0.03402  0.49747  Biso   1.000  H
  H31      1.0000 0.42226  0.46598  0.99747  Biso   1.000  H
  H32      1.0000 0.57774  0.96598  0.50253  Biso   1.000  H
  C69      1.0000 0.92840  0.72660  0.56760  Biso   1.000  C
  C70      1.0000 0.07160  0.22660  0.93240  Biso   1.000  C
  C71      1.0000 0.07160  0.27340  0.43240  Biso   1.000  C
  C72      1.0000 0.92840  0.77340  0.06760  Biso   1.000  C
  H33      1.0000 0.95897  0.69152  0.57061  Biso   1.000  H
  H34      1.0000 0.04103  0.19152  0.92939  Biso   1.000  H
  H35      1.0000 0.04103  0.30848  0.42939  Biso   1.000  H
  H36      1.0000 0.95897  0.80848  0.07061  Biso   1.000  H
  H37      1.0000 0.93592  0.74440  0.62178  Biso   1.000  H
  H38      1.0000 0.06408  0.24440  0.87822  Biso   1.000  H
  H39      1.0000 0.06408  0.25560  0.37822  Biso   1.000  H
  H40      1.0000 0.93592  0.75560  0.12178  Biso   1.000  H
  C73      1.0000 0.55120  0.59690  0.26070  Biso   1.000  C
  C74      1.0000 0.44880  0.09690  0.23930  Biso   1.000  C
  C75      1.0000 0.44880  0.40310  0.73930  Biso   1.000  C
  C76      1.0000 0.55120  0.90310  0.76070  Biso   1.000  C
  C77      1.0000 0.99230  0.62320  0.33200  Biso   1.000  C
  C78      1.0000 0.00770  0.12320  0.16800  Biso   1.000  C
  C79      1.0000 0.00770  0.37680  0.66800  Biso   1.000  C
  C80      1.0000 0.99230  0.87680  0.83200  Biso   1.000  C
  C81      1.0000 0.83590  0.47430  0.14260  Biso   1.000  C
  C82      1.0000 0.16410  0.97430  0.35740  Biso   1.000  C
  C83      1.0000 0.16410  0.52570  0.85740  Biso   1.000  C
  C84      1.0000 0.83590  0.02570  0.64260  Biso   1.000  C
  H41      1.0000 0.81389  0.43983  0.15785  Biso   1.000  H
  H42      1.0000 0.18611  0.93983  0.34215  Biso   1.000  H
  H43      1.0000 0.18611  0.56017  0.84215  Biso   1.000  H
  H44      1.0000 0.81389  0.06017  0.65785  Biso   1.000  H
  C85      1.0000 0.56240  0.49660  0.10030  Biso   1.000  C
  C86      1.0000 0.43760  0.99660  0.39970  Biso   1.000  C
  C87      1.0000 0.43760  0.50340  0.89970  Biso   1.000  C
  C88      1.0000 0.56240  0.00340  0.60030  Biso   1.000  C
  H45      1.0000 0.53768  0.53401  0.10304  Biso   1.000  H
  H46      1.0000 0.46232  0.03401  0.39696  Biso   1.000  H
  H47      1.0000 0.46232  0.46599  0.89696  Biso   1.000  H
  H48      1.0000 0.53768  0.96599  0.60304  Biso   1.000  H
  C89      1.0000 0.97660  0.89050  0.29370  Biso   1.000  C
  C90      1.0000 0.02340  0.39050  0.20630  Biso   1.000  C
  C91      1.0000 0.02340  0.10950  0.70630  Biso   1.000  C
  C92      1.0000 0.97660  0.60950  0.79370  Biso   1.000  C
  C93      1.0000 0.09360  0.59350  0.02390  Biso   1.000  C
  C94      1.0000 0.90640  0.09350  0.47610  Biso   1.000  C
  C95      1.0000 0.90640  0.40650  0.97610  Biso   1.000  C
  C96      1.0000 0.09360  0.90650  0.52390  Biso   1.000  C
  H49      1.0000 0.10474  0.56749  0.98642  Biso   1.000  H
  H50      1.0000 0.89526  0.06749  0.51358  Biso   1.000  H
  H51      1.0000 0.89526  0.43251  0.01358  Biso   1.000  H
  H52      1.0000 0.10474  0.93251  0.48642  Biso   1.000  H
  C97      1.0000 0.63950  0.65600  0.35950  Biso   1.000  C
  C98      1.0000 0.36050  0.15600  0.14050  Biso   1.000  C
  C99      1.0000 0.36050  0.34400  0.64050  Biso   1.000  C
  C100     1.0000 0.63950  0.84400  0.85950  Biso   1.000  C
  H53      1.0000 0.66014  0.61338  0.36479  Biso   1.000  H
  H54      1.0000 0.33986  0.11338  0.13521  Biso   1.000  H
  H55      1.0000 0.33986  0.38662  0.63521  Biso   1.000  H
  H56      1.0000 0.66014  0.88662  0.86479  Biso   1.000  H
  C101     1.0000 0.71840  0.44130  0.00220  Biso   1.000  C
  C102     1.0000 0.28160  0.94130  0.49780  Biso   1.000  C
  C103     1.0000 0.28160  0.55870  0.99780  Biso   1.000  C
  C104     1.0000 0.71840  0.05870  0.50220  Biso   1.000  C
  H57      1.0000 0.73557  0.42820  0.96138  Biso   1.000  H
  H58      1.0000 0.26443  0.92820  0.53862  Biso   1.000  H
  H59      1.0000 0.26443  0.57180  0.03862  Biso   1.000  H
  H60      1.0000 0.73557  0.07180  0.46138  Biso   1.000  H
  H61      1.0000 0.73218  0.40756  0.04609  Biso   1.000  H
  H62      1.0000 0.26782  0.90756  0.45391  Biso   1.000  H
  H63      1.0000 0.26782  0.59244  0.95391  Biso   1.000  H
  H64      1.0000 0.73218  0.09244  0.54609  Biso   1.000  H
  C105     1.0000 0.63800  0.77620  0.40040  Biso   1.000  C
  C106     1.0000 0.36200  0.27620  0.09960  Biso   1.000  C
  C107     1.0000 0.36200  0.22380  0.59960  Biso   1.000  C
  C108     1.0000 0.63800  0.72380  0.90040  Biso   1.000  C
  H65      1.0000 0.65684  0.81361  0.43351  Biso   1.000  H
  H66      1.0000 0.34316  0.31361  0.06649  Biso   1.000  H
  H67      1.0000 0.34316  0.18639  0.56649  Biso   1.000  H
  H68      1.0000 0.65684  0.68639  0.93351  Biso   1.000  H
  C109     1.0000 0.66690  0.71220  0.40450  Biso   1.000  C
  C110     1.0000 0.33310  0.21220  0.09550  Biso   1.000  C
  C111     1.0000 0.33310  0.28780  0.59550  Biso   1.000  C
  C112     1.0000 0.66690  0.78780  0.90450  Biso   1.000  C
  C113     1.0000 0.42790  0.46710  0.43640  Biso   1.000  C
  C114     1.0000 0.57210  0.96710  0.06360  Biso   1.000  C
  C115     1.0000 0.57210  0.53290  0.56360  Biso   1.000  C
  C116     1.0000 0.42790  0.03290  0.93640  Biso   1.000  C
  C117     1.0000 0.05870  0.66420  0.13310  Biso   1.000  C
  C118     1.0000 0.94130  0.16420  0.36690  Biso   1.000  C
  C119     1.0000 0.94130  0.33580  0.86690  Biso   1.000  C
  C120     1.0000 0.05870  0.83580  0.63310  Biso   1.000  C
  H69      1.0000 0.04616  0.68990  0.16958  Biso   1.000  H
  H70      1.0000 0.95384  0.18990  0.33042  Biso   1.000  H
  H71      1.0000 0.95384  0.31010  0.83042  Biso   1.000  H
  H72      1.0000 0.04616  0.81010  0.66958  Biso   1.000  H
  C121     1.0000 0.06510  0.56290  0.07270  Biso   1.000  C
  C122     1.0000 0.93490  0.06290  0.42730  Biso   1.000  C
  C123     1.0000 0.93490  0.43710  0.92730  Biso   1.000  C
  C124     1.0000 0.06510  0.93710  0.57270  Biso   1.000  C
  H73      1.0000 0.05755  0.51462  0.06634  Biso   1.000  H
  H74      1.0000 0.94245  0.01462  0.43366  Biso   1.000  H
  H75      1.0000 0.94245  0.48538  0.93366  Biso   1.000  H
  H76      1.0000 0.05755  0.98538  0.56634  Biso   1.000  H
  C125     1.0000 0.74010  0.51660  0.03420  Biso   1.000  C
  C126     1.0000 0.25990  0.01660  0.46580  Biso   1.000  C
  C127     1.0000 0.25990  0.48340  0.96580  Biso   1.000  C
  C128     1.0000 0.74010  0.98340  0.53420  Biso   1.000  C
  H77      1.0000 0.72999  0.54928  0.98917  Biso   1.000  H
  H78      1.0000 0.27001  0.04928  0.51083  Biso   1.000  H
  H79      1.0000 0.27001  0.45072  0.01083  Biso   1.000  H
  H80      1.0000 0.72999  0.95072  0.48917  Biso   1.000  H
  H81      1.0000 0.71918  0.53169  0.07019  Biso   1.000  H
  H82      1.0000 0.28082  0.03169  0.42981  Biso   1.000  H
  H83      1.0000 0.28082  0.46831  0.92981  Biso   1.000  H
  H84      1.0000 0.71918  0.96831  0.57019  Biso   1.000  H
  C129     1.0000 0.64950  0.43880  0.96590  Biso   1.000  C
  C130     1.0000 0.35050  0.93880  0.53410  Biso   1.000  C
  C131     1.0000 0.35050  0.56120  0.03410  Biso   1.000  C
  C132     1.0000 0.64950  0.06120  0.46590  Biso   1.000  C
  H85      1.0000 0.63729  0.39559  0.93499  Biso   1.000  H
  H86      1.0000 0.36271  0.89559  0.56501  Biso   1.000  H
  H87      1.0000 0.36271  0.60441  0.06501  Biso   1.000  H
  H88      1.0000 0.63729  0.10441  0.43499  Biso   1.000  H
  H89      1.0000 0.63526  0.47845  0.92963  Biso   1.000  H
  H90      1.0000 0.36474  0.97845  0.57037  Biso   1.000  H
  H91      1.0000 0.36474  0.52155  0.07037  Biso   1.000  H
  H92      1.0000 0.63526  0.02155  0.42963  Biso   1.000  H
  C133     1.0000 0.08620  0.69920  0.09040  Biso   1.000  C
  C134     1.0000 0.91380  0.19920  0.40960  Biso   1.000  C
  C135     1.0000 0.91380  0.30080  0.90960  Biso   1.000  C
  C136     1.0000 0.08620  0.80080  0.59040  Biso   1.000  C
  H93      1.0000 0.09337  0.74741  0.09837  Biso   1.000  H
  H94      1.0000 0.90663  0.24741  0.40163  Biso   1.000  H
  H95      1.0000 0.90663  0.25259  0.90163  Biso   1.000  H
  H96      1.0000 0.09337  0.75259  0.59837  Biso   1.000  H
  C137     1.0000 0.46820  0.51930  0.33910  Biso   1.000  C
  C138     1.0000 0.53180  0.01930  0.16090  Biso   1.000  C
  C139     1.0000 0.53180  0.48070  0.66090  Biso   1.000  C
  C140     1.0000 0.46820  0.98070  0.83910  Biso   1.000  C
  H97      1.0000 0.47484  0.56024  0.31418  Biso   1.000  H
  H98      1.0000 0.52516  0.06024  0.18582  Biso   1.000  H
  H99      1.0000 0.52516  0.43976  0.68582  Biso   1.000  H
  H100     1.0000 0.47484  0.93976  0.81418  Biso   1.000  H
  C141     1.0000 0.13740  0.70420  0.98280  Biso   1.000  C
  C142     1.0000 0.86260  0.20420  0.51720  Biso   1.000  C
  C143     1.0000 0.86260  0.29580  0.01720  Biso   1.000  C
  C144     1.0000 0.13740  0.79580  0.48280  Biso   1.000  C
  H101     1.0000 0.14708  0.67129  0.94673  Biso   1.000  H
  H102     1.0000 0.85292  0.17129  0.55327  Biso   1.000  H
  H103     1.0000 0.85292  0.32871  0.05327  Biso   1.000  H
  H104     1.0000 0.14708  0.82871  0.44673  Biso   1.000  H
  H105     1.0000 0.11128  0.74042  0.95035  Biso   1.000  H
  H106     1.0000 0.88872  0.24042  0.54965  Biso   1.000  H
  H107     1.0000 0.88872  0.25958  0.04965  Biso   1.000  H
  H108     1.0000 0.11128  0.75958  0.45035  Biso   1.000  H
  C145     1.0000 0.47770  0.40360  0.36330  Biso   1.000  C
  C146     1.0000 0.52230  0.90360  0.13670  Biso   1.000  C
  C147     1.0000 0.52230  0.59640  0.63670  Biso   1.000  C
  C148     1.0000 0.47770  0.09640  0.86330  Biso   1.000  C
  H109     1.0000 0.49270  0.35979  0.35539  Biso   1.000  H
  H110     1.0000 0.50730  0.85979  0.14461  Biso   1.000  H
  H111     1.0000 0.50730  0.64021  0.64461  Biso   1.000  H
  H112     1.0000 0.49270  0.14021  0.85539  Biso   1.000  H
  C149     1.0000 0.60790  0.39210  0.14810  Biso   1.000  C
  C150     1.0000 0.39210  0.89210  0.35190  Biso   1.000  C
  C151     1.0000 0.39210  0.60790  0.85190  Biso   1.000  C
  C152     1.0000 0.60790  0.10790  0.64810  Biso   1.000  C
  H113     1.0000 0.61535  0.35543  0.18541  Biso   1.000  H
  H114     1.0000 0.38465  0.85543  0.31459  Biso   1.000  H
  H115     1.0000 0.38465  0.64457  0.81459  Biso   1.000  H
  H116     1.0000 0.61535  0.14457  0.68541  Biso   1.000  H
  C153     1.0000 0.43820  0.52320  0.39430  Biso   1.000  C
  C154     1.0000 0.56180  0.02320  0.10570  Biso   1.000  C
  C155     1.0000 0.56180  0.47680  0.60570  Biso   1.000  C
  C156     1.0000 0.43820  0.97680  0.89430  Biso   1.000  C
  H117     1.0000 0.42425  0.56727  0.40338  Biso   1.000  H
  H118     1.0000 0.57575  0.06727  0.09662  Biso   1.000  H
  H119     1.0000 0.57575  0.43273  0.59662  Biso   1.000  H
  H120     1.0000 0.42425  0.93273  0.90338  Biso   1.000  H
  C157     1.0000 0.28140  0.81790  0.05370  Biso   1.000  C
  C158     1.0000 0.71860  0.31790  0.44630  Biso   1.000  C
  C159     1.0000 0.71860  0.18210  0.94630  Biso   1.000  C
  C160     1.0000 0.28140  0.68210  0.55370  Biso   1.000  C
  C161     1.0000 0.44700  0.40630  0.41820  Biso   1.000  C
  C162     1.0000 0.55300  0.90630  0.08180  Biso   1.000  C
  C163     1.0000 0.55300  0.59370  0.58180  Biso   1.000  C
  C164     1.0000 0.44700  0.09370  0.91820  Biso   1.000  C
  H121     1.0000 0.44008  0.36491  0.44218  Biso   1.000  H
  H122     1.0000 0.55992  0.86491  0.05782  Biso   1.000  H
  H123     1.0000 0.55992  0.63509  0.55782  Biso   1.000  H
  H124     1.0000 0.44008  0.13509  0.94218  Biso   1.000  H
  C165     1.0000 0.33090  0.46410  0.45740  Biso   1.000  C
  C166     1.0000 0.66910  0.96410  0.04260  Biso   1.000  C
  C167     1.0000 0.66910  0.53590  0.54260  Biso   1.000  C
  C168     1.0000 0.33090  0.03590  0.95740  Biso   1.000  C
  H125     1.0000 0.32306  0.42195  0.42405  Biso   1.000  H
  H126     1.0000 0.67694  0.92195  0.07595  Biso   1.000  H
  H127     1.0000 0.67694  0.57805  0.57595  Biso   1.000  H
  H128     1.0000 0.32306  0.07805  0.92405  Biso   1.000  H
  H129     1.0000 0.31244  0.45743  0.49839  Biso   1.000  H
  H130     1.0000 0.68756  0.95743  0.00161  Biso   1.000  H
  H131     1.0000 0.68756  0.54257  0.50161  Biso   1.000  H
  H132     1.0000 0.31244  0.04257  0.99839  Biso   1.000  H
  C169     1.0000 0.63220  0.38760  0.09100  Biso   1.000  C
  C170     1.0000 0.36780  0.88760  0.40900  Biso   1.000  C
  C171     1.0000 0.36780  0.61240  0.90900  Biso   1.000  C
  C172     1.0000 0.63220  0.11240  0.59100  Biso   1.000  C
  H133     1.0000 0.65633  0.34932  0.08903  Biso   1.000  H
  H134     1.0000 0.34367  0.84932  0.41097  Biso   1.000  H
  H135     1.0000 0.34367  0.65068  0.91097  Biso   1.000  H
  H136     1.0000 0.65633  0.15068  0.58903  Biso   1.000  H
  C173     1.0000 0.39500  0.47100  0.49660  Biso   1.000  C
  C174     1.0000 0.60500  0.97100  0.00340  Biso   1.000  C
  C175     1.0000 0.60500  0.52900  0.50340  Biso   1.000  C
  C176     1.0000 0.39500  0.02900  0.99660  Biso   1.000  C
  H137     1.0000 0.40921  0.43359  0.53616  Biso   1.000  H
  H138     1.0000 0.59079  0.93359  0.96384  Biso   1.000  H
  H139     1.0000 0.59079  0.56641  0.46384  Biso   1.000  H
  H140     1.0000 0.40921  0.06641  0.03616  Biso   1.000  H
  H141     1.0000 0.40370  0.51588  0.52485  Biso   1.000  H
  H142     1.0000 0.59630  0.01588  0.97515  Biso   1.000  H
  H143     1.0000 0.59630  0.48412  0.47515  Biso   1.000  H
  H144     1.0000 0.40370  0.98412  0.02485  Biso   1.000  H
  C177     1.0000 0.19960  0.47370  0.37400  Biso   1.000  C
  C178     1.0000 0.80040  0.97370  0.12600  Biso   1.000  C
  C179     1.0000 0.80040  0.52630  0.62600  Biso   1.000  C
  C180     1.0000 0.19960  0.02630  0.87400  Biso   1.000  C
  H145     1.0000 0.21681  0.43216  0.39980  Biso   1.000  H
  H146     1.0000 0.78319  0.93216  0.10020  Biso   1.000  H
  H147     1.0000 0.78319  0.56784  0.60020  Biso   1.000  H
  H148     1.0000 0.21681  0.06784  0.89980  Biso   1.000  H
  C181     1.0000 0.13230  0.48090  0.33300  Biso   1.000  C
  C182     1.0000 0.86770  0.98090  0.16700  Biso   1.000  C
  C183     1.0000 0.86770  0.51910  0.66700  Biso   1.000  C
  C184     1.0000 0.13230  0.01910  0.83300  Biso   1.000  C
  H149     1.0000 0.10854  0.44181  0.33312  Biso   1.000  H
  H150     1.0000 0.89146  0.94181  0.16688  Biso   1.000  H
  H151     1.0000 0.89146  0.55819  0.66688  Biso   1.000  H
  H152     1.0000 0.10854  0.05819  0.83312  Biso   1.000  H
  C185     1.0000 0.23240  0.52920  0.37130  Biso   1.000  C
  C186     1.0000 0.76760  0.02920  0.12870  Biso   1.000  C
  C187     1.0000 0.76760  0.47080  0.62870  Biso   1.000  C
  C188     1.0000 0.23240  0.97080  0.87130  Biso   1.000  C
  C189     1.0000 0.82840  0.70520  0.48690  Biso   1.000  C
  C190     1.0000 0.17160  0.20520  0.01310  Biso   1.000  C
  C191     1.0000 0.17160  0.29480  0.51310  Biso   1.000  C
  C192     1.0000 0.82840  0.79480  0.98690  Biso   1.000  C
  H153     1.0000 0.82957  0.74754  0.46065  Biso   1.000  H
  H154     1.0000 0.17043  0.24754  0.03935  Biso   1.000  H
  H155     1.0000 0.17043  0.25246  0.53935  Biso   1.000  H
  H156     1.0000 0.82957  0.75246  0.96065  Biso   1.000  H
  C193     1.0000 0.76460  0.66580  0.44530  Biso   1.000  C
  C194     1.0000 0.23540  0.16580  0.05470  Biso   1.000  C
  C195     1.0000 0.23540  0.33420  0.55470  Biso   1.000  C
  C196     1.0000 0.76460  0.83420  0.94530  Biso   1.000  C
  H157     1.0000 0.75642  0.65820  0.38809  Biso   1.000  H
  H158     1.0000 0.24358  0.15820  0.11191  Biso   1.000  H
  H159     1.0000 0.24358  0.34180  0.61191  Biso   1.000  H
  H160     1.0000 0.75642  0.84180  0.88809  Biso   1.000  H
  H161     1.0000 0.76308  0.62091  0.47114  Biso   1.000  H
  H162     1.0000 0.23692  0.12091  0.02886  Biso   1.000  H
  H163     1.0000 0.23692  0.37909  0.52886  Biso   1.000  H
  H164     1.0000 0.76308  0.87909  0.97114  Biso   1.000  H
  C197     1.0000 0.32960  0.91900  0.13120  Biso   1.000  C
  C198     1.0000 0.67040  0.41900  0.36880  Biso   1.000  C
  C199     1.0000 0.67040  0.08100  0.86880  Biso   1.000  C
  C200     1.0000 0.32960  0.58100  0.63120  Biso   1.000  C
  H165     1.0000 0.32735  0.96581  0.14587  Biso   1.000  H
  H166     1.0000 0.67265  0.46581  0.35413  Biso   1.000  H
  H167     1.0000 0.67265  0.03419  0.85413  Biso   1.000  H
  H168     1.0000 0.32735  0.53419  0.64587  Biso   1.000  H
  C201     1.0000 0.14380  0.59130  0.30260  Biso   1.000  C
  C202     1.0000 0.85620  0.09130  0.19740  Biso   1.000  C
  C203     1.0000 0.85620  0.40870  0.69740  Biso   1.000  C
  C204     1.0000 0.14380  0.90870  0.80260  Biso   1.000  C
  H169     1.0000 0.12696  0.63302  0.27702  Biso   1.000  H
  H170     1.0000 0.87304  0.13302  0.22298  Biso   1.000  H
  H171     1.0000 0.87304  0.36698  0.72298  Biso   1.000  H
  H172     1.0000 0.12696  0.86698  0.77702  Biso   1.000  H
  C205     1.0000 0.20240  0.58860  0.34070  Biso   1.000  C
  C206     1.0000 0.79760  0.08860  0.15930  Biso   1.000  C
  C207     1.0000 0.79760  0.41140  0.65930  Biso   1.000  C
  C208     1.0000 0.20240  0.91140  0.84070  Biso   1.000  C
  H173     1.0000 0.22413  0.63043  0.34657  Biso   1.000  H
  H174     1.0000 0.77587  0.13043  0.15343  Biso   1.000  H
  H175     1.0000 0.77587  0.36957  0.65343  Biso   1.000  H
  H176     1.0000 0.22413  0.86957  0.84657  Biso   1.000  H
  C209     1.0000 0.30370  0.52090  0.40980  Biso   1.000  C
  C210     1.0000 0.69630  0.02090  0.09020  Biso   1.000  C
  C211     1.0000 0.69630  0.47910  0.59020  Biso   1.000  C
  C212     1.0000 0.30370  0.97910  0.90980  Biso   1.000  C
  H177     1.0000 0.31916  0.52239  0.36537  Biso   1.000  H
  H178     1.0000 0.68084  0.02239  0.13463  Biso   1.000  H
  H179     1.0000 0.68084  0.47761  0.63463  Biso   1.000  H
  H180     1.0000 0.31916  0.97761  0.86537  Biso   1.000  H
  H181     1.0000 0.31840  0.56310  0.44174  Biso   1.000  H
  H182     1.0000 0.68160  0.06310  0.05826  Biso   1.000  H
  H183     1.0000 0.68160  0.43690  0.55826  Biso   1.000  H
  H184     1.0000 0.31840  0.93690  0.94174  Biso   1.000  H
  C213     1.0000 0.87690  0.69540  0.54430  Biso   1.000  C
  C214     1.0000 0.12310  0.19540  0.95570  Biso   1.000  C
  C215     1.0000 0.12310  0.30460  0.45570  Biso   1.000  C
  C216     1.0000 0.87690  0.80460  0.04430  Biso   1.000  C
  H185     1.0000 0.87514  0.65740  0.57693  Biso   1.000  H
  H186     1.0000 0.12486  0.15740  0.92307  Biso   1.000  H
  H187     1.0000 0.12486  0.34260  0.42307  Biso   1.000  H
  H188     1.0000 0.87514  0.84260  0.07693  Biso   1.000  H
  C217     1.0000 0.22530  0.78590  0.99370  Biso   1.000  C
  C218     1.0000 0.77470  0.28590  0.50630  Biso   1.000  C
  C219     1.0000 0.77470  0.21410  0.00630  Biso   1.000  C
  C220     1.0000 0.22530  0.71410  0.49370  Biso   1.000  C
  H189     1.0000 0.23609  0.75882  0.95381  Biso   1.000  H
  H190     1.0000 0.76391  0.25882  0.54619  Biso   1.000  H
  H191     1.0000 0.76391  0.24118  0.04619  Biso   1.000  H
  H192     1.0000 0.23609  0.74118  0.45381  Biso   1.000  H
  H193     1.0000 0.19833  0.82340  0.96591  Biso   1.000  H
  H194     1.0000 0.80167  0.32340  0.53409  Biso   1.000  H
  H195     1.0000 0.80167  0.17660  0.03409  Biso   1.000  H
  H196     1.0000 0.19833  0.67660  0.46591  Biso   1.000  H
  C221     1.0000 0.27620  0.88660  0.08070  Biso   1.000  C
  C222     1.0000 0.72380  0.38660  0.41930  Biso   1.000  C
  C223     1.0000 0.72380  0.11340  0.91930  Biso   1.000  C
  C224     1.0000 0.27620  0.61340  0.58070  Biso   1.000  C
  H197     1.0000 0.23948  0.90981  0.06611  Biso   1.000  H
  H198     1.0000 0.76052  0.40981  0.43389  Biso   1.000  H
  H199     1.0000 0.76052  0.09019  0.93389  Biso   1.000  H
  H200     1.0000 0.23948  0.59019  0.56611  Biso   1.000  H
  C225     1.0000 0.19290  0.73690  0.03700  Biso   1.000  C
  C226     1.0000 0.80710  0.23690  0.46300  Biso   1.000  C
  C227     1.0000 0.80710  0.26310  0.96300  Biso   1.000  C
  C228     1.0000 0.19290  0.76310  0.53700  Biso   1.000  C
  H201     1.0000 0.22040  0.69967  0.06460  Biso   1.000  H
  H202     1.0000 0.77960  0.19967  0.43540  Biso   1.000  H
  H203     1.0000 0.77960  0.30033  0.93540  Biso   1.000  H
  H204     1.0000 0.22040  0.80033  0.56460  Biso   1.000  H
  H205     1.0000 0.18329  0.76424  0.07756  Biso   1.000  H
  H206     1.0000 0.81671  0.26424  0.42244  Biso   1.000  H
  H207     1.0000 0.81671  0.23576  0.92244  Biso   1.000  H
  H208     1.0000 0.18329  0.73576  0.57756  Biso   1.000  H
  C229     1.0000 0.33630  0.78550  0.08890  Biso   1.000  C
  C230     1.0000 0.66370  0.28550  0.41110  Biso   1.000  C
  C231     1.0000 0.66370  0.21450  0.91110  Biso   1.000  C
  C232     1.0000 0.33630  0.71450  0.58890  Biso   1.000  C
  H209     1.0000 0.34055  0.73834  0.07671  Biso   1.000  H
  H210     1.0000 0.65945  0.23834  0.42329  Biso   1.000  H
  H211     1.0000 0.65945  0.26166  0.92329  Biso   1.000  H
  H212     1.0000 0.34055  0.76166  0.57671  Biso   1.000  H
  C233     1.0000 0.38270  0.81880  0.13900  Biso   1.000  C
  C234     1.0000 0.61730  0.31880  0.36100  Biso   1.000  C
  C235     1.0000 0.61730  0.18120  0.86100  Biso   1.000  C
  C236     1.0000 0.38270  0.68120  0.63900  Biso   1.000  C
  H213     1.0000 0.41813  0.79359  0.16219  Biso   1.000  H
  H214     1.0000 0.58187  0.29359  0.33781  Biso   1.000  H
  H215     1.0000 0.58187  0.20641  0.83781  Biso   1.000  H
  H216     1.0000 0.41813  0.70641  0.66219  Biso   1.000  H
  N25      1.0000 0.71410  0.00200  0.31540  Biso   1.000  N
  N26      1.0000 0.28590  0.50200  0.18460  Biso   1.000  N
  N27      1.0000 0.28590  0.99800  0.68460  Biso   1.000  N
  N28      1.0000 0.71410  0.49800  0.81540  Biso   1.000  N
  C237     1.0000 0.77880  0.64600  0.21670  Biso   1.000  C
  C238     1.0000 0.22120  0.14600  0.28330  Biso   1.000  C
  C239     1.0000 0.22120  0.35400  0.78330  Biso   1.000  C
  C240     1.0000 0.77880  0.85400  0.71670  Biso   1.000  C
  C241     1.0000 0.75750  0.87070  0.29220  Biso   1.000  C
  C242     1.0000 0.24250  0.37070  0.20780  Biso   1.000  C
  C243     1.0000 0.24250  0.12930  0.70780  Biso   1.000  C
  C244     1.0000 0.75750  0.62930  0.79220  Biso   1.000  C
  C245     1.0000 0.69830  0.88440  0.28120  Biso   1.000  C
  C246     1.0000 0.30170  0.38440  0.21880  Biso   1.000  C
  C247     1.0000 0.30170  0.11560  0.71880  Biso   1.000  C
  C248     1.0000 0.69830  0.61560  0.78120  Biso   1.000  C
  H217     1.0000 0.67024  0.84808  0.26663  Biso   1.000  H
  H218     1.0000 0.32976  0.34808  0.23337  Biso   1.000  H
  H219     1.0000 0.32976  0.15192  0.73337  Biso   1.000  H
  H220     1.0000 0.67024  0.65192  0.76663  Biso   1.000  H
  C249     1.0000 0.82340  0.61600  0.27500  Biso   1.000  C
  C250     1.0000 0.17660  0.11600  0.22500  Biso   1.000  C
  C251     1.0000 0.17660  0.38400  0.72500  Biso   1.000  C
  C252     1.0000 0.82340  0.88400  0.77500  Biso   1.000  C
  H221     1.0000 0.86085  0.63760  0.29161  Biso   1.000  H
  H222     1.0000 0.13915  0.13760  0.20839  Biso   1.000  H
  H223     1.0000 0.13915  0.36240  0.70839  Biso   1.000  H
  H224     1.0000 0.86085  0.86240  0.79161  Biso   1.000  H
  C253     1.0000 0.77370  0.99020  0.32700  Biso   1.000  C
  C254     1.0000 0.22630  0.49020  0.17300  Biso   1.000  C
  C255     1.0000 0.22630  0.00980  0.67300  Biso   1.000  C
  C256     1.0000 0.77370  0.50980  0.82700  Biso   1.000  C
  H225     1.0000 0.80027  0.02793  0.34310  Biso   1.000  H
  H226     1.0000 0.19973  0.52793  0.15690  Biso   1.000  H
  H227     1.0000 0.19973  0.97207  0.65690  Biso   1.000  H
  H228     1.0000 0.80027  0.47207  0.84310  Biso   1.000  H
  N29      1.0000 0.76500  0.52490  0.29730  Biso   1.000  N
  N30      1.0000 0.23500  0.02490  0.20270  Biso   1.000  N
  N31      1.0000 0.23500  0.47510  0.70270  Biso   1.000  N
  N32      1.0000 0.76500  0.97510  0.79730  Biso   1.000  N
  C257     1.0000 0.79510  0.92760  0.31640  Biso   1.000  C
  C258     1.0000 0.20490  0.42760  0.18360  Biso   1.000  C
  C259     1.0000 0.20490  0.07240  0.68360  Biso   1.000  C
  C260     1.0000 0.79510  0.57240  0.81640  Biso   1.000  C
  H229     1.0000 0.83591  0.92225  0.32550  Biso   1.000  H
  H230     1.0000 0.16409  0.42225  0.17450  Biso   1.000  H
  H231     1.0000 0.16409  0.07775  0.67450  Biso   1.000  H
  H232     1.0000 0.83591  0.57775  0.82550  Biso   1.000  H
  C261     1.0000 0.68130  0.94840  0.29120  Biso   1.000  C
  C262     1.0000 0.31870  0.44840  0.20880  Biso   1.000  C
  C263     1.0000 0.31870  0.05160  0.70880  Biso   1.000  C
  C264     1.0000 0.68130  0.55160  0.79120  Biso   1.000  C
  H233     1.0000 0.64024  0.95521  0.27910  Biso   1.000  H
  H234     1.0000 0.35976  0.45521  0.22090  Biso   1.000  H
  H235     1.0000 0.35976  0.04479  0.72090  Biso   1.000  H
  H236     1.0000 0.64024  0.54479  0.77910  Biso   1.000  H
  C265     1.0000 0.71930  0.61440  0.20460  Biso   1.000  C
  C266     1.0000 0.28070  0.11440  0.29540  Biso   1.000  C
  C267     1.0000 0.28070  0.38560  0.79540  Biso   1.000  C
  C268     1.0000 0.71930  0.88560  0.70460  Biso   1.000  C
  H237     1.0000 0.68441  0.63463  0.16954  Biso   1.000  H
  H238     1.0000 0.31559  0.13463  0.33046  Biso   1.000  H
  H239     1.0000 0.31559  0.36537  0.83046  Biso   1.000  H
  H240     1.0000 0.68441  0.86537  0.66954  Biso   1.000  H
  C269     1.0000 0.81660  0.55540  0.31130  Biso   1.000  C
  C270     1.0000 0.18340  0.05540  0.18870  Biso   1.000  C
  C271     1.0000 0.18340  0.44460  0.68870  Biso   1.000  C
  C272     1.0000 0.81660  0.94460  0.81130  Biso   1.000  C
  H241     1.0000 0.85038  0.53448  0.34791  Biso   1.000  H
  H242     1.0000 0.14962  0.03448  0.15209  Biso   1.000  H
  H243     1.0000 0.14962  0.46552  0.65209  Biso   1.000  H
  H244     1.0000 0.85038  0.96552  0.84791  Biso   1.000  H
  C273     1.0000 0.71760  0.55760  0.24460  Biso   1.000  C
  C274     1.0000 0.28240  0.05760  0.25540  Biso   1.000  C
  C275     1.0000 0.28240  0.44240  0.75540  Biso   1.000  C
  C276     1.0000 0.71760  0.94240  0.74460  Biso   1.000  C
  H245     1.0000 0.68009  0.53760  0.23616  Biso   1.000  H
  H246     1.0000 0.31991  0.03760  0.26384  Biso   1.000  H
  H247     1.0000 0.31991  0.46240  0.76384  Biso   1.000  H
  H248     1.0000 0.68009  0.96240  0.73616  Biso   1.000  H
  C277     1.0000 0.75650  0.77710  0.19080  Biso   1.000  C
  C278     1.0000 0.24350  0.27710  0.30920  Biso   1.000  C
  C279     1.0000 0.24350  0.22290  0.80920  Biso   1.000  C
  C280     1.0000 0.75650  0.72290  0.69080  Biso   1.000  C
  H249     1.0000 0.76217  0.81470  0.15672  Biso   1.000  H
  H250     1.0000 0.23783  0.31470  0.34328  Biso   1.000  H
  H251     1.0000 0.23783  0.18530  0.84328  Biso   1.000  H
  H252     1.0000 0.76217  0.68530  0.65672  Biso   1.000  H
  H253     1.0000 0.71354  0.77024  0.17682  Biso   1.000  H
  H254     1.0000 0.28646  0.27024  0.32318  Biso   1.000  H
  H255     1.0000 0.28646  0.22976  0.82318  Biso   1.000  H
  H256     1.0000 0.71354  0.72976  0.67682  Biso   1.000  H
  C281     1.0000 0.78170  0.71140  0.16910  Biso   1.000  C
  C282     1.0000 0.21830  0.21140  0.33090  Biso   1.000  C
  C283     1.0000 0.21830  0.28860  0.83090  Biso   1.000  C
  C284     1.0000 0.78170  0.78860  0.66910  Biso   1.000  C
  H257     1.0000 0.82342  0.72016  0.17525  Biso   1.000  H
  H258     1.0000 0.17658  0.22016  0.32475  Biso   1.000  H
  H259     1.0000 0.17658  0.27984  0.82475  Biso   1.000  H
  H260     1.0000 0.82342  0.77984  0.67525  Biso   1.000  H
  H261     1.0000 0.76068  0.70173  0.11245  Biso   1.000  H
  H262     1.0000 0.23932  0.20173  0.38755  Biso   1.000  H
  H263     1.0000 0.23932  0.29827  0.88755  Biso   1.000  H
  H264     1.0000 0.76068  0.79827  0.61245  Biso   1.000  H
  C285     1.0000 0.77970  0.80230  0.27490  Biso   1.000  C
  C286     1.0000 0.22030  0.30230  0.22510  Biso   1.000  C
  C287     1.0000 0.22030  0.19770  0.72510  Biso   1.000  C
  C288     1.0000 0.77970  0.69770  0.77490  Biso   1.000  C
  H265     1.0000 0.77036  0.76693  0.30881  Biso   1.000  H
  H266     1.0000 0.22964  0.26693  0.19119  Biso   1.000  H
  H267     1.0000 0.22964  0.23307  0.69119  Biso   1.000  H
  H268     1.0000 0.77036  0.73307  0.80881  Biso   1.000  H
  H269     1.0000 0.82302  0.80515  0.29097  Biso   1.000  H
  H270     1.0000 0.17698  0.30515  0.20903  Biso   1.000  H
  H271     1.0000 0.17698  0.19485  0.70903  Biso   1.000  H
  H272     1.0000 0.82302  0.69485  0.79097  Biso   1.000  H
  O41      1.0000 0.27380  0.74350  0.30820  Biso   1.000  O
  O42      1.0000 0.72620  0.24350  0.19180  Biso   1.000  O
  O43      1.0000 0.72620  0.25650  0.69180  Biso   1.000  O
  O44      1.0000 0.27380  0.75650  0.80820  Biso   1.000  O
  O45      1.0000 0.65380  0.14500  0.28000  Biso   1.000  O
  O46      1.0000 0.34620  0.64500  0.22000  Biso   1.000  O
  O47      1.0000 0.34620  0.85500  0.72000  Biso   1.000  O
  O48      1.0000 0.65380  0.35500  0.78000  Biso   1.000  O
  O49      1.0000 0.08080  0.85530  0.16440  Biso   1.000  O
  O50      1.0000 0.91920  0.35530  0.33560  Biso   1.000  O
  O51      1.0000 0.91920  0.14470  0.83560  Biso   1.000  O
  O52      1.0000 0.08080  0.64470  0.66440  Biso   1.000  O
  O53      1.0000 0.01250  0.93090  0.10210  Biso   1.000  O
  O54      1.0000 0.98750  0.43090  0.39790  Biso   1.000  O
  O55      1.0000 0.98750  0.06910  0.89790  Biso   1.000  O
  O56      1.0000 0.01250  0.56910  0.60210  Biso   1.000  O
  O57      1.0000 0.19170  0.87300  0.20100  Biso   1.000  O
  O58      1.0000 0.80830  0.37300  0.29900  Biso   1.000  O
  O59      1.0000 0.80830  0.12700  0.79900  Biso   1.000  O
  O60      1.0000 0.19170  0.62700  0.70100  Biso   1.000  O
  O61      1.0000 0.49000  0.71440  0.08370  Biso   1.000  O
  O62      1.0000 0.51000  0.21440  0.41630  Biso   1.000  O
  O63      1.0000 0.51000  0.28560  0.91630  Biso   1.000  O
  O64      1.0000 0.49000  0.78560  0.58370  Biso   1.000  O
  O65      1.0000 0.52530  0.69400  0.04300  Biso   1.000  O
  O66      1.0000 0.47470  0.19400  0.45700  Biso   1.000  O
  O67      1.0000 0.47470  0.30600  0.95700  Biso   1.000  O
  O68      1.0000 0.52530  0.80600  0.54300  Biso   1.000  O
