data_image0
_cell_length_a       37.033
_cell_length_b       37.033
_cell_length_c       21.89
_cell_angle_alpha    90
_cell_angle_beta     90
_cell_angle_gamma    120

_symmetry_space_group_name_H-M    "P 1"
_symmetry_int_tables_number       1

loop_
  _symmetry_equiv_pos_as_xyz
  'x, y, z'

loop_
  _atom_site_label
  _atom_site_occupancy
  _atom_site_fract_x
  _atom_site_fract_y
  _atom_site_fract_z
  _atom_site_thermal_displace_type
  _atom_site_B_iso_or_equiv
  _atom_site_type_symbol
  Cu1      1.0000 0.29956  0.14277  0.48626  Biso   1.000  Cu
  Cu2      1.0000 0.85723  0.15679  0.48626  Biso   1.000  Cu
  Cu3      1.0000 0.84321  0.70044  0.48626  Biso   1.000  Cu
  Cu4      1.0000 0.96623  0.47610  0.81959  Biso   1.000  Cu
  Cu5      1.0000 0.52390  0.49012  0.81959  Biso   1.000  Cu
  Cu6      1.0000 0.50988  0.03377  0.81959  Biso   1.000  Cu
  Cu7      1.0000 0.63289  0.80944  0.15293  Biso   1.000  Cu
  Cu8      1.0000 0.19056  0.82346  0.15293  Biso   1.000  Cu
  Cu9      1.0000 0.17654  0.36711  0.15293  Biso   1.000  Cu
  Cu10     1.0000 0.70044  0.85723  0.51374  Biso   1.000  Cu
  Cu11     1.0000 0.14277  0.84321  0.51374  Biso   1.000  Cu
  Cu12     1.0000 0.15679  0.29956  0.51374  Biso   1.000  Cu
  Cu13     1.0000 0.36711  0.19056  0.84707  Biso   1.000  Cu
  Cu14     1.0000 0.80944  0.17654  0.84707  Biso   1.000  Cu
  Cu15     1.0000 0.82346  0.63289  0.84707  Biso   1.000  Cu
  Cu16     1.0000 0.03377  0.52390  0.18041  Biso   1.000  Cu
  Cu17     1.0000 0.47610  0.50988  0.18041  Biso   1.000  Cu
  Cu18     1.0000 0.49012  0.96623  0.18041  Biso   1.000  Cu
  Cu19     1.0000 0.39316  0.20137  0.51895  Biso   1.000  Cu
  Cu20     1.0000 0.79863  0.19179  0.51895  Biso   1.000  Cu
  Cu21     1.0000 0.80821  0.60684  0.51895  Biso   1.000  Cu
  Cu22     1.0000 0.05983  0.53470  0.85228  Biso   1.000  Cu
  Cu23     1.0000 0.46530  0.52512  0.85228  Biso   1.000  Cu
  Cu24     1.0000 0.47488  0.94017  0.85228  Biso   1.000  Cu
  Cu25     1.0000 0.72649  0.86804  0.18562  Biso   1.000  Cu
  Cu26     1.0000 0.13196  0.85846  0.18562  Biso   1.000  Cu
  Cu27     1.0000 0.14154  0.27351  0.18562  Biso   1.000  Cu
  Cu28     1.0000 0.60684  0.79863  0.48105  Biso   1.000  Cu
  Cu29     1.0000 0.20137  0.80821  0.48105  Biso   1.000  Cu
  Cu30     1.0000 0.19179  0.39316  0.48105  Biso   1.000  Cu
  Cu31     1.0000 0.27351  0.13196  0.81438  Biso   1.000  Cu
  Cu32     1.0000 0.86804  0.14154  0.81438  Biso   1.000  Cu
  Cu33     1.0000 0.85846  0.72649  0.81438  Biso   1.000  Cu
  Cu34     1.0000 0.94017  0.46530  0.14772  Biso   1.000  Cu
  Cu35     1.0000 0.53470  0.47488  0.14772  Biso   1.000  Cu
  Cu36     1.0000 0.52512  0.05983  0.14772  Biso   1.000  Cu
  O1       1.0000 0.35038  0.14045  0.51026  Biso   1.000  O
  O2       1.0000 0.85955  0.20993  0.51026  Biso   1.000  O
  O3       1.0000 0.79007  0.64962  0.51026  Biso   1.000  O
  O4       1.0000 0.01705  0.47378  0.84359  Biso   1.000  O
  O5       1.0000 0.52622  0.54326  0.84359  Biso   1.000  O
  O6       1.0000 0.45674  0.98295  0.84359  Biso   1.000  O
  O7       1.0000 0.68371  0.80712  0.17693  Biso   1.000  O
  O8       1.0000 0.19288  0.87660  0.17693  Biso   1.000  O
  O9       1.0000 0.12340  0.31629  0.17693  Biso   1.000  O
  O10      1.0000 0.64962  0.85955  0.48974  Biso   1.000  O
  O11      1.0000 0.14045  0.79007  0.48974  Biso   1.000  O
  O12      1.0000 0.20993  0.35038  0.48974  Biso   1.000  O
  O13      1.0000 0.31629  0.19288  0.82307  Biso   1.000  O
  O14      1.0000 0.80712  0.12340  0.82307  Biso   1.000  O
  O15      1.0000 0.87660  0.68371  0.82307  Biso   1.000  O
  O16      1.0000 0.98295  0.52622  0.15641  Biso   1.000  O
  O17      1.0000 0.47378  0.45674  0.15641  Biso   1.000  O
  O18      1.0000 0.54326  0.01705  0.15641  Biso   1.000  O
  N1       1.0000 0.26681  0.08241  0.47590  Biso   1.000  N
  N2       1.0000 0.91759  0.18440  0.47590  Biso   1.000  N
  N3       1.0000 0.81560  0.73319  0.47590  Biso   1.000  N
  N4       1.0000 0.93348  0.41574  0.80923  Biso   1.000  N
  N5       1.0000 0.58426  0.51773  0.80923  Biso   1.000  N
  N6       1.0000 0.48227  0.06652  0.80923  Biso   1.000  N
  N7       1.0000 0.60014  0.74908  0.14257  Biso   1.000  N
  N8       1.0000 0.25092  0.85107  0.14257  Biso   1.000  N
  N9       1.0000 0.14893  0.39986  0.14257  Biso   1.000  N
  N10      1.0000 0.73319  0.91759  0.52410  Biso   1.000  N
  N11      1.0000 0.08241  0.81560  0.52410  Biso   1.000  N
  N12      1.0000 0.18440  0.26681  0.52410  Biso   1.000  N
  N13      1.0000 0.39986  0.25092  0.85743  Biso   1.000  N
  N14      1.0000 0.74908  0.14893  0.85743  Biso   1.000  N
  N15      1.0000 0.85107  0.60014  0.85743  Biso   1.000  N
  N16      1.0000 0.06652  0.58426  0.19077  Biso   1.000  N
  N17      1.0000 0.41574  0.48227  0.19077  Biso   1.000  N
  N18      1.0000 0.51773  0.93348  0.19077  Biso   1.000  N
  N19      1.0000 0.43769  0.18923  0.53580  Biso   1.000  N
  N20      1.0000 0.81077  0.24846  0.53580  Biso   1.000  N
  N21      1.0000 0.75154  0.56231  0.53580  Biso   1.000  N
  N22      1.0000 0.10436  0.52256  0.86913  Biso   1.000  N
  N23      1.0000 0.47744  0.58179  0.86913  Biso   1.000  N
  N24      1.0000 0.41821  0.89564  0.86913  Biso   1.000  N
  N25      1.0000 0.77102  0.85590  0.20247  Biso   1.000  N
  N26      1.0000 0.14410  0.91513  0.20247  Biso   1.000  N
  N27      1.0000 0.08487  0.22898  0.20247  Biso   1.000  N
  N28      1.0000 0.56231  0.81077  0.46420  Biso   1.000  N
  N29      1.0000 0.18923  0.75154  0.46420  Biso   1.000  N
  N30      1.0000 0.24846  0.43769  0.46420  Biso   1.000  N
  N31      1.0000 0.22898  0.14410  0.79753  Biso   1.000  N
  N32      1.0000 0.85590  0.08487  0.79753  Biso   1.000  N
  N33      1.0000 0.91513  0.77102  0.79753  Biso   1.000  N
  N34      1.0000 0.89564  0.47744  0.13087  Biso   1.000  N
  N35      1.0000 0.52256  0.41821  0.13087  Biso   1.000  N
  N36      1.0000 0.58179  0.10436  0.13087  Biso   1.000  N
  N37      1.0000 0.26330  0.15674  0.43710  Biso   1.000  N
  N38      1.0000 0.84326  0.10656  0.43710  Biso   1.000  N
  N39      1.0000 0.89344  0.73670  0.43710  Biso   1.000  N
  N40      1.0000 0.92997  0.49007  0.77043  Biso   1.000  N
  N41      1.0000 0.50993  0.43989  0.77043  Biso   1.000  N
  N42      1.0000 0.56011  0.07003  0.77043  Biso   1.000  N
  N43      1.0000 0.59663  0.82341  0.10377  Biso   1.000  N
  N44      1.0000 0.17659  0.77323  0.10377  Biso   1.000  N
  N45      1.0000 0.22677  0.40337  0.10377  Biso   1.000  N
  N46      1.0000 0.73670  0.84326  0.56290  Biso   1.000  N
  N47      1.0000 0.15674  0.89344  0.56290  Biso   1.000  N
  N48      1.0000 0.10656  0.26330  0.56290  Biso   1.000  N
  N49      1.0000 0.40337  0.17659  0.89623  Biso   1.000  N
  N50      1.0000 0.82341  0.22677  0.89623  Biso   1.000  N
  N51      1.0000 0.77323  0.59663  0.89623  Biso   1.000  N
  N52      1.0000 0.07003  0.50993  0.22957  Biso   1.000  N
  N53      1.0000 0.49007  0.56011  0.22957  Biso   1.000  N
  N54      1.0000 0.43989  0.92997  0.22957  Biso   1.000  N
  N55      1.0000 0.24970  0.17860  0.45520  Biso   1.000  N
  N56      1.0000 0.82140  0.07110  0.45520  Biso   1.000  N
  N57      1.0000 0.92890  0.75030  0.45520  Biso   1.000  N
  N58      1.0000 0.91637  0.51193  0.78853  Biso   1.000  N
  N59      1.0000 0.48807  0.40443  0.78853  Biso   1.000  N
  N60      1.0000 0.59557  0.08363  0.78853  Biso   1.000  N
  N61      1.0000 0.58303  0.84527  0.12187  Biso   1.000  N
  N62      1.0000 0.15473  0.73777  0.12187  Biso   1.000  N
  N63      1.0000 0.26223  0.41697  0.12187  Biso   1.000  N
  N64      1.0000 0.75030  0.82140  0.54480  Biso   1.000  N
  N65      1.0000 0.17860  0.92890  0.54480  Biso   1.000  N
  N66      1.0000 0.07110  0.24970  0.54480  Biso   1.000  N
  N67      1.0000 0.41697  0.15473  0.87813  Biso   1.000  N
  N68      1.0000 0.84527  0.26223  0.87813  Biso   1.000  N
  N69      1.0000 0.73777  0.58303  0.87813  Biso   1.000  N
  N70      1.0000 0.08363  0.48807  0.21147  Biso   1.000  N
  N71      1.0000 0.51193  0.59557  0.21147  Biso   1.000  N
  N72      1.0000 0.40443  0.91637  0.21147  Biso   1.000  N
  N73      1.0000 0.23650  0.19850  0.47010  Biso   1.000  N
  N74      1.0000 0.80150  0.03800  0.47010  Biso   1.000  N
  N75      1.0000 0.96200  0.76350  0.47010  Biso   1.000  N
  N76      1.0000 0.90317  0.53183  0.80343  Biso   1.000  N
  N77      1.0000 0.46817  0.37133  0.80343  Biso   1.000  N
  N78      1.0000 0.62867  0.09683  0.80343  Biso   1.000  N
  N79      1.0000 0.56983  0.86517  0.13677  Biso   1.000  N
  N80      1.0000 0.13483  0.70467  0.13677  Biso   1.000  N
  N81      1.0000 0.29533  0.43017  0.13677  Biso   1.000  N
  N82      1.0000 0.76350  0.80150  0.52990  Biso   1.000  N
  N83      1.0000 0.19850  0.96200  0.52990  Biso   1.000  N
  N84      1.0000 0.03800  0.23650  0.52990  Biso   1.000  N
  N85      1.0000 0.43017  0.13483  0.86323  Biso   1.000  N
  N86      1.0000 0.86517  0.29533  0.86323  Biso   1.000  N
  N87      1.0000 0.70467  0.56983  0.86323  Biso   1.000  N
  N88      1.0000 0.09683  0.46817  0.19657  Biso   1.000  N
  N89      1.0000 0.53183  0.62867  0.19657  Biso   1.000  N
  N90      1.0000 0.37133  0.90317  0.19657  Biso   1.000  N
  N91      1.0000 0.42480  0.26030  0.54100  Biso   1.000  N
  N92      1.0000 0.73970  0.16450  0.54100  Biso   1.000  N
  N93      1.0000 0.83550  0.57520  0.54100  Biso   1.000  N
  N94      1.0000 0.09147  0.59363  0.87433  Biso   1.000  N
  N95      1.0000 0.40637  0.49783  0.87433  Biso   1.000  N
  N96      1.0000 0.50217  0.90853  0.87433  Biso   1.000  N
  N97      1.0000 0.75813  0.92697  0.20767  Biso   1.000  N
  N98      1.0000 0.07303  0.83117  0.20767  Biso   1.000  N
  N99      1.0000 0.16883  0.24187  0.20767  Biso   1.000  N
  N100     1.0000 0.57520  0.73970  0.45900  Biso   1.000  N
  N101     1.0000 0.26030  0.83550  0.45900  Biso   1.000  N
  N102     1.0000 0.16450  0.42480  0.45900  Biso   1.000  N
  N103     1.0000 0.24187  0.07303  0.79233  Biso   1.000  N
  N104     1.0000 0.92697  0.16883  0.79233  Biso   1.000  N
  N105     1.0000 0.83117  0.75813  0.79233  Biso   1.000  N
  N106     1.0000 0.90853  0.40637  0.12567  Biso   1.000  N
  N107     1.0000 0.59363  0.50217  0.12567  Biso   1.000  N
  N108     1.0000 0.49783  0.09147  0.12567  Biso   1.000  N
  N109     1.0000 0.43480  0.29060  0.51090  Biso   1.000  N
  N110     1.0000 0.70940  0.14420  0.51090  Biso   1.000  N
  N111     1.0000 0.85580  0.56520  0.51090  Biso   1.000  N
  N112     1.0000 0.10147  0.62393  0.84423  Biso   1.000  N
  N113     1.0000 0.37607  0.47753  0.84423  Biso   1.000  N
  N114     1.0000 0.52247  0.89853  0.84423  Biso   1.000  N
  N115     1.0000 0.76813  0.95727  0.17757  Biso   1.000  N
  N116     1.0000 0.04273  0.81087  0.17757  Biso   1.000  N
  N117     1.0000 0.18913  0.23187  0.17757  Biso   1.000  N
  N118     1.0000 0.56520  0.70940  0.48910  Biso   1.000  N
  N119     1.0000 0.29060  0.85580  0.48910  Biso   1.000  N
  N120     1.0000 0.14420  0.43480  0.48910  Biso   1.000  N
  N121     1.0000 0.23187  0.04273  0.82243  Biso   1.000  N
  N122     1.0000 0.95727  0.18913  0.82243  Biso   1.000  N
  N123     1.0000 0.81087  0.76813  0.82243  Biso   1.000  N
  N124     1.0000 0.89853  0.37607  0.15577  Biso   1.000  N
  N125     1.0000 0.62393  0.52247  0.15577  Biso   1.000  N
  N126     1.0000 0.47753  0.10147  0.15577  Biso   1.000  N
  N127     1.0000 0.44590  0.32140  0.48560  Biso   1.000  N
  N128     1.0000 0.67860  0.12450  0.48560  Biso   1.000  N
  N129     1.0000 0.87550  0.55410  0.48560  Biso   1.000  N
  N130     1.0000 0.11257  0.65473  0.81893  Biso   1.000  N
  N131     1.0000 0.34527  0.45783  0.81893  Biso   1.000  N
  N132     1.0000 0.54217  0.88743  0.81893  Biso   1.000  N
  N133     1.0000 0.77923  0.98807  0.15227  Biso   1.000  N
  N134     1.0000 0.01193  0.79117  0.15227  Biso   1.000  N
  N135     1.0000 0.20883  0.22077  0.15227  Biso   1.000  N
  N136     1.0000 0.55410  0.67860  0.51440  Biso   1.000  N
  N137     1.0000 0.32140  0.87550  0.51440  Biso   1.000  N
  N138     1.0000 0.12450  0.44590  0.51440  Biso   1.000  N
  N139     1.0000 0.22077  0.01193  0.84773  Biso   1.000  N
  N140     1.0000 0.98807  0.20883  0.84773  Biso   1.000  N
  N141     1.0000 0.79117  0.77923  0.84773  Biso   1.000  N
  N142     1.0000 0.88743  0.34527  0.18107  Biso   1.000  N
  N143     1.0000 0.65473  0.54217  0.18107  Biso   1.000  N
  N144     1.0000 0.45783  0.11257  0.18107  Biso   1.000  N
  N145     1.0000 0.34021  0.20071  0.50500  Biso   1.000  N
  N146     1.0000 0.79929  0.13950  0.50500  Biso   1.000  N
  N147     1.0000 0.86050  0.65979  0.50500  Biso   1.000  N
  N148     1.0000 0.00688  0.53404  0.83833  Biso   1.000  N
  N149     1.0000 0.46596  0.47283  0.83833  Biso   1.000  N
  N150     1.0000 0.52717  0.99312  0.83833  Biso   1.000  N
  N151     1.0000 0.67354  0.86738  0.17167  Biso   1.000  N
  N152     1.0000 0.13262  0.80617  0.17167  Biso   1.000  N
  N153     1.0000 0.19383  0.32646  0.17167  Biso   1.000  N
  N154     1.0000 0.65979  0.79929  0.49500  Biso   1.000  N
  N155     1.0000 0.20071  0.86050  0.49500  Biso   1.000  N
  N156     1.0000 0.13950  0.34021  0.49500  Biso   1.000  N
  N157     1.0000 0.32646  0.13262  0.82833  Biso   1.000  N
  N158     1.0000 0.86738  0.19383  0.82833  Biso   1.000  N
  N159     1.0000 0.80617  0.67354  0.82833  Biso   1.000  N
  N160     1.0000 0.99312  0.46596  0.16167  Biso   1.000  N
  N161     1.0000 0.53404  0.52717  0.16167  Biso   1.000  N
  N162     1.0000 0.47283  0.00688  0.16167  Biso   1.000  N
  N163     1.0000 0.33851  0.23170  0.49200  Biso   1.000  N
  N164     1.0000 0.76830  0.10681  0.49200  Biso   1.000  N
  N165     1.0000 0.89319  0.66149  0.49200  Biso   1.000  N
  N166     1.0000 0.00518  0.56503  0.82533  Biso   1.000  N
  N167     1.0000 0.43497  0.44014  0.82533  Biso   1.000  N
  N168     1.0000 0.55986  0.99482  0.82533  Biso   1.000  N
  N169     1.0000 0.67184  0.89837  0.15867  Biso   1.000  N
  N170     1.0000 0.10163  0.77348  0.15867  Biso   1.000  N
  N171     1.0000 0.22652  0.32816  0.15867  Biso   1.000  N
  N172     1.0000 0.66149  0.76830  0.50800  Biso   1.000  N
  N173     1.0000 0.23170  0.89319  0.50800  Biso   1.000  N
  N174     1.0000 0.10681  0.33851  0.50800  Biso   1.000  N
  N175     1.0000 0.32816  0.10163  0.84133  Biso   1.000  N
  N176     1.0000 0.89837  0.22652  0.84133  Biso   1.000  N
  N177     1.0000 0.77348  0.67184  0.84133  Biso   1.000  N
  N178     1.0000 0.99482  0.43497  0.17467  Biso   1.000  N
  N179     1.0000 0.56503  0.55986  0.17467  Biso   1.000  N
  N180     1.0000 0.44014  0.00518  0.17467  Biso   1.000  N
  N181     1.0000 0.33730  0.26070  0.48060  Biso   1.000  N
  N182     1.0000 0.73930  0.07660  0.48060  Biso   1.000  N
  N183     1.0000 0.92340  0.66270  0.48060  Biso   1.000  N
  N184     1.0000 0.00397  0.59403  0.81393  Biso   1.000  N
  N185     1.0000 0.40597  0.40993  0.81393  Biso   1.000  N
  N186     1.0000 0.59007  0.99603  0.81393  Biso   1.000  N
  N187     1.0000 0.67063  0.92737  0.14727  Biso   1.000  N
  N188     1.0000 0.07263  0.74327  0.14727  Biso   1.000  N
  N189     1.0000 0.25673  0.32937  0.14727  Biso   1.000  N
  N190     1.0000 0.66270  0.73930  0.51940  Biso   1.000  N
  N191     1.0000 0.26070  0.92340  0.51940  Biso   1.000  N
  N192     1.0000 0.07660  0.33730  0.51940  Biso   1.000  N
  N193     1.0000 0.32937  0.07263  0.85273  Biso   1.000  N
  N194     1.0000 0.92737  0.25673  0.85273  Biso   1.000  N
  N195     1.0000 0.74327  0.67063  0.85273  Biso   1.000  N
  N196     1.0000 0.99603  0.40597  0.18607  Biso   1.000  N
  N197     1.0000 0.59403  0.59007  0.18607  Biso   1.000  N
  N198     1.0000 0.40993  0.00397  0.18607  Biso   1.000  N
  C1       1.0000 0.35650  0.10817  0.51300  Biso   1.000  C
  C2       1.0000 0.89183  0.24833  0.51300  Biso   1.000  C
  C3       1.0000 0.75167  0.64350  0.51300  Biso   1.000  C
  C4       1.0000 0.02317  0.44150  0.84633  Biso   1.000  C
  C5       1.0000 0.55850  0.58166  0.84633  Biso   1.000  C
  C6       1.0000 0.41834  0.97683  0.84633  Biso   1.000  C
  C7       1.0000 0.68983  0.77484  0.17967  Biso   1.000  C
  C8       1.0000 0.22516  0.91500  0.17967  Biso   1.000  C
  C9       1.0000 0.08500  0.31017  0.17967  Biso   1.000  C
  C10      1.0000 0.64350  0.89183  0.48700  Biso   1.000  C
  C11      1.0000 0.10817  0.75167  0.48700  Biso   1.000  C
  C12      1.0000 0.24833  0.35650  0.48700  Biso   1.000  C
  C13      1.0000 0.31017  0.22516  0.82033  Biso   1.000  C
  C14      1.0000 0.77484  0.08500  0.82033  Biso   1.000  C
  C15      1.0000 0.91500  0.68983  0.82033  Biso   1.000  C
  C16      1.0000 0.97683  0.55850  0.15367  Biso   1.000  C
  C17      1.0000 0.44150  0.41834  0.15367  Biso   1.000  C
  C18      1.0000 0.58166  0.02317  0.15367  Biso   1.000  C
  C19      1.0000 0.32260  0.06721  0.50250  Biso   1.000  C
  C20      1.0000 0.93279  0.25539  0.50250  Biso   1.000  C
  C21      1.0000 0.74461  0.67740  0.50250  Biso   1.000  C
  C22      1.0000 0.98927  0.40054  0.83583  Biso   1.000  C
  C23      1.0000 0.59946  0.58872  0.83583  Biso   1.000  C
  C24      1.0000 0.41128  0.01073  0.83583  Biso   1.000  C
  C25      1.0000 0.65593  0.73388  0.16917  Biso   1.000  C
  C26      1.0000 0.26612  0.92206  0.16917  Biso   1.000  C
  C27      1.0000 0.07794  0.34407  0.16917  Biso   1.000  C
  C28      1.0000 0.67740  0.93279  0.49750  Biso   1.000  C
  C29      1.0000 0.06721  0.74461  0.49750  Biso   1.000  C
  C30      1.0000 0.25539  0.32260  0.49750  Biso   1.000  C
  C31      1.0000 0.34407  0.26612  0.83083  Biso   1.000  C
  C32      1.0000 0.73388  0.07794  0.83083  Biso   1.000  C
  C33      1.0000 0.92206  0.65593  0.83083  Biso   1.000  C
  C34      1.0000 0.01073  0.59946  0.16417  Biso   1.000  C
  C35      1.0000 0.40054  0.41128  0.16417  Biso   1.000  C
  C36      1.0000 0.58872  0.98927  0.16417  Biso   1.000  C
  C37      1.0000 0.32930  0.03300  0.50750  Biso   1.000  C
  C38      1.0000 0.96700  0.29630  0.50750  Biso   1.000  C
  C39      1.0000 0.70370  0.67070  0.50750  Biso   1.000  C
  C40      1.0000 0.99597  0.36633  0.84083  Biso   1.000  C
  C41      1.0000 0.63367  0.62963  0.84083  Biso   1.000  C
  C42      1.0000 0.37037  0.00403  0.84083  Biso   1.000  C
  C43      1.0000 0.66263  0.69967  0.17417  Biso   1.000  C
  C44      1.0000 0.30033  0.96297  0.17417  Biso   1.000  C
  C45      1.0000 0.03703  0.33737  0.17417  Biso   1.000  C
  C46      1.0000 0.67070  0.96700  0.49250  Biso   1.000  C
  C47      1.0000 0.03300  0.70370  0.49250  Biso   1.000  C
  C48      1.0000 0.29630  0.32930  0.49250  Biso   1.000  C
  C49      1.0000 0.33737  0.30033  0.82583  Biso   1.000  C
  C50      1.0000 0.69967  0.03703  0.82583  Biso   1.000  C
  C51      1.0000 0.96297  0.66263  0.82583  Biso   1.000  C
  C52      1.0000 0.00403  0.63367  0.15917  Biso   1.000  C
  C53      1.0000 0.36633  0.37037  0.15917  Biso   1.000  C
  C54      1.0000 0.62963  0.99597  0.15917  Biso   1.000  C
  H1       1.0000 0.30690  0.00630  0.50150  Biso   1.000  H
  H2       1.0000 0.99370  0.30060  0.50150  Biso   1.000  H
  H3       1.0000 0.69940  0.69310  0.50150  Biso   1.000  H
  H4       1.0000 0.97357  0.33963  0.83483  Biso   1.000  H
  H5       1.0000 0.66037  0.63393  0.83483  Biso   1.000  H
  H6       1.0000 0.36607  0.02643  0.83483  Biso   1.000  H
  H7       1.0000 0.64023  0.67297  0.16817  Biso   1.000  H
  H8       1.0000 0.32703  0.96727  0.16817  Biso   1.000  H
  H9       1.0000 0.03273  0.35977  0.16817  Biso   1.000  H
  H10      1.0000 0.69310  0.99370  0.49850  Biso   1.000  H
  H11      1.0000 0.00630  0.69940  0.49850  Biso   1.000  H
  H12      1.0000 0.30060  0.30690  0.49850  Biso   1.000  H
  H13      1.0000 0.35977  0.32703  0.83183  Biso   1.000  H
  H14      1.0000 0.67297  0.03273  0.83183  Biso   1.000  H
  H15      1.0000 0.96727  0.64023  0.83183  Biso   1.000  H
  H16      1.0000 0.02643  0.66037  0.16517  Biso   1.000  H
  H17      1.0000 0.33963  0.36607  0.16517  Biso   1.000  H
  H18      1.0000 0.63393  0.97357  0.16517  Biso   1.000  H
  C55      1.0000 0.36790  0.03750  0.52080  Biso   1.000  C
  C56      1.0000 0.96250  0.33040  0.52080  Biso   1.000  C
  C57      1.0000 0.66960  0.63210  0.52080  Biso   1.000  C
  C58      1.0000 0.03457  0.37083  0.85413  Biso   1.000  C
  C59      1.0000 0.62917  0.66373  0.85413  Biso   1.000  C
  C60      1.0000 0.33627  0.96543  0.85413  Biso   1.000  C
  C61      1.0000 0.70123  0.70417  0.18747  Biso   1.000  C
  C62      1.0000 0.29583  0.99707  0.18747  Biso   1.000  C
  C63      1.0000 0.00293  0.29877  0.18747  Biso   1.000  C
  C64      1.0000 0.63210  0.96250  0.47920  Biso   1.000  C
  C65      1.0000 0.03750  0.66960  0.47920  Biso   1.000  C
  C66      1.0000 0.33040  0.36790  0.47920  Biso   1.000  C
  C67      1.0000 0.29877  0.29583  0.81253  Biso   1.000  C
  C68      1.0000 0.70417  0.00293  0.81253  Biso   1.000  C
  C69      1.0000 0.99707  0.70123  0.81253  Biso   1.000  C
  C70      1.0000 0.96543  0.62917  0.14587  Biso   1.000  C
  C71      1.0000 0.37083  0.33627  0.14587  Biso   1.000  C
  C72      1.0000 0.66373  0.03457  0.14587  Biso   1.000  C
  C73      1.0000 0.37420  0.00010  0.52380  Biso   1.000  C
  C74      1.0000 0.99990  0.37410  0.52380  Biso   1.000  C
  C75      1.0000 0.62590  0.62580  0.52380  Biso   1.000  C
  C76      1.0000 0.04087  0.33343  0.85713  Biso   1.000  C
  C77      1.0000 0.66657  0.70743  0.85713  Biso   1.000  C
  C78      1.0000 0.29257  0.95913  0.85713  Biso   1.000  C
  C79      1.0000 0.70753  0.66677  0.19047  Biso   1.000  C
  C80      1.0000 0.33323  0.04077  0.19047  Biso   1.000  C
  C81      1.0000 0.95923  0.29247  0.19047  Biso   1.000  C
  C82      1.0000 0.62580  0.99990  0.47620  Biso   1.000  C
  C83      1.0000 0.00010  0.62590  0.47620  Biso   1.000  C
  C84      1.0000 0.37410  0.37420  0.47620  Biso   1.000  C
  C85      1.0000 0.29247  0.33323  0.80953  Biso   1.000  C
  C86      1.0000 0.66677  0.95923  0.80953  Biso   1.000  C
  C87      1.0000 0.04077  0.70753  0.80953  Biso   1.000  C
  C88      1.0000 0.95913  0.66657  0.14287  Biso   1.000  C
  C89      1.0000 0.33343  0.29257  0.14287  Biso   1.000  C
  C90      1.0000 0.70743  0.04087  0.14287  Biso   1.000  C
  H19      1.0000 0.39210  0.00160  0.49100  Biso   1.000  H
  H20      1.0000 0.99840  0.39050  0.49100  Biso   1.000  H
  H21      1.0000 0.60950  0.60790  0.49100  Biso   1.000  H
  H22      1.0000 0.05877  0.33493  0.82433  Biso   1.000  H
  H23      1.0000 0.66507  0.72383  0.82433  Biso   1.000  H
  H24      1.0000 0.27617  0.94123  0.82433  Biso   1.000  H
  H25      1.0000 0.72543  0.66827  0.15767  Biso   1.000  H
  H26      1.0000 0.33173  0.05717  0.15767  Biso   1.000  H
  H27      1.0000 0.94283  0.27457  0.15767  Biso   1.000  H
  H28      1.0000 0.60790  0.99840  0.50900  Biso   1.000  H
  H29      1.0000 0.00160  0.60950  0.50900  Biso   1.000  H
  H30      1.0000 0.39050  0.39210  0.50900  Biso   1.000  H
  H31      1.0000 0.27457  0.33173  0.84233  Biso   1.000  H
  H32      1.0000 0.66827  0.94283  0.84233  Biso   1.000  H
  H33      1.0000 0.05717  0.72543  0.84233  Biso   1.000  H
  H34      1.0000 0.94123  0.66507  0.17567  Biso   1.000  H
  H35      1.0000 0.33493  0.27617  0.17567  Biso   1.000  H
  H36      1.0000 0.72383  0.05877  0.17567  Biso   1.000  H
  H37      1.0000 0.34780  0.97490  0.52010  Biso   1.000  H
  H38      1.0000 0.02510  0.37290  0.52010  Biso   1.000  H
  H39      1.0000 0.62710  0.65220  0.52010  Biso   1.000  H
  H40      1.0000 0.01447  0.30823  0.85343  Biso   1.000  H
  H41      1.0000 0.69177  0.70623  0.85343  Biso   1.000  H
  H42      1.0000 0.29377  0.98553  0.85343  Biso   1.000  H
  H43      1.0000 0.68113  0.64157  0.18677  Biso   1.000  H
  H44      1.0000 0.35843  0.03957  0.18677  Biso   1.000  H
  H45      1.0000 0.96043  0.31887  0.18677  Biso   1.000  H
  H46      1.0000 0.65220  0.02510  0.47990  Biso   1.000  H
  H47      1.0000 0.97490  0.62710  0.47990  Biso   1.000  H
  H48      1.0000 0.37290  0.34780  0.47990  Biso   1.000  H
  H49      1.0000 0.31887  0.35843  0.81323  Biso   1.000  H
  H50      1.0000 0.64157  0.96043  0.81323  Biso   1.000  H
  H51      1.0000 0.03957  0.68113  0.81323  Biso   1.000  H
  H52      1.0000 0.98553  0.69177  0.14657  Biso   1.000  H
  H53      1.0000 0.30823  0.29377  0.14657  Biso   1.000  H
  H54      1.0000 0.70623  0.01447  0.14657  Biso   1.000  H
  H55      1.0000 0.38680  0.00010  0.56210  Biso   1.000  H
  H56      1.0000 0.99990  0.38670  0.56210  Biso   1.000  H
  H57      1.0000 0.61330  0.61320  0.56210  Biso   1.000  H
  H58      1.0000 0.05347  0.33343  0.89543  Biso   1.000  H
  H59      1.0000 0.66657  0.72003  0.89543  Biso   1.000  H
  H60      1.0000 0.27997  0.94653  0.89543  Biso   1.000  H
  H61      1.0000 0.72013  0.66677  0.22877  Biso   1.000  H
  H62      1.0000 0.33323  0.05337  0.22877  Biso   1.000  H
  H63      1.0000 0.94663  0.27987  0.22877  Biso   1.000  H
  H64      1.0000 0.61320  0.99990  0.43790  Biso   1.000  H
  H65      1.0000 0.00010  0.61330  0.43790  Biso   1.000  H
  H66      1.0000 0.38670  0.38680  0.43790  Biso   1.000  H
  H67      1.0000 0.27987  0.33323  0.77123  Biso   1.000  H
  H68      1.0000 0.66677  0.94663  0.77123  Biso   1.000  H
  H69      1.0000 0.05337  0.72013  0.77123  Biso   1.000  H
  H70      1.0000 0.94653  0.66657  0.10457  Biso   1.000  H
  H71      1.0000 0.33343  0.27997  0.10457  Biso   1.000  H
  H72      1.0000 0.72003  0.05347  0.10457  Biso   1.000  H
  C91      1.0000 0.39970  0.07760  0.52960  Biso   1.000  C
  C92      1.0000 0.92240  0.32210  0.52960  Biso   1.000  C
  C93      1.0000 0.67790  0.60030  0.52960  Biso   1.000  C
  C94      1.0000 0.06637  0.41093  0.86293  Biso   1.000  C
  C95      1.0000 0.58907  0.65543  0.86293  Biso   1.000  C
  C96      1.0000 0.34457  0.93363  0.86293  Biso   1.000  C
  C97      1.0000 0.73303  0.74427  0.19627  Biso   1.000  C
  C98      1.0000 0.25573  0.98877  0.19627  Biso   1.000  C
  C99      1.0000 0.01123  0.26697  0.19627  Biso   1.000  C
  C100     1.0000 0.60030  0.92240  0.47040  Biso   1.000  C
  C101     1.0000 0.07760  0.67790  0.47040  Biso   1.000  C
  C102     1.0000 0.32210  0.39970  0.47040  Biso   1.000  C
  C103     1.0000 0.26697  0.25573  0.80373  Biso   1.000  C
  C104     1.0000 0.74427  0.01123  0.80373  Biso   1.000  C
  C105     1.0000 0.98877  0.73303  0.80373  Biso   1.000  C
  C106     1.0000 0.93363  0.58907  0.13707  Biso   1.000  C
  C107     1.0000 0.41093  0.34457  0.13707  Biso   1.000  C
  C108     1.0000 0.65543  0.06637  0.13707  Biso   1.000  C
  H73      1.0000 0.42600  0.08130  0.53840  Biso   1.000  H
  H74      1.0000 0.91870  0.34470  0.53840  Biso   1.000  H
  H75      1.0000 0.65530  0.57400  0.53840  Biso   1.000  H
  H76      1.0000 0.09267  0.41463  0.87173  Biso   1.000  H
  H77      1.0000 0.58537  0.67803  0.87173  Biso   1.000  H
  H78      1.0000 0.32197  0.90733  0.87173  Biso   1.000  H
  H79      1.0000 0.75933  0.74797  0.20507  Biso   1.000  H
  H80      1.0000 0.25203  0.01137  0.20507  Biso   1.000  H
  H81      1.0000 0.98863  0.24067  0.20507  Biso   1.000  H
  H82      1.0000 0.57400  0.91870  0.46160  Biso   1.000  H
  H83      1.0000 0.08130  0.65530  0.46160  Biso   1.000  H
  H84      1.0000 0.34470  0.42600  0.46160  Biso   1.000  H
  H85      1.0000 0.24067  0.25203  0.79493  Biso   1.000  H
  H86      1.0000 0.74797  0.98863  0.79493  Biso   1.000  H
  H87      1.0000 0.01137  0.75933  0.79493  Biso   1.000  H
  H88      1.0000 0.90733  0.58537  0.12827  Biso   1.000  H
  H89      1.0000 0.41463  0.32197  0.12827  Biso   1.000  H
  H90      1.0000 0.67803  0.09267  0.12827  Biso   1.000  H
  C109     1.0000 0.39600  0.11292  0.52650  Biso   1.000  C
  C110     1.0000 0.88708  0.28308  0.52650  Biso   1.000  C
  C111     1.0000 0.71692  0.60400  0.52650  Biso   1.000  C
  C112     1.0000 0.06267  0.44625  0.85983  Biso   1.000  C
  C113     1.0000 0.55375  0.61641  0.85983  Biso   1.000  C
  C114     1.0000 0.38359  0.93733  0.85983  Biso   1.000  C
  C115     1.0000 0.72933  0.77959  0.19317  Biso   1.000  C
  C116     1.0000 0.22041  0.94975  0.19317  Biso   1.000  C
  C117     1.0000 0.05025  0.27067  0.19317  Biso   1.000  C
  C118     1.0000 0.60400  0.88708  0.47350  Biso   1.000  C
  C119     1.0000 0.11292  0.71692  0.47350  Biso   1.000  C
  C120     1.0000 0.28308  0.39600  0.47350  Biso   1.000  C
  C121     1.0000 0.27067  0.22041  0.80683  Biso   1.000  C
  C122     1.0000 0.77959  0.05025  0.80683  Biso   1.000  C
  C123     1.0000 0.94975  0.72933  0.80683  Biso   1.000  C
  C124     1.0000 0.93733  0.55375  0.14017  Biso   1.000  C
  C125     1.0000 0.44625  0.38359  0.14017  Biso   1.000  C
  C126     1.0000 0.61641  0.06267  0.14017  Biso   1.000  C
  C127     1.0000 0.43330  0.15260  0.53840  Biso   1.000  C
  C128     1.0000 0.84740  0.28070  0.53840  Biso   1.000  C
  C129     1.0000 0.71930  0.56670  0.53840  Biso   1.000  C
  C130     1.0000 0.09997  0.48593  0.87173  Biso   1.000  C
  C131     1.0000 0.51407  0.61403  0.87173  Biso   1.000  C
  C132     1.0000 0.38597  0.90003  0.87173  Biso   1.000  C
  C133     1.0000 0.76663  0.81927  0.20507  Biso   1.000  C
  C134     1.0000 0.18073  0.94737  0.20507  Biso   1.000  C
  C135     1.0000 0.05263  0.23337  0.20507  Biso   1.000  C
  C136     1.0000 0.56670  0.84740  0.46160  Biso   1.000  C
  C137     1.0000 0.15260  0.71930  0.46160  Biso   1.000  C
  C138     1.0000 0.28070  0.43330  0.46160  Biso   1.000  C
  C139     1.0000 0.23337  0.18073  0.79493  Biso   1.000  C
  C140     1.0000 0.81927  0.05263  0.79493  Biso   1.000  C
  C141     1.0000 0.94737  0.76663  0.79493  Biso   1.000  C
  C142     1.0000 0.90003  0.51407  0.12827  Biso   1.000  C
  C143     1.0000 0.48593  0.38597  0.12827  Biso   1.000  C
  C144     1.0000 0.61403  0.09997  0.12827  Biso   1.000  C
  H91      1.0000 0.45700  0.15140  0.54910  Biso   1.000  H
  H92      1.0000 0.84860  0.30560  0.54910  Biso   1.000  H
  H93      1.0000 0.69440  0.54300  0.54910  Biso   1.000  H
  H94      1.0000 0.12367  0.48473  0.88243  Biso   1.000  H
  H95      1.0000 0.51527  0.63893  0.88243  Biso   1.000  H
  H96      1.0000 0.36107  0.87633  0.88243  Biso   1.000  H
  H97      1.0000 0.79033  0.81807  0.21577  Biso   1.000  H
  H98      1.0000 0.18193  0.97227  0.21577  Biso   1.000  H
  H99      1.0000 0.02773  0.20967  0.21577  Biso   1.000  H
  H100     1.0000 0.54300  0.84860  0.45090  Biso   1.000  H
  H101     1.0000 0.15140  0.69440  0.45090  Biso   1.000  H
  H102     1.0000 0.30560  0.45700  0.45090  Biso   1.000  H
  H103     1.0000 0.20967  0.18193  0.78423  Biso   1.000  H
  H104     1.0000 0.81807  0.02773  0.78423  Biso   1.000  H
  H105     1.0000 0.97227  0.79033  0.78423  Biso   1.000  H
  H106     1.0000 0.87633  0.51527  0.11757  Biso   1.000  H
  H107     1.0000 0.48473  0.36107  0.11757  Biso   1.000  H
  H108     1.0000 0.63893  0.12367  0.11757  Biso   1.000  H
  C145     1.0000 0.28110  0.05750  0.48640  Biso   1.000  C
  C146     1.0000 0.94250  0.22360  0.48640  Biso   1.000  C
  C147     1.0000 0.77640  0.71890  0.48640  Biso   1.000  C
  C148     1.0000 0.94777  0.39083  0.81973  Biso   1.000  C
  C149     1.0000 0.60917  0.55693  0.81973  Biso   1.000  C
  C150     1.0000 0.44307  0.05223  0.81973  Biso   1.000  C
  C151     1.0000 0.61443  0.72417  0.15307  Biso   1.000  C
  C152     1.0000 0.27583  0.89027  0.15307  Biso   1.000  C
  C153     1.0000 0.10973  0.38557  0.15307  Biso   1.000  C
  C154     1.0000 0.71890  0.94250  0.51360  Biso   1.000  C
  C155     1.0000 0.05750  0.77640  0.51360  Biso   1.000  C
  C156     1.0000 0.22360  0.28110  0.51360  Biso   1.000  C
  C157     1.0000 0.38557  0.27583  0.84693  Biso   1.000  C
  C158     1.0000 0.72417  0.10973  0.84693  Biso   1.000  C
  C159     1.0000 0.89027  0.61443  0.84693  Biso   1.000  C
  C160     1.0000 0.05223  0.60917  0.18027  Biso   1.000  C
  C161     1.0000 0.39083  0.44307  0.18027  Biso   1.000  C
  C162     1.0000 0.55693  0.94777  0.18027  Biso   1.000  C
  H109     1.0000 0.26180  0.02930  0.48290  Biso   1.000  H
  H110     1.0000 0.97070  0.23250  0.48290  Biso   1.000  H
  H111     1.0000 0.76750  0.73820  0.48290  Biso   1.000  H
  H112     1.0000 0.92847  0.36263  0.81623  Biso   1.000  H
  H113     1.0000 0.63737  0.56583  0.81623  Biso   1.000  H
  H114     1.0000 0.43417  0.07153  0.81623  Biso   1.000  H
  H115     1.0000 0.59513  0.69597  0.14957  Biso   1.000  H
  H116     1.0000 0.30403  0.89917  0.14957  Biso   1.000  H
  H117     1.0000 0.10083  0.40487  0.14957  Biso   1.000  H
  H118     1.0000 0.73820  0.97070  0.51710  Biso   1.000  H
  H119     1.0000 0.02930  0.76750  0.51710  Biso   1.000  H
  H120     1.0000 0.23250  0.26180  0.51710  Biso   1.000  H
  H121     1.0000 0.40487  0.30403  0.85043  Biso   1.000  H
  H122     1.0000 0.69597  0.10083  0.85043  Biso   1.000  H
  H123     1.0000 0.89917  0.59513  0.85043  Biso   1.000  H
  H124     1.0000 0.07153  0.63737  0.18377  Biso   1.000  H
  H125     1.0000 0.36263  0.43417  0.18377  Biso   1.000  H
  H126     1.0000 0.56583  0.92847  0.18377  Biso   1.000  H
  C163     1.0000 0.22230  0.06250  0.46020  Biso   1.000  C
  C164     1.0000 0.93750  0.15980  0.46020  Biso   1.000  C
  C165     1.0000 0.84020  0.77770  0.46020  Biso   1.000  C
  C166     1.0000 0.88897  0.39583  0.79353  Biso   1.000  C
  C167     1.0000 0.60417  0.49313  0.79353  Biso   1.000  C
  C168     1.0000 0.50687  0.11103  0.79353  Biso   1.000  C
  C169     1.0000 0.55563  0.72917  0.12687  Biso   1.000  C
  C170     1.0000 0.27083  0.82647  0.12687  Biso   1.000  C
  C171     1.0000 0.17353  0.44437  0.12687  Biso   1.000  C
  C172     1.0000 0.77770  0.93750  0.53980  Biso   1.000  C
  C173     1.0000 0.06250  0.84020  0.53980  Biso   1.000  C
  C174     1.0000 0.15980  0.22230  0.53980  Biso   1.000  C
  C175     1.0000 0.44437  0.27083  0.87313  Biso   1.000  C
  C176     1.0000 0.72917  0.17353  0.87313  Biso   1.000  C
  C177     1.0000 0.82647  0.55563  0.87313  Biso   1.000  C
  C178     1.0000 0.11103  0.60417  0.20647  Biso   1.000  C
  C179     1.0000 0.39583  0.50687  0.20647  Biso   1.000  C
  C180     1.0000 0.49313  0.88897  0.20647  Biso   1.000  C
  H127     1.0000 0.21460  0.03720  0.43730  Biso   1.000  H
  H128     1.0000 0.96280  0.17740  0.43730  Biso   1.000  H
  H129     1.0000 0.82260  0.78540  0.43730  Biso   1.000  H
  H130     1.0000 0.88127  0.37053  0.77063  Biso   1.000  H
  H131     1.0000 0.62947  0.51073  0.77063  Biso   1.000  H
  H132     1.0000 0.48927  0.11873  0.77063  Biso   1.000  H
  H133     1.0000 0.54793  0.70387  0.10397  Biso   1.000  H
  H134     1.0000 0.29613  0.84407  0.10397  Biso   1.000  H
  H135     1.0000 0.15593  0.45207  0.10397  Biso   1.000  H
  H136     1.0000 0.78540  0.96280  0.56270  Biso   1.000  H
  H137     1.0000 0.03720  0.82260  0.56270  Biso   1.000  H
  H138     1.0000 0.17740  0.21460  0.56270  Biso   1.000  H
  H139     1.0000 0.45207  0.29613  0.89603  Biso   1.000  H
  H140     1.0000 0.70387  0.15593  0.89603  Biso   1.000  H
  H141     1.0000 0.84407  0.54793  0.89603  Biso   1.000  H
  H142     1.0000 0.11873  0.62947  0.22937  Biso   1.000  H
  H143     1.0000 0.37053  0.48927  0.22937  Biso   1.000  H
  H144     1.0000 0.51073  0.88127  0.22937  Biso   1.000  H
  H145     1.0000 0.21810  0.08110  0.43370  Biso   1.000  H
  H146     1.0000 0.91890  0.13700  0.43370  Biso   1.000  H
  H147     1.0000 0.86300  0.78190  0.43370  Biso   1.000  H
  H148     1.0000 0.88477  0.41443  0.76703  Biso   1.000  H
  H149     1.0000 0.58557  0.47033  0.76703  Biso   1.000  H
  H150     1.0000 0.52967  0.11523  0.76703  Biso   1.000  H
  H151     1.0000 0.55143  0.74777  0.10037  Biso   1.000  H
  H152     1.0000 0.25223  0.80367  0.10037  Biso   1.000  H
  H153     1.0000 0.19633  0.44857  0.10037  Biso   1.000  H
  H154     1.0000 0.78190  0.91890  0.56630  Biso   1.000  H
  H155     1.0000 0.08110  0.86300  0.56630  Biso   1.000  H
  H156     1.0000 0.13700  0.21810  0.56630  Biso   1.000  H
  H157     1.0000 0.44857  0.25223  0.89963  Biso   1.000  H
  H158     1.0000 0.74777  0.19633  0.89963  Biso   1.000  H
  H159     1.0000 0.80367  0.55143  0.89963  Biso   1.000  H
  H160     1.0000 0.11523  0.58557  0.23297  Biso   1.000  H
  H161     1.0000 0.41443  0.52967  0.23297  Biso   1.000  H
  H162     1.0000 0.47033  0.88477  0.23297  Biso   1.000  H
  C181     1.0000 0.19410  0.05180  0.51380  Biso   1.000  C
  C182     1.0000 0.94820  0.14230  0.51380  Biso   1.000  C
  C183     1.0000 0.85770  0.80590  0.51380  Biso   1.000  C
  C184     1.0000 0.86077  0.38513  0.84713  Biso   1.000  C
  C185     1.0000 0.61487  0.47563  0.84713  Biso   1.000  C
  C186     1.0000 0.52437  0.13923  0.84713  Biso   1.000  C
  C187     1.0000 0.52743  0.71847  0.18047  Biso   1.000  C
  C188     1.0000 0.28153  0.80897  0.18047  Biso   1.000  C
  C189     1.0000 0.19103  0.47257  0.18047  Biso   1.000  C
  C190     1.0000 0.80590  0.94820  0.48620  Biso   1.000  C
  C191     1.0000 0.05180  0.85770  0.48620  Biso   1.000  C
  C192     1.0000 0.14230  0.19410  0.48620  Biso   1.000  C
  C193     1.0000 0.47257  0.28153  0.81953  Biso   1.000  C
  C194     1.0000 0.71847  0.19103  0.81953  Biso   1.000  C
  C195     1.0000 0.80897  0.52743  0.81953  Biso   1.000  C
  C196     1.0000 0.13923  0.61487  0.15287  Biso   1.000  C
  C197     1.0000 0.38513  0.52437  0.15287  Biso   1.000  C
  C198     1.0000 0.47563  0.86077  0.15287  Biso   1.000  C
  H163     1.0000 0.16550  0.03650  0.49950  Biso   1.000  H
  H164     1.0000 0.96350  0.12900  0.49950  Biso   1.000  H
  H165     1.0000 0.87100  0.83450  0.49950  Biso   1.000  H
  H166     1.0000 0.83217  0.36983  0.83283  Biso   1.000  H
  H167     1.0000 0.63017  0.46233  0.83283  Biso   1.000  H
  H168     1.0000 0.53767  0.16783  0.83283  Biso   1.000  H
  H169     1.0000 0.49883  0.70317  0.16617  Biso   1.000  H
  H170     1.0000 0.29683  0.79567  0.16617  Biso   1.000  H
  H171     1.0000 0.20433  0.50117  0.16617  Biso   1.000  H
  H172     1.0000 0.83450  0.96350  0.50050  Biso   1.000  H
  H173     1.0000 0.03650  0.87100  0.50050  Biso   1.000  H
  H174     1.0000 0.12900  0.16550  0.50050  Biso   1.000  H
  H175     1.0000 0.50117  0.29683  0.83383  Biso   1.000  H
  H176     1.0000 0.70317  0.20433  0.83383  Biso   1.000  H
  H177     1.0000 0.79567  0.49883  0.83383  Biso   1.000  H
  H178     1.0000 0.16783  0.63017  0.16717  Biso   1.000  H
  H179     1.0000 0.36983  0.53767  0.16717  Biso   1.000  H
  H180     1.0000 0.46233  0.83217  0.16717  Biso   1.000  H
  H181     1.0000 0.19850  0.03330  0.54020  Biso   1.000  H
  H182     1.0000 0.96670  0.16520  0.54020  Biso   1.000  H
  H183     1.0000 0.83480  0.80150  0.54020  Biso   1.000  H
  H184     1.0000 0.86517  0.36663  0.87353  Biso   1.000  H
  H185     1.0000 0.63337  0.49853  0.87353  Biso   1.000  H
  H186     1.0000 0.50147  0.13483  0.87353  Biso   1.000  H
  H187     1.0000 0.53183  0.69997  0.20687  Biso   1.000  H
  H188     1.0000 0.30003  0.83187  0.20687  Biso   1.000  H
  H189     1.0000 0.16813  0.46817  0.20687  Biso   1.000  H
  H190     1.0000 0.80150  0.96670  0.45980  Biso   1.000  H
  H191     1.0000 0.03330  0.83480  0.45980  Biso   1.000  H
  H192     1.0000 0.16520  0.19850  0.45980  Biso   1.000  H
  H193     1.0000 0.46817  0.30003  0.79313  Biso   1.000  H
  H194     1.0000 0.69997  0.16813  0.79313  Biso   1.000  H
  H195     1.0000 0.83187  0.53183  0.79313  Biso   1.000  H
  H196     1.0000 0.13483  0.63337  0.12647  Biso   1.000  H
  H197     1.0000 0.36663  0.50147  0.12647  Biso   1.000  H
  H198     1.0000 0.49853  0.86517  0.12647  Biso   1.000  H
  C199     1.0000 0.19930  0.08760  0.55090  Biso   1.000  C
  C200     1.0000 0.91240  0.11170  0.55090  Biso   1.000  C
  C201     1.0000 0.88830  0.80070  0.55090  Biso   1.000  C
  C202     1.0000 0.86597  0.42093  0.88423  Biso   1.000  C
  C203     1.0000 0.57907  0.44503  0.88423  Biso   1.000  C
  C204     1.0000 0.55497  0.13403  0.88423  Biso   1.000  C
  C205     1.0000 0.53263  0.75427  0.21757  Biso   1.000  C
  C206     1.0000 0.24573  0.77837  0.21757  Biso   1.000  C
  C207     1.0000 0.22163  0.46737  0.21757  Biso   1.000  C
  C208     1.0000 0.80070  0.91240  0.44910  Biso   1.000  C
  C209     1.0000 0.08760  0.88830  0.44910  Biso   1.000  C
  C210     1.0000 0.11170  0.19930  0.44910  Biso   1.000  C
  C211     1.0000 0.46737  0.24573  0.78243  Biso   1.000  C
  C212     1.0000 0.75427  0.22163  0.78243  Biso   1.000  C
  C213     1.0000 0.77837  0.53263  0.78243  Biso   1.000  C
  C214     1.0000 0.13403  0.57907  0.11577  Biso   1.000  C
  C215     1.0000 0.42093  0.55497  0.11577  Biso   1.000  C
  C216     1.0000 0.44503  0.86597  0.11577  Biso   1.000  C
  H199     1.0000 0.19410  0.10570  0.52480  Biso   1.000  H
  H200     1.0000 0.89430  0.08840  0.52480  Biso   1.000  H
  H201     1.0000 0.91160  0.80590  0.52480  Biso   1.000  H
  H202     1.0000 0.86077  0.43903  0.85813  Biso   1.000  H
  H203     1.0000 0.56097  0.42173  0.85813  Biso   1.000  H
  H204     1.0000 0.57827  0.13923  0.85813  Biso   1.000  H
  H205     1.0000 0.52743  0.77237  0.19147  Biso   1.000  H
  H206     1.0000 0.22763  0.75507  0.19147  Biso   1.000  H
  H207     1.0000 0.24493  0.47257  0.19147  Biso   1.000  H
  H208     1.0000 0.80590  0.89430  0.47520  Biso   1.000  H
  H209     1.0000 0.10570  0.91160  0.47520  Biso   1.000  H
  H210     1.0000 0.08840  0.19410  0.47520  Biso   1.000  H
  H211     1.0000 0.47257  0.22763  0.80853  Biso   1.000  H
  H212     1.0000 0.77237  0.24493  0.80853  Biso   1.000  H
  H213     1.0000 0.75507  0.52743  0.80853  Biso   1.000  H
  H214     1.0000 0.13923  0.56097  0.14187  Biso   1.000  H
  H215     1.0000 0.43903  0.57827  0.14187  Biso   1.000  H
  H216     1.0000 0.42173  0.86077  0.14187  Biso   1.000  H
  H217     1.0000 0.17810  0.07710  0.58250  Biso   1.000  H
  H218     1.0000 0.92290  0.10100  0.58250  Biso   1.000  H
  H219     1.0000 0.89900  0.82190  0.58250  Biso   1.000  H
  H220     1.0000 0.84477  0.41043  0.91583  Biso   1.000  H
  H221     1.0000 0.58957  0.43433  0.91583  Biso   1.000  H
  H222     1.0000 0.56567  0.15523  0.91583  Biso   1.000  H
  H223     1.0000 0.51143  0.74377  0.24917  Biso   1.000  H
  H224     1.0000 0.25623  0.76767  0.24917  Biso   1.000  H
  H225     1.0000 0.23233  0.48857  0.24917  Biso   1.000  H
  H226     1.0000 0.82190  0.92290  0.41750  Biso   1.000  H
  H227     1.0000 0.07710  0.89900  0.41750  Biso   1.000  H
  H228     1.0000 0.10100  0.17810  0.41750  Biso   1.000  H
  H229     1.0000 0.48857  0.25623  0.75083  Biso   1.000  H
  H230     1.0000 0.74377  0.23233  0.75083  Biso   1.000  H
  H231     1.0000 0.76767  0.51143  0.75083  Biso   1.000  H
  H232     1.0000 0.15523  0.58957  0.08417  Biso   1.000  H
  H233     1.0000 0.41043  0.56567  0.08417  Biso   1.000  H
  H234     1.0000 0.43433  0.84477  0.08417  Biso   1.000  H
  N199     1.0000 0.23880  0.11210  0.57940  Biso   1.000  N
  N200     1.0000 0.88790  0.12670  0.57940  Biso   1.000  N
  N201     1.0000 0.87330  0.76120  0.57940  Biso   1.000  N
  N202     1.0000 0.90547  0.44543  0.91273  Biso   1.000  N
  N203     1.0000 0.55457  0.46003  0.91273  Biso   1.000  N
  N204     1.0000 0.53997  0.09453  0.91273  Biso   1.000  N
  N205     1.0000 0.57213  0.77877  0.24607  Biso   1.000  N
  N206     1.0000 0.22123  0.79337  0.24607  Biso   1.000  N
  N207     1.0000 0.20663  0.42787  0.24607  Biso   1.000  N
  N208     1.0000 0.76120  0.88790  0.42060  Biso   1.000  N
  N209     1.0000 0.11210  0.87330  0.42060  Biso   1.000  N
  N210     1.0000 0.12670  0.23880  0.42060  Biso   1.000  N
  N211     1.0000 0.42787  0.22123  0.75393  Biso   1.000  N
  N212     1.0000 0.77877  0.20663  0.75393  Biso   1.000  N
  N213     1.0000 0.79337  0.57213  0.75393  Biso   1.000  N
  N214     1.0000 0.09453  0.55457  0.08727  Biso   1.000  N
  N215     1.0000 0.44543  0.53997  0.08727  Biso   1.000  N
  N216     1.0000 0.46003  0.90547  0.08727  Biso   1.000  N
  C217     1.0000 0.23880  0.14640  0.61490  Biso   1.000  C
  C218     1.0000 0.85360  0.09240  0.61490  Biso   1.000  C
  C219     1.0000 0.90760  0.76120  0.61490  Biso   1.000  C
  C220     1.0000 0.90547  0.47973  0.94823  Biso   1.000  C
  C221     1.0000 0.52027  0.42573  0.94823  Biso   1.000  C
  C222     1.0000 0.57427  0.09453  0.94823  Biso   1.000  C
  C223     1.0000 0.57213  0.81307  0.28157  Biso   1.000  C
  C224     1.0000 0.18693  0.75907  0.28157  Biso   1.000  C
  C225     1.0000 0.24093  0.42787  0.28157  Biso   1.000  C
  C226     1.0000 0.76120  0.85360  0.38510  Biso   1.000  C
  C227     1.0000 0.14640  0.90760  0.38510  Biso   1.000  C
  C228     1.0000 0.09240  0.23880  0.38510  Biso   1.000  C
  C229     1.0000 0.42787  0.18693  0.71843  Biso   1.000  C
  C230     1.0000 0.81307  0.24093  0.71843  Biso   1.000  C
  C231     1.0000 0.75907  0.57213  0.71843  Biso   1.000  C
  C232     1.0000 0.09453  0.52027  0.05177  Biso   1.000  C
  C233     1.0000 0.47973  0.57427  0.05177  Biso   1.000  C
  C234     1.0000 0.42573  0.90547  0.05177  Biso   1.000  C
  H235     1.0000 0.23560  0.16510  0.58740  Biso   1.000  H
  H236     1.0000 0.83490  0.07050  0.58740  Biso   1.000  H
  H237     1.0000 0.92950  0.76440  0.58740  Biso   1.000  H
  H238     1.0000 0.90227  0.49843  0.92073  Biso   1.000  H
  H239     1.0000 0.50157  0.40383  0.92073  Biso   1.000  H
  H240     1.0000 0.59617  0.09773  0.92073  Biso   1.000  H
  H241     1.0000 0.56893  0.83177  0.25407  Biso   1.000  H
  H242     1.0000 0.16823  0.73717  0.25407  Biso   1.000  H
  H243     1.0000 0.26283  0.43107  0.25407  Biso   1.000  H
  H244     1.0000 0.76440  0.83490  0.41260  Biso   1.000  H
  H245     1.0000 0.16510  0.92950  0.41260  Biso   1.000  H
  H246     1.0000 0.07050  0.23560  0.41260  Biso   1.000  H
  H247     1.0000 0.43107  0.16823  0.74593  Biso   1.000  H
  H248     1.0000 0.83177  0.26283  0.74593  Biso   1.000  H
  H249     1.0000 0.73717  0.56893  0.74593  Biso   1.000  H
  H250     1.0000 0.09773  0.50157  0.07927  Biso   1.000  H
  H251     1.0000 0.49843  0.59617  0.07927  Biso   1.000  H
  H252     1.0000 0.40383  0.90227  0.07927  Biso   1.000  H
  H253     1.0000 0.21560  0.13480  0.64320  Biso   1.000  H
  H254     1.0000 0.86520  0.08080  0.64320  Biso   1.000  H
  H255     1.0000 0.91920  0.78440  0.64320  Biso   1.000  H
  H256     1.0000 0.88227  0.46813  0.97653  Biso   1.000  H
  H257     1.0000 0.53187  0.41413  0.97653  Biso   1.000  H
  H258     1.0000 0.58587  0.11773  0.97653  Biso   1.000  H
  H259     1.0000 0.54893  0.80147  0.30987  Biso   1.000  H
  H260     1.0000 0.19853  0.74747  0.30987  Biso   1.000  H
  H261     1.0000 0.25253  0.45107  0.30987  Biso   1.000  H
  H262     1.0000 0.78440  0.86520  0.35680  Biso   1.000  H
  H263     1.0000 0.13480  0.91920  0.35680  Biso   1.000  H
  H264     1.0000 0.08080  0.21560  0.35680  Biso   1.000  H
  H265     1.0000 0.45107  0.19853  0.69013  Biso   1.000  H
  H266     1.0000 0.80147  0.25253  0.69013  Biso   1.000  H
  H267     1.0000 0.74747  0.54893  0.69013  Biso   1.000  H
  H268     1.0000 0.11773  0.53187  0.02347  Biso   1.000  H
  H269     1.0000 0.46813  0.58587  0.02347  Biso   1.000  H
  H270     1.0000 0.41413  0.88227  0.02347  Biso   1.000  H
  C235     1.0000 0.27760  0.16930  0.64840  Biso   1.000  C
  C236     1.0000 0.83070  0.10830  0.64840  Biso   1.000  C
  C237     1.0000 0.89170  0.72240  0.64840  Biso   1.000  C
  C238     1.0000 0.94427  0.50263  0.98173  Biso   1.000  C
  C239     1.0000 0.49737  0.44163  0.98173  Biso   1.000  C
  C240     1.0000 0.55837  0.05573  0.98173  Biso   1.000  C
  C241     1.0000 0.61093  0.83597  0.31507  Biso   1.000  C
  C242     1.0000 0.16403  0.77497  0.31507  Biso   1.000  C
  C243     1.0000 0.22503  0.38907  0.31507  Biso   1.000  C
  C244     1.0000 0.72240  0.83070  0.35160  Biso   1.000  C
  C245     1.0000 0.16930  0.89170  0.35160  Biso   1.000  C
  C246     1.0000 0.10830  0.27760  0.35160  Biso   1.000  C
  C247     1.0000 0.38907  0.16403  0.68493  Biso   1.000  C
  C248     1.0000 0.83597  0.22503  0.68493  Biso   1.000  C
  C249     1.0000 0.77497  0.61093  0.68493  Biso   1.000  C
  C250     1.0000 0.05573  0.49737  0.01827  Biso   1.000  C
  C251     1.0000 0.50263  0.55837  0.01827  Biso   1.000  C
  C252     1.0000 0.44163  0.94427  0.01827  Biso   1.000  C
  H271     1.0000 0.27730  0.19190  0.67030  Biso   1.000  H
  H272     1.0000 0.80810  0.08540  0.67030  Biso   1.000  H
  H273     1.0000 0.91460  0.72270  0.67030  Biso   1.000  H
  H274     1.0000 0.94397  0.52523  0.00363  Biso   1.000  H
  H275     1.0000 0.47477  0.41873  0.00363  Biso   1.000  H
  H276     1.0000 0.58127  0.05603  0.00363  Biso   1.000  H
  H277     1.0000 0.61063  0.85857  0.33697  Biso   1.000  H
  H278     1.0000 0.14143  0.75207  0.33697  Biso   1.000  H
  H279     1.0000 0.24793  0.38937  0.33697  Biso   1.000  H
  H280     1.0000 0.72270  0.80810  0.32970  Biso   1.000  H
  H281     1.0000 0.19190  0.91460  0.32970  Biso   1.000  H
  H282     1.0000 0.08540  0.27730  0.32970  Biso   1.000  H
  H283     1.0000 0.38937  0.14143  0.66303  Biso   1.000  H
  H284     1.0000 0.85857  0.24793  0.66303  Biso   1.000  H
  H285     1.0000 0.75207  0.61063  0.66303  Biso   1.000  H
  H286     1.0000 0.05603  0.47477  0.99637  Biso   1.000  H
  H287     1.0000 0.52523  0.58127  0.99637  Biso   1.000  H
  H288     1.0000 0.41873  0.94397  0.99637  Biso   1.000  H
  H289     1.0000 0.30040  0.18150  0.61940  Biso   1.000  H
  H290     1.0000 0.81850  0.11890  0.61940  Biso   1.000  H
  H291     1.0000 0.88110  0.69960  0.61940  Biso   1.000  H
  H292     1.0000 0.96707  0.51483  0.95273  Biso   1.000  H
  H293     1.0000 0.48517  0.45223  0.95273  Biso   1.000  H
  H294     1.0000 0.54777  0.03293  0.95273  Biso   1.000  H
  H295     1.0000 0.63373  0.84817  0.28607  Biso   1.000  H
  H296     1.0000 0.15183  0.78557  0.28607  Biso   1.000  H
  H297     1.0000 0.21443  0.36627  0.28607  Biso   1.000  H
  H298     1.0000 0.69960  0.81850  0.38060  Biso   1.000  H
  H299     1.0000 0.18150  0.88110  0.38060  Biso   1.000  H
  H300     1.0000 0.11890  0.30040  0.38060  Biso   1.000  H
  H301     1.0000 0.36627  0.15183  0.71393  Biso   1.000  H
  H302     1.0000 0.84817  0.21443  0.71393  Biso   1.000  H
  H303     1.0000 0.78557  0.63373  0.71393  Biso   1.000  H
  H304     1.0000 0.03293  0.48517  0.04727  Biso   1.000  H
  H305     1.0000 0.51483  0.54777  0.04727  Biso   1.000  H
  H306     1.0000 0.45223  0.96707  0.04727  Biso   1.000  H
  O19      1.0000 0.28538  0.14418  0.69180  Biso   1.000  O
  O20      1.0000 0.85582  0.14120  0.69180  Biso   1.000  O
  O21      1.0000 0.85880  0.71462  0.69180  Biso   1.000  O
  O22      1.0000 0.95205  0.47751  0.02513  Biso   1.000  O
  O23      1.0000 0.52249  0.47453  0.02513  Biso   1.000  O
  O24      1.0000 0.52547  0.04795  0.02513  Biso   1.000  O
  O25      1.0000 0.61871  0.81085  0.35847  Biso   1.000  O
  O26      1.0000 0.18915  0.80787  0.35847  Biso   1.000  O
  O27      1.0000 0.19213  0.38129  0.35847  Biso   1.000  O
  O28      1.0000 0.71462  0.85582  0.30820  Biso   1.000  O
  O29      1.0000 0.14418  0.85880  0.30820  Biso   1.000  O
  O30      1.0000 0.14120  0.28538  0.30820  Biso   1.000  O
  O31      1.0000 0.38129  0.18915  0.64153  Biso   1.000  O
  O32      1.0000 0.81085  0.19213  0.64153  Biso   1.000  O
  O33      1.0000 0.80787  0.61871  0.64153  Biso   1.000  O
  O34      1.0000 0.04795  0.52249  0.97487  Biso   1.000  O
  O35      1.0000 0.47751  0.52547  0.97487  Biso   1.000  O
  O36      1.0000 0.47453  0.95205  0.97487  Biso   1.000  O
  C253     1.0000 0.28630  0.11120  0.65630  Biso   1.000  C
  C254     1.0000 0.88880  0.17510  0.65630  Biso   1.000  C
  C255     1.0000 0.82490  0.71370  0.65630  Biso   1.000  C
  C256     1.0000 0.95297  0.44453  0.98963  Biso   1.000  C
  C257     1.0000 0.55547  0.50843  0.98963  Biso   1.000  C
  C258     1.0000 0.49157  0.04703  0.98963  Biso   1.000  C
  C259     1.0000 0.61963  0.77787  0.32297  Biso   1.000  C
  C260     1.0000 0.22213  0.84177  0.32297  Biso   1.000  C
  C261     1.0000 0.15823  0.38037  0.32297  Biso   1.000  C
  C262     1.0000 0.71370  0.88880  0.34370  Biso   1.000  C
  C263     1.0000 0.11120  0.82490  0.34370  Biso   1.000  C
  C264     1.0000 0.17510  0.28630  0.34370  Biso   1.000  C
  C265     1.0000 0.38037  0.22213  0.67703  Biso   1.000  C
  C266     1.0000 0.77787  0.15823  0.67703  Biso   1.000  C
  C267     1.0000 0.84177  0.61963  0.67703  Biso   1.000  C
  C268     1.0000 0.04703  0.55547  0.01037  Biso   1.000  C
  C269     1.0000 0.44453  0.49157  0.01037  Biso   1.000  C
  C270     1.0000 0.50843  0.95297  0.01037  Biso   1.000  C
  H307     1.0000 0.29130  0.09340  0.68340  Biso   1.000  H
  H308     1.0000 0.90660  0.19790  0.68340  Biso   1.000  H
  H309     1.0000 0.80210  0.70870  0.68340  Biso   1.000  H
  H310     1.0000 0.95797  0.42673  0.01673  Biso   1.000  H
  H311     1.0000 0.57327  0.53123  0.01673  Biso   1.000  H
  H312     1.0000 0.46877  0.04203  0.01673  Biso   1.000  H
  H313     1.0000 0.62463  0.76007  0.35007  Biso   1.000  H
  H314     1.0000 0.23993  0.86457  0.35007  Biso   1.000  H
  H315     1.0000 0.13543  0.37537  0.35007  Biso   1.000  H
  H316     1.0000 0.70870  0.90660  0.31660  Biso   1.000  H
  H317     1.0000 0.09340  0.80210  0.31660  Biso   1.000  H
  H318     1.0000 0.19790  0.29130  0.31660  Biso   1.000  H
  H319     1.0000 0.37537  0.23993  0.64993  Biso   1.000  H
  H320     1.0000 0.76007  0.13543  0.64993  Biso   1.000  H
  H321     1.0000 0.86457  0.62463  0.64993  Biso   1.000  H
  H322     1.0000 0.04203  0.57327  0.98327  Biso   1.000  H
  H323     1.0000 0.42673  0.46877  0.98327  Biso   1.000  H
  H324     1.0000 0.53123  0.95797  0.98327  Biso   1.000  H
  H325     1.0000 0.30890  0.12350  0.62700  Biso   1.000  H
  H326     1.0000 0.87650  0.18540  0.62700  Biso   1.000  H
  H327     1.0000 0.81460  0.69110  0.62700  Biso   1.000  H
  H328     1.0000 0.97557  0.45683  0.96033  Biso   1.000  H
  H329     1.0000 0.54317  0.51873  0.96033  Biso   1.000  H
  H330     1.0000 0.48127  0.02443  0.96033  Biso   1.000  H
  H331     1.0000 0.64223  0.79017  0.29367  Biso   1.000  H
  H332     1.0000 0.20983  0.85207  0.29367  Biso   1.000  H
  H333     1.0000 0.14793  0.35777  0.29367  Biso   1.000  H
  H334     1.0000 0.69110  0.87650  0.37300  Biso   1.000  H
  H335     1.0000 0.12350  0.81460  0.37300  Biso   1.000  H
  H336     1.0000 0.18540  0.30890  0.37300  Biso   1.000  H
  H337     1.0000 0.35777  0.20983  0.70633  Biso   1.000  H
  H338     1.0000 0.79017  0.14793  0.70633  Biso   1.000  H
  H339     1.0000 0.85207  0.64223  0.70633  Biso   1.000  H
  H340     1.0000 0.02443  0.54317  0.03967  Biso   1.000  H
  H341     1.0000 0.45683  0.48127  0.03967  Biso   1.000  H
  H342     1.0000 0.51873  0.97557  0.03967  Biso   1.000  H
  C271     1.0000 0.24680  0.08630  0.62430  Biso   1.000  C
  C272     1.0000 0.91370  0.16050  0.62430  Biso   1.000  C
  C273     1.0000 0.83950  0.75320  0.62430  Biso   1.000  C
  C274     1.0000 0.91347  0.41963  0.95763  Biso   1.000  C
  C275     1.0000 0.58037  0.49383  0.95763  Biso   1.000  C
  C276     1.0000 0.50617  0.08653  0.95763  Biso   1.000  C
  C277     1.0000 0.58013  0.75297  0.29097  Biso   1.000  C
  C278     1.0000 0.24703  0.82717  0.29097  Biso   1.000  C
  C279     1.0000 0.17283  0.41987  0.29097  Biso   1.000  C
  C280     1.0000 0.75320  0.91370  0.37570  Biso   1.000  C
  C281     1.0000 0.08630  0.83950  0.37570  Biso   1.000  C
  C282     1.0000 0.16050  0.24680  0.37570  Biso   1.000  C
  C283     1.0000 0.41987  0.24703  0.70903  Biso   1.000  C
  C284     1.0000 0.75297  0.17283  0.70903  Biso   1.000  C
  C285     1.0000 0.82717  0.58013  0.70903  Biso   1.000  C
  C286     1.0000 0.08653  0.58037  0.04237  Biso   1.000  C
  C287     1.0000 0.41963  0.50617  0.04237  Biso   1.000  C
  C288     1.0000 0.49383  0.91347  0.04237  Biso   1.000  C
  H343     1.0000 0.22420  0.07430  0.65380  Biso   1.000  H
  H344     1.0000 0.92570  0.14990  0.65380  Biso   1.000  H
  H345     1.0000 0.85010  0.77580  0.65380  Biso   1.000  H
  H346     1.0000 0.89087  0.40763  0.98713  Biso   1.000  H
  H347     1.0000 0.59237  0.48323  0.98713  Biso   1.000  H
  H348     1.0000 0.51677  0.10913  0.98713  Biso   1.000  H
  H349     1.0000 0.55753  0.74097  0.32047  Biso   1.000  H
  H350     1.0000 0.25903  0.81657  0.32047  Biso   1.000  H
  H351     1.0000 0.18343  0.44247  0.32047  Biso   1.000  H
  H352     1.0000 0.77580  0.92570  0.34620  Biso   1.000  H
  H353     1.0000 0.07430  0.85010  0.34620  Biso   1.000  H
  H354     1.0000 0.14990  0.22420  0.34620  Biso   1.000  H
  H355     1.0000 0.44247  0.25903  0.67953  Biso   1.000  H
  H356     1.0000 0.74097  0.18343  0.67953  Biso   1.000  H
  H357     1.0000 0.81657  0.55753  0.67953  Biso   1.000  H
  H358     1.0000 0.10913  0.59237  0.01287  Biso   1.000  H
  H359     1.0000 0.40763  0.51677  0.01287  Biso   1.000  H
  H360     1.0000 0.48323  0.89087  0.01287  Biso   1.000  H
  H361     1.0000 0.24720  0.06360  0.60290  Biso   1.000  H
  H362     1.0000 0.93640  0.18360  0.60290  Biso   1.000  H
  H363     1.0000 0.81640  0.75280  0.60290  Biso   1.000  H
  H364     1.0000 0.91387  0.39693  0.93623  Biso   1.000  H
  H365     1.0000 0.60307  0.51693  0.93623  Biso   1.000  H
  H366     1.0000 0.48307  0.08613  0.93623  Biso   1.000  H
  H367     1.0000 0.58053  0.73027  0.26957  Biso   1.000  H
  H368     1.0000 0.26973  0.85027  0.26957  Biso   1.000  H
  H369     1.0000 0.14973  0.41947  0.26957  Biso   1.000  H
  H370     1.0000 0.75280  0.93640  0.39710  Biso   1.000  H
  H371     1.0000 0.06360  0.81640  0.39710  Biso   1.000  H
  H372     1.0000 0.18360  0.24720  0.39710  Biso   1.000  H
  H373     1.0000 0.41947  0.26973  0.73043  Biso   1.000  H
  H374     1.0000 0.73027  0.14973  0.73043  Biso   1.000  H
  H375     1.0000 0.85027  0.58053  0.73043  Biso   1.000  H
  H376     1.0000 0.08613  0.60307  0.06377  Biso   1.000  H
  H377     1.0000 0.39693  0.48307  0.06377  Biso   1.000  H
  H378     1.0000 0.51693  0.91387  0.06377  Biso   1.000  H
  C289     1.0000 0.48000  0.22350  0.55250  Biso   1.000  C
  C290     1.0000 0.77650  0.25650  0.55250  Biso   1.000  C
  C291     1.0000 0.74350  0.52000  0.55250  Biso   1.000  C
  C292     1.0000 0.14667  0.55683  0.88583  Biso   1.000  C
  C293     1.0000 0.44317  0.58983  0.88583  Biso   1.000  C
  C294     1.0000 0.41017  0.85333  0.88583  Biso   1.000  C
  C295     1.0000 0.81333  0.89017  0.21917  Biso   1.000  C
  C296     1.0000 0.10983  0.92317  0.21917  Biso   1.000  C
  C297     1.0000 0.07683  0.18667  0.21917  Biso   1.000  C
  C298     1.0000 0.52000  0.77650  0.44750  Biso   1.000  C
  C299     1.0000 0.22350  0.74350  0.44750  Biso   1.000  C
  C300     1.0000 0.25650  0.48000  0.44750  Biso   1.000  C
  C301     1.0000 0.18667  0.10983  0.78083  Biso   1.000  C
  C302     1.0000 0.89017  0.07683  0.78083  Biso   1.000  C
  C303     1.0000 0.92317  0.81333  0.78083  Biso   1.000  C
  C304     1.0000 0.85333  0.44317  0.11417  Biso   1.000  C
  C305     1.0000 0.55683  0.41017  0.11417  Biso   1.000  C
  C306     1.0000 0.58983  0.14667  0.11417  Biso   1.000  C
  H379     1.0000 0.49570  0.21180  0.57130  Biso   1.000  H
  H380     1.0000 0.78820  0.28390  0.57130  Biso   1.000  H
  H381     1.0000 0.71610  0.50430  0.57130  Biso   1.000  H
  H382     1.0000 0.16237  0.54513  0.90463  Biso   1.000  H
  H383     1.0000 0.45487  0.61723  0.90463  Biso   1.000  H
  H384     1.0000 0.38277  0.83763  0.90463  Biso   1.000  H
  H385     1.0000 0.82903  0.87847  0.23797  Biso   1.000  H
  H386     1.0000 0.12153  0.95057  0.23797  Biso   1.000  H
  H387     1.0000 0.04943  0.17097  0.23797  Biso   1.000  H
  H388     1.0000 0.50430  0.78820  0.42870  Biso   1.000  H
  H389     1.0000 0.21180  0.71610  0.42870  Biso   1.000  H
  H390     1.0000 0.28390  0.49570  0.42870  Biso   1.000  H
  H391     1.0000 0.17097  0.12153  0.76203  Biso   1.000  H
  H392     1.0000 0.87847  0.04943  0.76203  Biso   1.000  H
  H393     1.0000 0.95057  0.82903  0.76203  Biso   1.000  H
  H394     1.0000 0.83763  0.45487  0.09537  Biso   1.000  H
  H395     1.0000 0.54513  0.38277  0.09537  Biso   1.000  H
  H396     1.0000 0.61723  0.16237  0.09537  Biso   1.000  H
  H397     1.0000 0.47760  0.24170  0.58210  Biso   1.000  H
  H398     1.0000 0.75830  0.23590  0.58210  Biso   1.000  H
  H399     1.0000 0.76410  0.52240  0.58210  Biso   1.000  H
  H400     1.0000 0.14427  0.57503  0.91543  Biso   1.000  H
  H401     1.0000 0.42497  0.56923  0.91543  Biso   1.000  H
  H402     1.0000 0.43077  0.85573  0.91543  Biso   1.000  H
  H403     1.0000 0.81093  0.90837  0.24877  Biso   1.000  H
  H404     1.0000 0.09163  0.90257  0.24877  Biso   1.000  H
  H405     1.0000 0.09743  0.18907  0.24877  Biso   1.000  H
  H406     1.0000 0.52240  0.75830  0.41790  Biso   1.000  H
  H407     1.0000 0.24170  0.76410  0.41790  Biso   1.000  H
  H408     1.0000 0.23590  0.47760  0.41790  Biso   1.000  H
  H409     1.0000 0.18907  0.09163  0.75123  Biso   1.000  H
  H410     1.0000 0.90837  0.09743  0.75123  Biso   1.000  H
  H411     1.0000 0.90257  0.81093  0.75123  Biso   1.000  H
  H412     1.0000 0.85573  0.42497  0.08457  Biso   1.000  H
  H413     1.0000 0.57503  0.43077  0.08457  Biso   1.000  H
  H414     1.0000 0.56923  0.14427  0.08457  Biso   1.000  H
  C307     1.0000 0.50340  0.24880  0.49670  Biso   1.000  C
  C308     1.0000 0.75120  0.25460  0.49670  Biso   1.000  C
  C309     1.0000 0.74540  0.49660  0.49670  Biso   1.000  C
  C310     1.0000 0.17007  0.58213  0.83003  Biso   1.000  C
  C311     1.0000 0.41787  0.58793  0.83003  Biso   1.000  C
  C312     1.0000 0.41207  0.82993  0.83003  Biso   1.000  C
  C313     1.0000 0.83673  0.91547  0.16337  Biso   1.000  C
  C314     1.0000 0.08453  0.92127  0.16337  Biso   1.000  C
  C315     1.0000 0.07873  0.16327  0.16337  Biso   1.000  C
  C316     1.0000 0.49660  0.75120  0.50330  Biso   1.000  C
  C317     1.0000 0.24880  0.74540  0.50330  Biso   1.000  C
  C318     1.0000 0.25460  0.50340  0.50330  Biso   1.000  C
  C319     1.0000 0.16327  0.08453  0.83663  Biso   1.000  C
  C320     1.0000 0.91547  0.07873  0.83663  Biso   1.000  C
  C321     1.0000 0.92127  0.83673  0.83663  Biso   1.000  C
  C322     1.0000 0.82993  0.41787  0.16997  Biso   1.000  C
  C323     1.0000 0.58213  0.41207  0.16997  Biso   1.000  C
  C324     1.0000 0.58793  0.17007  0.16997  Biso   1.000  C
  H415     1.0000 0.48470  0.25310  0.47070  Biso   1.000  H
  H416     1.0000 0.74690  0.23160  0.47070  Biso   1.000  H
  H417     1.0000 0.76840  0.51530  0.47070  Biso   1.000  H
  H418     1.0000 0.15137  0.58643  0.80403  Biso   1.000  H
  H419     1.0000 0.41357  0.56493  0.80403  Biso   1.000  H
  H420     1.0000 0.43507  0.84863  0.80403  Biso   1.000  H
  H421     1.0000 0.81803  0.91977  0.13737  Biso   1.000  H
  H422     1.0000 0.08023  0.89827  0.13737  Biso   1.000  H
  H423     1.0000 0.10173  0.18197  0.13737  Biso   1.000  H
  H424     1.0000 0.51530  0.74690  0.52930  Biso   1.000  H
  H425     1.0000 0.25310  0.76840  0.52930  Biso   1.000  H
  H426     1.0000 0.23160  0.48470  0.52930  Biso   1.000  H
  H427     1.0000 0.18197  0.08023  0.86263  Biso   1.000  H
  H428     1.0000 0.91977  0.10173  0.86263  Biso   1.000  H
  H429     1.0000 0.89827  0.81803  0.86263  Biso   1.000  H
  H430     1.0000 0.84863  0.41357  0.19597  Biso   1.000  H
  H431     1.0000 0.58643  0.43507  0.19597  Biso   1.000  H
  H432     1.0000 0.56493  0.15137  0.19597  Biso   1.000  H
  H433     1.0000 0.51410  0.23380  0.47350  Biso   1.000  H
  H434     1.0000 0.76620  0.28030  0.47350  Biso   1.000  H
  H435     1.0000 0.71970  0.48590  0.47350  Biso   1.000  H
  H436     1.0000 0.18077  0.56713  0.80683  Biso   1.000  H
  H437     1.0000 0.43287  0.61363  0.80683  Biso   1.000  H
  H438     1.0000 0.38637  0.81923  0.80683  Biso   1.000  H
  H439     1.0000 0.84743  0.90047  0.14017  Biso   1.000  H
  H440     1.0000 0.09953  0.94697  0.14017  Biso   1.000  H
  H441     1.0000 0.05303  0.15257  0.14017  Biso   1.000  H
  H442     1.0000 0.48590  0.76620  0.52650  Biso   1.000  H
  H443     1.0000 0.23380  0.71970  0.52650  Biso   1.000  H
  H444     1.0000 0.28030  0.51410  0.52650  Biso   1.000  H
  H445     1.0000 0.15257  0.09953  0.85983  Biso   1.000  H
  H446     1.0000 0.90047  0.05303  0.85983  Biso   1.000  H
  H447     1.0000 0.94697  0.84743  0.85983  Biso   1.000  H
  H448     1.0000 0.81923  0.43287  0.19317  Biso   1.000  H
  H449     1.0000 0.56713  0.38637  0.19317  Biso   1.000  H
  H450     1.0000 0.61363  0.18077  0.19317  Biso   1.000  H
  C325     1.0000 0.53960  0.29100  0.51710  Biso   1.000  C
  C326     1.0000 0.70900  0.24860  0.51710  Biso   1.000  C
  C327     1.0000 0.75140  0.46040  0.51710  Biso   1.000  C
  C328     1.0000 0.20627  0.62433  0.85043  Biso   1.000  C
  C329     1.0000 0.37567  0.58193  0.85043  Biso   1.000  C
  C330     1.0000 0.41807  0.79373  0.85043  Biso   1.000  C
  C331     1.0000 0.87293  0.95767  0.18377  Biso   1.000  C
  C332     1.0000 0.04233  0.91527  0.18377  Biso   1.000  C
  C333     1.0000 0.08473  0.12707  0.18377  Biso   1.000  C
  C334     1.0000 0.46040  0.70900  0.48290  Biso   1.000  C
  C335     1.0000 0.29100  0.75140  0.48290  Biso   1.000  C
  C336     1.0000 0.24860  0.53960  0.48290  Biso   1.000  C
  C337     1.0000 0.12707  0.04233  0.81623  Biso   1.000  C
  C338     1.0000 0.95767  0.08473  0.81623  Biso   1.000  C
  C339     1.0000 0.91527  0.87293  0.81623  Biso   1.000  C
  C340     1.0000 0.79373  0.37567  0.14957  Biso   1.000  C
  C341     1.0000 0.62433  0.41807  0.14957  Biso   1.000  C
  C342     1.0000 0.58193  0.20627  0.14957  Biso   1.000  C
  H451     1.0000 0.52830  0.30750  0.53410  Biso   1.000  H
  H452     1.0000 0.69250  0.22080  0.53410  Biso   1.000  H
  H453     1.0000 0.77920  0.47170  0.53410  Biso   1.000  H
  H454     1.0000 0.19497  0.64083  0.86743  Biso   1.000  H
  H455     1.0000 0.35917  0.55413  0.86743  Biso   1.000  H
  H456     1.0000 0.44587  0.80503  0.86743  Biso   1.000  H
  H457     1.0000 0.86163  0.97417  0.20077  Biso   1.000  H
  H458     1.0000 0.02583  0.88747  0.20077  Biso   1.000  H
  H459     1.0000 0.11253  0.13837  0.20077  Biso   1.000  H
  H460     1.0000 0.47170  0.69250  0.46590  Biso   1.000  H
  H461     1.0000 0.30750  0.77920  0.46590  Biso   1.000  H
  H462     1.0000 0.22080  0.52830  0.46590  Biso   1.000  H
  H463     1.0000 0.13837  0.02583  0.79923  Biso   1.000  H
  H464     1.0000 0.97417  0.11253  0.79923  Biso   1.000  H
  H465     1.0000 0.88747  0.86163  0.79923  Biso   1.000  H
  H466     1.0000 0.80503  0.35917  0.13257  Biso   1.000  H
  H467     1.0000 0.64083  0.44587  0.13257  Biso   1.000  H
  H468     1.0000 0.55413  0.19497  0.13257  Biso   1.000  H
  H469     1.0000 0.55490  0.28640  0.54920  Biso   1.000  H
  H470     1.0000 0.71360  0.26850  0.54920  Biso   1.000  H
  H471     1.0000 0.73150  0.44510  0.54920  Biso   1.000  H
  H472     1.0000 0.22157  0.61973  0.88253  Biso   1.000  H
  H473     1.0000 0.38027  0.60183  0.88253  Biso   1.000  H
  H474     1.0000 0.39817  0.77843  0.88253  Biso   1.000  H
  H475     1.0000 0.88823  0.95307  0.21587  Biso   1.000  H
  H476     1.0000 0.04693  0.93517  0.21587  Biso   1.000  H
  H477     1.0000 0.06483  0.11177  0.21587  Biso   1.000  H
  H478     1.0000 0.44510  0.71360  0.45080  Biso   1.000  H
  H479     1.0000 0.28640  0.73150  0.45080  Biso   1.000  H
  H480     1.0000 0.26850  0.55490  0.45080  Biso   1.000  H
  H481     1.0000 0.11177  0.04693  0.78413  Biso   1.000  H
  H482     1.0000 0.95307  0.06483  0.78413  Biso   1.000  H
  H483     1.0000 0.93517  0.88823  0.78413  Biso   1.000  H
  H484     1.0000 0.77843  0.38027  0.11747  Biso   1.000  H
  H485     1.0000 0.61973  0.39817  0.11747  Biso   1.000  H
  H486     1.0000 0.60183  0.22157  0.11747  Biso   1.000  H
  N217     1.0000 0.56850  0.31460  0.46810  Biso   1.000  N
  N218     1.0000 0.68540  0.25390  0.46810  Biso   1.000  N
  N219     1.0000 0.74610  0.43150  0.46810  Biso   1.000  N
  N220     1.0000 0.23517  0.64793  0.80143  Biso   1.000  N
  N221     1.0000 0.35207  0.58723  0.80143  Biso   1.000  N
  N222     1.0000 0.41277  0.76483  0.80143  Biso   1.000  N
  N223     1.0000 0.90183  0.98127  0.13477  Biso   1.000  N
  N224     1.0000 0.01873  0.92057  0.13477  Biso   1.000  N
  N225     1.0000 0.07943  0.09817  0.13477  Biso   1.000  N
  N226     1.0000 0.43150  0.68540  0.53190  Biso   1.000  N
  N227     1.0000 0.31460  0.74610  0.53190  Biso   1.000  N
  N228     1.0000 0.25390  0.56850  0.53190  Biso   1.000  N
  N229     1.0000 0.09817  0.01873  0.86523  Biso   1.000  N
  N230     1.0000 0.98127  0.07943  0.86523  Biso   1.000  N
  N231     1.0000 0.92057  0.90183  0.86523  Biso   1.000  N
  N232     1.0000 0.76483  0.35207  0.19857  Biso   1.000  N
  N233     1.0000 0.64793  0.41277  0.19857  Biso   1.000  N
  N234     1.0000 0.58723  0.23517  0.19857  Biso   1.000  N
  C343     1.0000 0.55100  0.32630  0.42090  Biso   1.000  C
  C344     1.0000 0.67370  0.22470  0.42090  Biso   1.000  C
  C345     1.0000 0.77530  0.44900  0.42090  Biso   1.000  C
  C346     1.0000 0.21767  0.65963  0.75423  Biso   1.000  C
  C347     1.0000 0.34037  0.55803  0.75423  Biso   1.000  C
  C348     1.0000 0.44197  0.78233  0.75423  Biso   1.000  C
  C349     1.0000 0.88433  0.99297  0.08757  Biso   1.000  C
  C350     1.0000 0.00703  0.89137  0.08757  Biso   1.000  C
  C351     1.0000 0.10863  0.11567  0.08757  Biso   1.000  C
  C352     1.0000 0.44900  0.67370  0.57910  Biso   1.000  C
  C353     1.0000 0.32630  0.77530  0.57910  Biso   1.000  C
  C354     1.0000 0.22470  0.55100  0.57910  Biso   1.000  C
  C355     1.0000 0.11567  0.00703  0.91243  Biso   1.000  C
  C356     1.0000 0.99297  0.10863  0.91243  Biso   1.000  C
  C357     1.0000 0.89137  0.88433  0.91243  Biso   1.000  C
  C358     1.0000 0.78233  0.34037  0.24577  Biso   1.000  C
  C359     1.0000 0.65963  0.44197  0.24577  Biso   1.000  C
  C360     1.0000 0.55803  0.21767  0.24577  Biso   1.000  C
  H487     1.0000 0.53940  0.34250  0.43790  Biso   1.000  H
  H488     1.0000 0.65750  0.19690  0.43790  Biso   1.000  H
  H489     1.0000 0.80310  0.46060  0.43790  Biso   1.000  H
  H490     1.0000 0.20607  0.67583  0.77123  Biso   1.000  H
  H491     1.0000 0.32417  0.53023  0.77123  Biso   1.000  H
  H492     1.0000 0.46977  0.79393  0.77123  Biso   1.000  H
  H493     1.0000 0.87273  0.00917  0.10457  Biso   1.000  H
  H494     1.0000 0.99083  0.86357  0.10457  Biso   1.000  H
  H495     1.0000 0.13643  0.12727  0.10457  Biso   1.000  H
  H496     1.0000 0.46060  0.65750  0.56210  Biso   1.000  H
  H497     1.0000 0.34250  0.80310  0.56210  Biso   1.000  H
  H498     1.0000 0.19690  0.53940  0.56210  Biso   1.000  H
  H499     1.0000 0.12727  0.99083  0.89543  Biso   1.000  H
  H500     1.0000 0.00917  0.13643  0.89543  Biso   1.000  H
  H501     1.0000 0.86357  0.87273  0.89543  Biso   1.000  H
  H502     1.0000 0.79393  0.32417  0.22877  Biso   1.000  H
  H503     1.0000 0.67583  0.46977  0.22877  Biso   1.000  H
  H504     1.0000 0.53023  0.20607  0.22877  Biso   1.000  H
  H505     1.0000 0.52830  0.30140  0.40260  Biso   1.000  H
  H506     1.0000 0.69860  0.22690  0.40260  Biso   1.000  H
  H507     1.0000 0.77310  0.47170  0.40260  Biso   1.000  H
  H508     1.0000 0.19497  0.63473  0.73593  Biso   1.000  H
  H509     1.0000 0.36527  0.56023  0.73593  Biso   1.000  H
  H510     1.0000 0.43977  0.80503  0.73593  Biso   1.000  H
  H511     1.0000 0.86163  0.96807  0.06927  Biso   1.000  H
  H512     1.0000 0.03193  0.89357  0.06927  Biso   1.000  H
  H513     1.0000 0.10643  0.13837  0.06927  Biso   1.000  H
  H514     1.0000 0.47170  0.69860  0.59740  Biso   1.000  H
  H515     1.0000 0.30140  0.77310  0.59740  Biso   1.000  H
  H516     1.0000 0.22690  0.52830  0.59740  Biso   1.000  H
  H517     1.0000 0.13837  0.03193  0.93073  Biso   1.000  H
  H518     1.0000 0.96807  0.10643  0.93073  Biso   1.000  H
  H519     1.0000 0.89357  0.86163  0.93073  Biso   1.000  H
  H520     1.0000 0.80503  0.36527  0.26407  Biso   1.000  H
  H521     1.0000 0.63473  0.43977  0.26407  Biso   1.000  H
  H522     1.0000 0.56023  0.19497  0.26407  Biso   1.000  H
  C361     1.0000 0.58340  0.35260  0.37000  Biso   1.000  C
  C362     1.0000 0.64740  0.23080  0.37000  Biso   1.000  C
  C363     1.0000 0.76920  0.41660  0.37000  Biso   1.000  C
  C364     1.0000 0.25007  0.68593  0.70333  Biso   1.000  C
  C365     1.0000 0.31407  0.56413  0.70333  Biso   1.000  C
  C366     1.0000 0.43587  0.74993  0.70333  Biso   1.000  C
  C367     1.0000 0.91673  0.01927  0.03667  Biso   1.000  C
  C368     1.0000 0.98073  0.89747  0.03667  Biso   1.000  C
  C369     1.0000 0.10253  0.08327  0.03667  Biso   1.000  C
  C370     1.0000 0.41660  0.64740  0.63000  Biso   1.000  C
  C371     1.0000 0.35260  0.76920  0.63000  Biso   1.000  C
  C372     1.0000 0.23080  0.58340  0.63000  Biso   1.000  C
  C373     1.0000 0.08327  0.98073  0.96333  Biso   1.000  C
  C374     1.0000 0.01927  0.10253  0.96333  Biso   1.000  C
  C375     1.0000 0.89747  0.91673  0.96333  Biso   1.000  C
  C376     1.0000 0.74993  0.31407  0.29667  Biso   1.000  C
  C377     1.0000 0.68593  0.43587  0.29667  Biso   1.000  C
  C378     1.0000 0.56413  0.25007  0.29667  Biso   1.000  C
  H523     1.0000 0.59510  0.33680  0.35200  Biso   1.000  H
  H524     1.0000 0.66320  0.25830  0.35200  Biso   1.000  H
  H525     1.0000 0.74170  0.40490  0.35200  Biso   1.000  H
  H526     1.0000 0.26177  0.67013  0.68533  Biso   1.000  H
  H527     1.0000 0.32987  0.59163  0.68533  Biso   1.000  H
  H528     1.0000 0.40837  0.73823  0.68533  Biso   1.000  H
  H529     1.0000 0.92843  0.00347  0.01867  Biso   1.000  H
  H530     1.0000 0.99653  0.92497  0.01867  Biso   1.000  H
  H531     1.0000 0.07503  0.07157  0.01867  Biso   1.000  H
  H532     1.0000 0.40490  0.66320  0.64800  Biso   1.000  H
  H533     1.0000 0.33680  0.74170  0.64800  Biso   1.000  H
  H534     1.0000 0.25830  0.59510  0.64800  Biso   1.000  H
  H535     1.0000 0.07157  0.99653  0.98133  Biso   1.000  H
  H536     1.0000 0.00347  0.07503  0.98133  Biso   1.000  H
  H537     1.0000 0.92497  0.92843  0.98133  Biso   1.000  H
  H538     1.0000 0.73823  0.32987  0.31467  Biso   1.000  H
  H539     1.0000 0.67013  0.40837  0.31467  Biso   1.000  H
  H540     1.0000 0.59163  0.26177  0.31467  Biso   1.000  H
  H541     1.0000 0.57010  0.36000  0.33800  Biso   1.000  H
  H542     1.0000 0.64000  0.21010  0.33800  Biso   1.000  H
  H543     1.0000 0.78990  0.42990  0.33800  Biso   1.000  H
  H544     1.0000 0.23677  0.69333  0.67133  Biso   1.000  H
  H545     1.0000 0.30667  0.54343  0.67133  Biso   1.000  H
  H546     1.0000 0.45657  0.76323  0.67133  Biso   1.000  H
  H547     1.0000 0.90343  0.02667  0.00467  Biso   1.000  H
  H548     1.0000 0.97333  0.87677  0.00467  Biso   1.000  H
  H549     1.0000 0.12323  0.09657  0.00467  Biso   1.000  H
  H550     1.0000 0.42990  0.64000  0.66200  Biso   1.000  H
  H551     1.0000 0.36000  0.78990  0.66200  Biso   1.000  H
  H552     1.0000 0.21010  0.57010  0.66200  Biso   1.000  H
  H553     1.0000 0.09657  0.97333  0.99533  Biso   1.000  H
  H554     1.0000 0.02667  0.12323  0.99533  Biso   1.000  H
  H555     1.0000 0.87677  0.90343  0.99533  Biso   1.000  H
  H556     1.0000 0.76323  0.30667  0.32867  Biso   1.000  H
  H557     1.0000 0.69333  0.45657  0.32867  Biso   1.000  H
  H558     1.0000 0.54343  0.23677  0.32867  Biso   1.000  H
  O37      1.0000 0.61510  0.38910  0.39960  Biso   1.000  O
  O38      1.0000 0.61090  0.22600  0.39960  Biso   1.000  O
  O39      1.0000 0.77400  0.38490  0.39960  Biso   1.000  O
  O40      1.0000 0.28177  0.72243  0.73293  Biso   1.000  O
  O41      1.0000 0.27757  0.55933  0.73293  Biso   1.000  O
  O42      1.0000 0.44067  0.71823  0.73293  Biso   1.000  O
  O43      1.0000 0.94843  0.05577  0.06627  Biso   1.000  O
  O44      1.0000 0.94423  0.89267  0.06627  Biso   1.000  O
  O45      1.0000 0.10733  0.05157  0.06627  Biso   1.000  O
  O46      1.0000 0.38490  0.61090  0.60040  Biso   1.000  O
  O47      1.0000 0.38910  0.77400  0.60040  Biso   1.000  O
  O48      1.0000 0.22600  0.61510  0.60040  Biso   1.000  O
  O49      1.0000 0.05157  0.94423  0.93373  Biso   1.000  O
  O50      1.0000 0.05577  0.10733  0.93373  Biso   1.000  O
  O51      1.0000 0.89267  0.94843  0.93373  Biso   1.000  O
  O52      1.0000 0.71823  0.27757  0.26707  Biso   1.000  O
  O53      1.0000 0.72243  0.44067  0.26707  Biso   1.000  O
  O54      1.0000 0.55933  0.28177  0.26707  Biso   1.000  O
  C379     1.0000 0.63410  0.37850  0.44430  Biso   1.000  C
  C380     1.0000 0.62150  0.25560  0.44430  Biso   1.000  C
  C381     1.0000 0.74440  0.36590  0.44430  Biso   1.000  C
  C382     1.0000 0.30077  0.71183  0.77763  Biso   1.000  C
  C383     1.0000 0.28817  0.58893  0.77763  Biso   1.000  C
  C384     1.0000 0.41107  0.69923  0.77763  Biso   1.000  C
  C385     1.0000 0.96743  0.04517  0.11097  Biso   1.000  C
  C386     1.0000 0.95483  0.92227  0.11097  Biso   1.000  C
  C387     1.0000 0.07773  0.03257  0.11097  Biso   1.000  C
  C388     1.0000 0.36590  0.62150  0.55570  Biso   1.000  C
  C389     1.0000 0.37850  0.74440  0.55570  Biso   1.000  C
  C390     1.0000 0.25560  0.63410  0.55570  Biso   1.000  C
  C391     1.0000 0.03257  0.95483  0.88903  Biso   1.000  C
  C392     1.0000 0.04517  0.07773  0.88903  Biso   1.000  C
  C393     1.0000 0.92227  0.96743  0.88903  Biso   1.000  C
  C394     1.0000 0.69923  0.28817  0.22237  Biso   1.000  C
  C395     1.0000 0.71183  0.41107  0.22237  Biso   1.000  C
  C396     1.0000 0.58893  0.30077  0.22237  Biso   1.000  C
  H559     1.0000 0.65760  0.40370  0.46070  Biso   1.000  H
  H560     1.0000 0.59630  0.25390  0.46070  Biso   1.000  H
  H561     1.0000 0.74610  0.34240  0.46070  Biso   1.000  H
  H562     1.0000 0.32427  0.73703  0.79403  Biso   1.000  H
  H563     1.0000 0.26297  0.58723  0.79403  Biso   1.000  H
  H564     1.0000 0.41277  0.67573  0.79403  Biso   1.000  H
  H565     1.0000 0.99093  0.07037  0.12737  Biso   1.000  H
  H566     1.0000 0.92963  0.92057  0.12737  Biso   1.000  H
  H567     1.0000 0.07943  0.00907  0.12737  Biso   1.000  H
  H568     1.0000 0.34240  0.59630  0.53930  Biso   1.000  H
  H569     1.0000 0.40370  0.74610  0.53930  Biso   1.000  H
  H570     1.0000 0.25390  0.65760  0.53930  Biso   1.000  H
  H571     1.0000 0.00907  0.92963  0.87263  Biso   1.000  H
  H572     1.0000 0.07037  0.07943  0.87263  Biso   1.000  H
  H573     1.0000 0.92057  0.99093  0.87263  Biso   1.000  H
  H574     1.0000 0.67573  0.26297  0.20597  Biso   1.000  H
  H575     1.0000 0.73703  0.41277  0.20597  Biso   1.000  H
  H576     1.0000 0.58723  0.32427  0.20597  Biso   1.000  H
  H577     1.0000 0.64470  0.36170  0.42660  Biso   1.000  H
  H578     1.0000 0.63830  0.28300  0.42660  Biso   1.000  H
  H579     1.0000 0.71700  0.35530  0.42660  Biso   1.000  H
  H580     1.0000 0.31137  0.69503  0.75993  Biso   1.000  H
  H581     1.0000 0.30497  0.61633  0.75993  Biso   1.000  H
  H582     1.0000 0.38367  0.68863  0.75993  Biso   1.000  H
  H583     1.0000 0.97803  0.02837  0.09327  Biso   1.000  H
  H584     1.0000 0.97163  0.94967  0.09327  Biso   1.000  H
  H585     1.0000 0.05033  0.02197  0.09327  Biso   1.000  H
  H586     1.0000 0.35530  0.63830  0.57340  Biso   1.000  H
  H587     1.0000 0.36170  0.71700  0.57340  Biso   1.000  H
  H588     1.0000 0.28300  0.64470  0.57340  Biso   1.000  H
  H589     1.0000 0.02197  0.97163  0.90673  Biso   1.000  H
  H590     1.0000 0.02837  0.05033  0.90673  Biso   1.000  H
  H591     1.0000 0.94967  0.97803  0.90673  Biso   1.000  H
  H592     1.0000 0.68863  0.30497  0.24007  Biso   1.000  H
  H593     1.0000 0.69503  0.38367  0.24007  Biso   1.000  H
  H594     1.0000 0.61633  0.31137  0.24007  Biso   1.000  H
  C397     1.0000 0.60290  0.35350  0.49770  Biso   1.000  C
  C398     1.0000 0.64650  0.24940  0.49770  Biso   1.000  C
  C399     1.0000 0.75060  0.39710  0.49770  Biso   1.000  C
  C400     1.0000 0.26957  0.68683  0.83103  Biso   1.000  C
  C401     1.0000 0.31317  0.58273  0.83103  Biso   1.000  C
  C402     1.0000 0.41727  0.73043  0.83103  Biso   1.000  C
  C403     1.0000 0.93623  0.02017  0.16437  Biso   1.000  C
  C404     1.0000 0.97983  0.91607  0.16437  Biso   1.000  C
  C405     1.0000 0.08393  0.06377  0.16437  Biso   1.000  C
  C406     1.0000 0.39710  0.64650  0.50230  Biso   1.000  C
  C407     1.0000 0.35350  0.75060  0.50230  Biso   1.000  C
  C408     1.0000 0.24940  0.60290  0.50230  Biso   1.000  C
  C409     1.0000 0.06377  0.97983  0.83563  Biso   1.000  C
  C410     1.0000 0.02017  0.08393  0.83563  Biso   1.000  C
  C411     1.0000 0.91607  0.93623  0.83563  Biso   1.000  C
  C412     1.0000 0.73043  0.31317  0.16897  Biso   1.000  C
  C413     1.0000 0.68683  0.41727  0.16897  Biso   1.000  C
  C414     1.0000 0.58273  0.26957  0.16897  Biso   1.000  C
  H595     1.0000 0.61680  0.34640  0.52910  Biso   1.000  H
  H596     1.0000 0.65360  0.27040  0.52910  Biso   1.000  H
  H597     1.0000 0.72960  0.38320  0.52910  Biso   1.000  H
  H598     1.0000 0.28347  0.67973  0.86243  Biso   1.000  H
  H599     1.0000 0.32027  0.60373  0.86243  Biso   1.000  H
  H600     1.0000 0.39627  0.71653  0.86243  Biso   1.000  H
  H601     1.0000 0.95013  0.01307  0.19577  Biso   1.000  H
  H602     1.0000 0.98693  0.93707  0.19577  Biso   1.000  H
  H603     1.0000 0.06293  0.04987  0.19577  Biso   1.000  H
  H604     1.0000 0.38320  0.65360  0.47090  Biso   1.000  H
  H605     1.0000 0.34640  0.72960  0.47090  Biso   1.000  H
  H606     1.0000 0.27040  0.61680  0.47090  Biso   1.000  H
  H607     1.0000 0.04987  0.98693  0.80423  Biso   1.000  H
  H608     1.0000 0.01307  0.06293  0.80423  Biso   1.000  H
  H609     1.0000 0.93707  0.95013  0.80423  Biso   1.000  H
  H610     1.0000 0.71653  0.32027  0.13757  Biso   1.000  H
  H611     1.0000 0.67973  0.39627  0.13757  Biso   1.000  H
  H612     1.0000 0.60373  0.28347  0.13757  Biso   1.000  H
  H613     1.0000 0.59190  0.36980  0.51600  Biso   1.000  H
  H614     1.0000 0.63020  0.22210  0.51600  Biso   1.000  H
  H615     1.0000 0.77790  0.40810  0.51600  Biso   1.000  H
  H616     1.0000 0.25857  0.70313  0.84933  Biso   1.000  H
  H617     1.0000 0.29687  0.55543  0.84933  Biso   1.000  H
  H618     1.0000 0.44457  0.74143  0.84933  Biso   1.000  H
  H619     1.0000 0.92523  0.03647  0.18267  Biso   1.000  H
  H620     1.0000 0.96353  0.88877  0.18267  Biso   1.000  H
  H621     1.0000 0.11123  0.07477  0.18267  Biso   1.000  H
  H622     1.0000 0.40810  0.63020  0.48400  Biso   1.000  H
  H623     1.0000 0.36980  0.77790  0.48400  Biso   1.000  H
  H624     1.0000 0.22210  0.59190  0.48400  Biso   1.000  H
  H625     1.0000 0.07477  0.96353  0.81733  Biso   1.000  H
  H626     1.0000 0.03647  0.11123  0.81733  Biso   1.000  H
  H627     1.0000 0.88877  0.92523  0.81733  Biso   1.000  H
  H628     1.0000 0.74143  0.29687  0.15067  Biso   1.000  H
  H629     1.0000 0.70313  0.44457  0.15067  Biso   1.000  H
  H630     1.0000 0.55543  0.25857  0.15067  Biso   1.000  H
  Cu37     1.0000 0.37168  0.21137  0.34441  Biso   1.000  Cu
  Cu38     1.0000 0.78863  0.16031  0.34441  Biso   1.000  Cu
  Cu39     1.0000 0.83969  0.62832  0.34441  Biso   1.000  Cu
  Cu40     1.0000 0.03835  0.54470  0.67774  Biso   1.000  Cu
  Cu41     1.0000 0.45530  0.49364  0.67774  Biso   1.000  Cu
  Cu42     1.0000 0.50636  0.96165  0.67774  Biso   1.000  Cu
  Cu43     1.0000 0.70501  0.87804  0.01108  Biso   1.000  Cu
  Cu44     1.0000 0.12196  0.82698  0.01108  Biso   1.000  Cu
  Cu45     1.0000 0.17302  0.29499  0.01108  Biso   1.000  Cu
  Cu46     1.0000 0.62832  0.78863  0.65559  Biso   1.000  Cu
  Cu47     1.0000 0.21137  0.83969  0.65559  Biso   1.000  Cu
  Cu48     1.0000 0.16031  0.37168  0.65559  Biso   1.000  Cu
  Cu49     1.0000 0.29499  0.12196  0.98892  Biso   1.000  Cu
  Cu50     1.0000 0.87804  0.17302  0.98892  Biso   1.000  Cu
  Cu51     1.0000 0.82698  0.70501  0.98892  Biso   1.000  Cu
  Cu52     1.0000 0.96165  0.45530  0.32226  Biso   1.000  Cu
  Cu53     1.0000 0.54470  0.50636  0.32226  Biso   1.000  Cu
  Cu54     1.0000 0.49364  0.03835  0.32226  Biso   1.000  Cu
  Cu55     1.0000 0.27505  0.15583  0.32198  Biso   1.000  Cu
  Cu56     1.0000 0.84417  0.11922  0.32198  Biso   1.000  Cu
  Cu57     1.0000 0.88078  0.72495  0.32198  Biso   1.000  Cu
  Cu58     1.0000 0.94172  0.48916  0.65531  Biso   1.000  Cu
  Cu59     1.0000 0.51084  0.45255  0.65531  Biso   1.000  Cu
  Cu60     1.0000 0.54745  0.05828  0.65531  Biso   1.000  Cu
  Cu61     1.0000 0.60838  0.82250  0.98865  Biso   1.000  Cu
  Cu62     1.0000 0.17750  0.78589  0.98865  Biso   1.000  Cu
  Cu63     1.0000 0.21411  0.39162  0.98865  Biso   1.000  Cu
  Cu64     1.0000 0.72495  0.84417  0.67802  Biso   1.000  Cu
  Cu65     1.0000 0.15583  0.88078  0.67802  Biso   1.000  Cu
  Cu66     1.0000 0.11922  0.27505  0.67802  Biso   1.000  Cu
  Cu67     1.0000 0.39162  0.17750  0.01135  Biso   1.000  Cu
  Cu68     1.0000 0.82250  0.21411  0.01135  Biso   1.000  Cu
  Cu69     1.0000 0.78589  0.60838  0.01135  Biso   1.000  Cu
  Cu70     1.0000 0.05828  0.51084  0.34469  Biso   1.000  Cu
  Cu71     1.0000 0.48916  0.54745  0.34469  Biso   1.000  Cu
  Cu72     1.0000 0.45255  0.94172  0.34469  Biso   1.000  Cu
  O55      1.0000 0.32108  0.21561  0.32245  Biso   1.000  O
  O56      1.0000 0.78439  0.10547  0.32245  Biso   1.000  O
  O57      1.0000 0.89453  0.67892  0.32245  Biso   1.000  O
  O58      1.0000 0.98775  0.54894  0.65578  Biso   1.000  O
  O59      1.0000 0.45106  0.43880  0.65578  Biso   1.000  O
  O60      1.0000 0.56120  0.01225  0.65578  Biso   1.000  O
  O61      1.0000 0.65441  0.88228  0.98912  Biso   1.000  O
  O62      1.0000 0.11772  0.77214  0.98912  Biso   1.000  O
  O63      1.0000 0.22786  0.34559  0.98912  Biso   1.000  O
  O64      1.0000 0.67892  0.78439  0.67755  Biso   1.000  O
  O65      1.0000 0.21561  0.89453  0.67755  Biso   1.000  O
  O66      1.0000 0.10547  0.32108  0.67755  Biso   1.000  O
  O67      1.0000 0.34559  0.11772  0.01088  Biso   1.000  O
  O68      1.0000 0.88228  0.22786  0.01088  Biso   1.000  O
  O69      1.0000 0.77214  0.65441  0.01088  Biso   1.000  O
  O70      1.0000 0.01225  0.45106  0.34422  Biso   1.000  O
  O71      1.0000 0.54894  0.56120  0.34422  Biso   1.000  O
  O72      1.0000 0.43880  0.98775  0.34422  Biso   1.000  O
  N235     1.0000 0.40719  0.27161  0.34500  Biso   1.000  N
  N236     1.0000 0.72839  0.13558  0.34500  Biso   1.000  N
  N237     1.0000 0.86442  0.59281  0.34500  Biso   1.000  N
  N238     1.0000 0.07386  0.60494  0.67833  Biso   1.000  N
  N239     1.0000 0.39506  0.46891  0.67833  Biso   1.000  N
  N240     1.0000 0.53109  0.92614  0.67833  Biso   1.000  N
  N241     1.0000 0.74052  0.93828  0.01167  Biso   1.000  N
  N242     1.0000 0.06172  0.80225  0.01167  Biso   1.000  N
  N243     1.0000 0.19775  0.25948  0.01167  Biso   1.000  N
  N244     1.0000 0.59281  0.72839  0.65500  Biso   1.000  N
  N245     1.0000 0.27161  0.86442  0.65500  Biso   1.000  N
  N246     1.0000 0.13558  0.40719  0.65500  Biso   1.000  N
  N247     1.0000 0.25948  0.06172  0.98833  Biso   1.000  N
  N248     1.0000 0.93828  0.19775  0.98833  Biso   1.000  N
  N249     1.0000 0.80225  0.74052  0.98833  Biso   1.000  N
  N250     1.0000 0.92614  0.39506  0.32167  Biso   1.000  N
  N251     1.0000 0.60494  0.53109  0.32167  Biso   1.000  N
  N252     1.0000 0.46891  0.07386  0.32167  Biso   1.000  N
  N253     1.0000 0.23262  0.17170  0.30250  Biso   1.000  N
  N254     1.0000 0.82830  0.06092  0.30250  Biso   1.000  N
  N255     1.0000 0.93908  0.76738  0.30250  Biso   1.000  N
  N256     1.0000 0.89929  0.50503  0.63583  Biso   1.000  N
  N257     1.0000 0.49497  0.39425  0.63583  Biso   1.000  N
  N258     1.0000 0.60575  0.10071  0.63583  Biso   1.000  N
  N259     1.0000 0.56595  0.83837  0.96917  Biso   1.000  N
  N260     1.0000 0.16163  0.72759  0.96917  Biso   1.000  N
  N261     1.0000 0.27241  0.43405  0.96917  Biso   1.000  N
  N262     1.0000 0.76738  0.82830  0.69750  Biso   1.000  N
  N263     1.0000 0.17170  0.93908  0.69750  Biso   1.000  N
  N264     1.0000 0.06092  0.23262  0.69750  Biso   1.000  N
  N265     1.0000 0.43405  0.16163  0.03083  Biso   1.000  N
  N266     1.0000 0.83837  0.27241  0.03083  Biso   1.000  N
  N267     1.0000 0.72759  0.56595  0.03083  Biso   1.000  N
  N268     1.0000 0.10071  0.49497  0.36417  Biso   1.000  N
  N269     1.0000 0.50503  0.60575  0.36417  Biso   1.000  N
  N270     1.0000 0.39425  0.89929  0.36417  Biso   1.000  N
  N271     1.0000 0.40520  0.20055  0.40520  Biso   1.000  N
  N272     1.0000 0.79945  0.20465  0.40520  Biso   1.000  N
  N273     1.0000 0.79535  0.59480  0.40520  Biso   1.000  N
  N274     1.0000 0.07187  0.53388  0.73853  Biso   1.000  N
  N275     1.0000 0.46612  0.53798  0.73853  Biso   1.000  N
  N276     1.0000 0.46202  0.92813  0.73853  Biso   1.000  N
  N277     1.0000 0.73853  0.86722  0.07187  Biso   1.000  N
  N278     1.0000 0.13278  0.87132  0.07187  Biso   1.000  N
  N279     1.0000 0.12868  0.26147  0.07187  Biso   1.000  N
  N280     1.0000 0.59480  0.79945  0.59480  Biso   1.000  N
  N281     1.0000 0.20055  0.79535  0.59480  Biso   1.000  N
  N282     1.0000 0.20465  0.40520  0.59480  Biso   1.000  N
  N283     1.0000 0.26147  0.13278  0.92813  Biso   1.000  N
  N284     1.0000 0.86722  0.12868  0.92813  Biso   1.000  N
  N285     1.0000 0.87132  0.73853  0.92813  Biso   1.000  N
  N286     1.0000 0.92813  0.46612  0.26147  Biso   1.000  N
  N287     1.0000 0.53388  0.46202  0.26147  Biso   1.000  N
  N288     1.0000 0.53798  0.07187  0.26147  Biso   1.000  N
  N289     1.0000 0.42210  0.18050  0.39300  Biso   1.000  N
  N290     1.0000 0.81950  0.24160  0.39300  Biso   1.000  N
  N291     1.0000 0.75840  0.57790  0.39300  Biso   1.000  N
  N292     1.0000 0.08877  0.51383  0.72633  Biso   1.000  N
  N293     1.0000 0.48617  0.57493  0.72633  Biso   1.000  N
  N294     1.0000 0.42507  0.91123  0.72633  Biso   1.000  N
  N295     1.0000 0.75543  0.84717  0.05967  Biso   1.000  N
  N296     1.0000 0.15283  0.90827  0.05967  Biso   1.000  N
  N297     1.0000 0.09173  0.24457  0.05967  Biso   1.000  N
  N298     1.0000 0.57790  0.81950  0.60700  Biso   1.000  N
  N299     1.0000 0.18050  0.75840  0.60700  Biso   1.000  N
  N300     1.0000 0.24160  0.42210  0.60700  Biso   1.000  N
  N301     1.0000 0.24457  0.15283  0.94033  Biso   1.000  N
  N302     1.0000 0.84717  0.09173  0.94033  Biso   1.000  N
  N303     1.0000 0.90827  0.75543  0.94033  Biso   1.000  N
  N304     1.0000 0.91123  0.48617  0.27367  Biso   1.000  N
  N305     1.0000 0.51383  0.42507  0.27367  Biso   1.000  N
  N306     1.0000 0.57493  0.08877  0.27367  Biso   1.000  N
  N307     1.0000 0.43870  0.16230  0.38260  Biso   1.000  N
  N308     1.0000 0.83770  0.27640  0.38260  Biso   1.000  N
  N309     1.0000 0.72360  0.56130  0.38260  Biso   1.000  N
  N310     1.0000 0.10537  0.49563  0.71593  Biso   1.000  N
  N311     1.0000 0.50437  0.60973  0.71593  Biso   1.000  N
  N312     1.0000 0.39027  0.89463  0.71593  Biso   1.000  N
  N313     1.0000 0.77203  0.82897  0.04927  Biso   1.000  N
  N314     1.0000 0.17103  0.94307  0.04927  Biso   1.000  N
  N315     1.0000 0.05693  0.22797  0.04927  Biso   1.000  N
  N316     1.0000 0.56130  0.83770  0.61740  Biso   1.000  N
  N317     1.0000 0.16230  0.72360  0.61740  Biso   1.000  N
  N318     1.0000 0.27640  0.43870  0.61740  Biso   1.000  N
  N319     1.0000 0.22797  0.17103  0.95073  Biso   1.000  N
  N320     1.0000 0.82897  0.05693  0.95073  Biso   1.000  N
  N321     1.0000 0.94307  0.77203  0.95073  Biso   1.000  N
  N322     1.0000 0.89463  0.50437  0.28407  Biso   1.000  N
  N323     1.0000 0.49563  0.39027  0.28407  Biso   1.000  N
  N324     1.0000 0.60973  0.10537  0.28407  Biso   1.000  N
  N325     1.0000 0.23590  0.09720  0.32080  Biso   1.000  N
  N326     1.0000 0.90280  0.13870  0.32080  Biso   1.000  N
  N327     1.0000 0.86130  0.76410  0.32080  Biso   1.000  N
  N328     1.0000 0.90257  0.43053  0.65413  Biso   1.000  N
  N329     1.0000 0.56947  0.47203  0.65413  Biso   1.000  N
  N330     1.0000 0.52797  0.09743  0.65413  Biso   1.000  N
  N331     1.0000 0.56923  0.76387  0.98747  Biso   1.000  N
  N332     1.0000 0.23613  0.80537  0.98747  Biso   1.000  N
  N333     1.0000 0.19463  0.43077  0.98747  Biso   1.000  N
  N334     1.0000 0.76410  0.90280  0.67920  Biso   1.000  N
  N335     1.0000 0.09720  0.86130  0.67920  Biso   1.000  N
  N336     1.0000 0.13870  0.23590  0.67920  Biso   1.000  N
  N337     1.0000 0.43077  0.23613  0.01253  Biso   1.000  N
  N338     1.0000 0.76387  0.19463  0.01253  Biso   1.000  N
  N339     1.0000 0.80537  0.56923  0.01253  Biso   1.000  N
  N340     1.0000 0.09743  0.56947  0.34587  Biso   1.000  N
  N341     1.0000 0.43053  0.52797  0.34587  Biso   1.000  N
  N342     1.0000 0.47203  0.90257  0.34587  Biso   1.000  N
  N343     1.0000 0.22820  0.06730  0.30760  Biso   1.000  N
  N344     1.0000 0.93270  0.16090  0.30760  Biso   1.000  N
  N345     1.0000 0.83910  0.77180  0.30760  Biso   1.000  N
  N346     1.0000 0.89487  0.40063  0.64093  Biso   1.000  N
  N347     1.0000 0.59937  0.49423  0.64093  Biso   1.000  N
  N348     1.0000 0.50577  0.10513  0.64093  Biso   1.000  N
  N349     1.0000 0.56153  0.73397  0.97427  Biso   1.000  N
  N350     1.0000 0.26603  0.82757  0.97427  Biso   1.000  N
  N351     1.0000 0.17243  0.43847  0.97427  Biso   1.000  N
  N352     1.0000 0.77180  0.93270  0.69240  Biso   1.000  N
  N353     1.0000 0.06730  0.83910  0.69240  Biso   1.000  N
  N354     1.0000 0.16090  0.22820  0.69240  Biso   1.000  N
  N355     1.0000 0.43847  0.26603  0.02573  Biso   1.000  N
  N356     1.0000 0.73397  0.17243  0.02573  Biso   1.000  N
  N357     1.0000 0.82757  0.56153  0.02573  Biso   1.000  N
  N358     1.0000 0.10513  0.59937  0.35907  Biso   1.000  N
  N359     1.0000 0.40063  0.50577  0.35907  Biso   1.000  N
  N360     1.0000 0.49423  0.89487  0.35907  Biso   1.000  N
  N361     1.0000 0.22340  0.03550  0.30160  Biso   1.000  N
  N362     1.0000 0.96450  0.18790  0.30160  Biso   1.000  N
  N363     1.0000 0.81210  0.77660  0.30160  Biso   1.000  N
  N364     1.0000 0.89007  0.36883  0.63493  Biso   1.000  N
  N365     1.0000 0.63117  0.52123  0.63493  Biso   1.000  N
  N366     1.0000 0.47877  0.10993  0.63493  Biso   1.000  N
  N367     1.0000 0.55673  0.70217  0.96827  Biso   1.000  N
  N368     1.0000 0.29783  0.85457  0.96827  Biso   1.000  N
  N369     1.0000 0.14543  0.44327  0.96827  Biso   1.000  N
  N370     1.0000 0.77660  0.96450  0.69840  Biso   1.000  N
  N371     1.0000 0.03550  0.81210  0.69840  Biso   1.000  N
  N372     1.0000 0.18790  0.22340  0.69840  Biso   1.000  N
  N373     1.0000 0.44327  0.29783  0.03173  Biso   1.000  N
  N374     1.0000 0.70217  0.14543  0.03173  Biso   1.000  N
  N375     1.0000 0.85457  0.55673  0.03173  Biso   1.000  N
  N376     1.0000 0.10993  0.63117  0.36507  Biso   1.000  N
  N377     1.0000 0.36883  0.47877  0.36507  Biso   1.000  N
  N378     1.0000 0.52123  0.89007  0.36507  Biso   1.000  N
  N379     1.0000 0.32619  0.15318  0.33850  Biso   1.000  N
  N380     1.0000 0.84682  0.17301  0.33850  Biso   1.000  N
  N381     1.0000 0.82699  0.67381  0.33850  Biso   1.000  N
  N382     1.0000 0.99286  0.48651  0.67183  Biso   1.000  N
  N383     1.0000 0.51349  0.50634  0.67183  Biso   1.000  N
  N384     1.0000 0.49366  0.00714  0.67183  Biso   1.000  N
  N385     1.0000 0.65952  0.81985  0.00517  Biso   1.000  N
  N386     1.0000 0.18015  0.83968  0.00517  Biso   1.000  N
  N387     1.0000 0.16032  0.34048  0.00517  Biso   1.000  N
  N388     1.0000 0.67381  0.84682  0.66150  Biso   1.000  N
  N389     1.0000 0.15318  0.82699  0.66150  Biso   1.000  N
  N390     1.0000 0.17301  0.32619  0.66150  Biso   1.000  N
  N391     1.0000 0.34048  0.18015  0.99483  Biso   1.000  N
  N392     1.0000 0.81985  0.16032  0.99483  Biso   1.000  N
  N393     1.0000 0.83968  0.65952  0.99483  Biso   1.000  N
  N394     1.0000 0.00714  0.51349  0.32817  Biso   1.000  N
  N395     1.0000 0.48651  0.49366  0.32817  Biso   1.000  N
  N396     1.0000 0.50634  0.99286  0.32817  Biso   1.000  N
  N397     1.0000 0.32890  0.12200  0.34510  Biso   1.000  N
  N398     1.0000 0.87800  0.20690  0.34510  Biso   1.000  N
  N399     1.0000 0.79310  0.67110  0.34510  Biso   1.000  N
  N400     1.0000 0.99557  0.45533  0.67843  Biso   1.000  N
  N401     1.0000 0.54467  0.54023  0.67843  Biso   1.000  N
  N402     1.0000 0.45977  0.00443  0.67843  Biso   1.000  N
  N403     1.0000 0.66223  0.78867  0.01177  Biso   1.000  N
  N404     1.0000 0.21133  0.87357  0.01177  Biso   1.000  N
  N405     1.0000 0.12643  0.33777  0.01177  Biso   1.000  N
  N406     1.0000 0.67110  0.87800  0.65490  Biso   1.000  N
  N407     1.0000 0.12200  0.79310  0.65490  Biso   1.000  N
  N408     1.0000 0.20690  0.32890  0.65490  Biso   1.000  N
  N409     1.0000 0.33777  0.21133  0.98823  Biso   1.000  N
  N410     1.0000 0.78867  0.12643  0.98823  Biso   1.000  N
  N411     1.0000 0.87357  0.66223  0.98823  Biso   1.000  N
  N412     1.0000 0.00443  0.54467  0.32157  Biso   1.000  N
  N413     1.0000 0.45533  0.45977  0.32157  Biso   1.000  N
  N414     1.0000 0.54023  0.99557  0.32157  Biso   1.000  N
  N415     1.0000 0.33210  0.09350  0.35150  Biso   1.000  N
  N416     1.0000 0.90650  0.23860  0.35150  Biso   1.000  N
  N417     1.0000 0.76140  0.66790  0.35150  Biso   1.000  N
  N418     1.0000 0.99877  0.42683  0.68483  Biso   1.000  N
  N419     1.0000 0.57317  0.57193  0.68483  Biso   1.000  N
  N420     1.0000 0.42807  0.00123  0.68483  Biso   1.000  N
  N421     1.0000 0.66543  0.76017  0.01817  Biso   1.000  N
  N422     1.0000 0.23983  0.90527  0.01817  Biso   1.000  N
  N423     1.0000 0.09473  0.33457  0.01817  Biso   1.000  N
  N424     1.0000 0.66790  0.90650  0.64850  Biso   1.000  N
  N425     1.0000 0.09350  0.76140  0.64850  Biso   1.000  N
  N426     1.0000 0.23860  0.33210  0.64850  Biso   1.000  N
  N427     1.0000 0.33457  0.23983  0.98183  Biso   1.000  N
  N428     1.0000 0.76017  0.09473  0.98183  Biso   1.000  N
  N429     1.0000 0.90527  0.66543  0.98183  Biso   1.000  N
  N430     1.0000 0.00123  0.57317  0.31517  Biso   1.000  N
  N431     1.0000 0.42683  0.42807  0.31517  Biso   1.000  N
  N432     1.0000 0.57193  0.99877  0.31517  Biso   1.000  N
  C415     1.0000 0.31780  0.25000  0.31720  Biso   1.000  C
  C416     1.0000 0.75000  0.06780  0.31720  Biso   1.000  C
  C417     1.0000 0.93220  0.68220  0.31720  Biso   1.000  C
  C418     1.0000 0.98447  0.58333  0.65053  Biso   1.000  C
  C419     1.0000 0.41667  0.40113  0.65053  Biso   1.000  C
  C420     1.0000 0.59887  0.01553  0.65053  Biso   1.000  C
  C421     1.0000 0.65113  0.91667  0.98387  Biso   1.000  C
  C422     1.0000 0.08333  0.73447  0.98387  Biso   1.000  C
  C423     1.0000 0.26553  0.34887  0.98387  Biso   1.000  C
  C424     1.0000 0.68220  0.75000  0.68280  Biso   1.000  C
  C425     1.0000 0.25000  0.93220  0.68280  Biso   1.000  C
  C426     1.0000 0.06780  0.31780  0.68280  Biso   1.000  C
  C427     1.0000 0.34887  0.08333  0.01613  Biso   1.000  C
  C428     1.0000 0.91667  0.26553  0.01613  Biso   1.000  C
  C429     1.0000 0.73447  0.65113  0.01613  Biso   1.000  C
  C430     1.0000 0.01553  0.41667  0.34947  Biso   1.000  C
  C431     1.0000 0.58333  0.59887  0.34947  Biso   1.000  C
  C432     1.0000 0.40113  0.98447  0.34947  Biso   1.000  C
  C433     1.0000 0.35320  0.29000  0.32490  Biso   1.000  C
  C434     1.0000 0.71000  0.06320  0.32490  Biso   1.000  C
  C435     1.0000 0.93680  0.64680  0.32490  Biso   1.000  C
  C436     1.0000 0.01987  0.62333  0.65823  Biso   1.000  C
  C437     1.0000 0.37667  0.39653  0.65823  Biso   1.000  C
  C438     1.0000 0.60347  0.98013  0.65823  Biso   1.000  C
  C439     1.0000 0.68653  0.95667  0.99157  Biso   1.000  C
  C440     1.0000 0.04333  0.72987  0.99157  Biso   1.000  C
  C441     1.0000 0.27013  0.31347  0.99157  Biso   1.000  C
  C442     1.0000 0.64680  0.71000  0.67510  Biso   1.000  C
  C443     1.0000 0.29000  0.93680  0.67510  Biso   1.000  C
  C444     1.0000 0.06320  0.35320  0.67510  Biso   1.000  C
  C445     1.0000 0.31347  0.04333  0.00843  Biso   1.000  C
  C446     1.0000 0.95667  0.27013  0.00843  Biso   1.000  C
  C447     1.0000 0.72987  0.68653  0.00843  Biso   1.000  C
  C448     1.0000 0.98013  0.37667  0.34177  Biso   1.000  C
  C449     1.0000 0.62333  0.60347  0.34177  Biso   1.000  C
  C450     1.0000 0.39653  0.01987  0.34177  Biso   1.000  C
  C451     1.0000 0.34860  0.32520  0.31870  Biso   1.000  C
  C452     1.0000 0.67480  0.02340  0.31870  Biso   1.000  C
  C453     1.0000 0.97660  0.65140  0.31870  Biso   1.000  C
  C454     1.0000 0.01527  0.65853  0.65203  Biso   1.000  C
  C455     1.0000 0.34147  0.35673  0.65203  Biso   1.000  C
  C456     1.0000 0.64327  0.98473  0.65203  Biso   1.000  C
  C457     1.0000 0.68193  0.99187  0.98537  Biso   1.000  C
  C458     1.0000 0.00813  0.69007  0.98537  Biso   1.000  C
  C459     1.0000 0.30993  0.31807  0.98537  Biso   1.000  C
  C460     1.0000 0.65140  0.67480  0.68130  Biso   1.000  C
  C461     1.0000 0.32520  0.97660  0.68130  Biso   1.000  C
  C462     1.0000 0.02340  0.34860  0.68130  Biso   1.000  C
  C463     1.0000 0.31807  0.00813  0.01463  Biso   1.000  C
  C464     1.0000 0.99187  0.30993  0.01463  Biso   1.000  C
  C465     1.0000 0.69007  0.68193  0.01463  Biso   1.000  C
  C466     1.0000 0.98473  0.34147  0.34797  Biso   1.000  C
  C467     1.0000 0.65853  0.64327  0.34797  Biso   1.000  C
  C468     1.0000 0.35673  0.01527  0.34797  Biso   1.000  C
  H631     1.0000 0.37240  0.35130  0.32230  Biso   1.000  H
  H632     1.0000 0.64870  0.02110  0.32230  Biso   1.000  H
  H633     1.0000 0.97890  0.62760  0.32230  Biso   1.000  H
  H634     1.0000 0.03907  0.68463  0.65563  Biso   1.000  H
  H635     1.0000 0.31537  0.35443  0.65563  Biso   1.000  H
  H636     1.0000 0.64557  0.96093  0.65563  Biso   1.000  H
  H637     1.0000 0.70573  0.01797  0.98897  Biso   1.000  H
  H638     1.0000 0.98203  0.68777  0.98897  Biso   1.000  H
  H639     1.0000 0.31223  0.29427  0.98897  Biso   1.000  H
  H640     1.0000 0.62760  0.64870  0.67770  Biso   1.000  H
  H641     1.0000 0.35130  0.97890  0.67770  Biso   1.000  H
  H642     1.0000 0.02110  0.37240  0.67770  Biso   1.000  H
  H643     1.0000 0.29427  0.98203  0.01103  Biso   1.000  H
  H644     1.0000 0.01797  0.31223  0.01103  Biso   1.000  H
  H645     1.0000 0.68777  0.70573  0.01103  Biso   1.000  H
  H646     1.0000 0.96093  0.31537  0.34437  Biso   1.000  H
  H647     1.0000 0.68463  0.64557  0.34437  Biso   1.000  H
  H648     1.0000 0.35443  0.03907  0.34437  Biso   1.000  H
  C469     1.0000 0.31140  0.32330  0.30780  Biso   1.000  C
  C470     1.0000 0.67670  0.98810  0.30780  Biso   1.000  C
  C471     1.0000 0.01190  0.68860  0.30780  Biso   1.000  C
  C472     1.0000 0.97807  0.65663  0.64113  Biso   1.000  C
  C473     1.0000 0.34337  0.32143  0.64113  Biso   1.000  C
  C474     1.0000 0.67857  0.02193  0.64113  Biso   1.000  C
  C475     1.0000 0.64473  0.98997  0.97447  Biso   1.000  C
  C476     1.0000 0.01003  0.65477  0.97447  Biso   1.000  C
  C477     1.0000 0.34523  0.35527  0.97447  Biso   1.000  C
  C478     1.0000 0.68860  0.67670  0.69220  Biso   1.000  C
  C479     1.0000 0.32330  0.01190  0.69220  Biso   1.000  C
  C480     1.0000 0.98810  0.31140  0.69220  Biso   1.000  C
  C481     1.0000 0.35527  0.01003  0.02553  Biso   1.000  C
  C482     1.0000 0.98997  0.34523  0.02553  Biso   1.000  C
  C483     1.0000 0.65477  0.64473  0.02553  Biso   1.000  C
  C484     1.0000 0.02193  0.34337  0.35887  Biso   1.000  C
  C485     1.0000 0.65663  0.67857  0.35887  Biso   1.000  C
  C486     1.0000 0.32143  0.97807  0.35887  Biso   1.000  C
  C487     1.0000 0.30830  0.36220  0.30350  Biso   1.000  C
  C488     1.0000 0.63780  0.94610  0.30350  Biso   1.000  C
  C489     1.0000 0.05390  0.69170  0.30350  Biso   1.000  C
  C490     1.0000 0.97497  0.69553  0.63683  Biso   1.000  C
  C491     1.0000 0.30447  0.27943  0.63683  Biso   1.000  C
  C492     1.0000 0.72057  0.02503  0.63683  Biso   1.000  C
  C493     1.0000 0.64163  0.02887  0.97017  Biso   1.000  C
  C494     1.0000 0.97113  0.61277  0.97017  Biso   1.000  C
  C495     1.0000 0.38723  0.35837  0.97017  Biso   1.000  C
  C496     1.0000 0.69170  0.63780  0.69650  Biso   1.000  C
  C497     1.0000 0.36220  0.05390  0.69650  Biso   1.000  C
  C498     1.0000 0.94610  0.30830  0.69650  Biso   1.000  C
  C499     1.0000 0.35837  0.97113  0.02983  Biso   1.000  C
  C500     1.0000 0.02887  0.38723  0.02983  Biso   1.000  C
  C501     1.0000 0.61277  0.64163  0.02983  Biso   1.000  C
  C502     1.0000 0.02503  0.30447  0.36317  Biso   1.000  C
  C503     1.0000 0.69553  0.72057  0.36317  Biso   1.000  C
  C504     1.0000 0.27943  0.97497  0.36317  Biso   1.000  C
  H649     1.0000 0.29740  0.36620  0.34110  Biso   1.000  H
  H650     1.0000 0.63380  0.93120  0.34110  Biso   1.000  H
  H651     1.0000 0.06880  0.70260  0.34110  Biso   1.000  H
  H652     1.0000 0.96407  0.69953  0.67443  Biso   1.000  H
  H653     1.0000 0.30047  0.26453  0.67443  Biso   1.000  H
  H654     1.0000 0.73547  0.03593  0.67443  Biso   1.000  H
  H655     1.0000 0.63073  0.03287  0.00777  Biso   1.000  H
  H656     1.0000 0.96713  0.59787  0.00777  Biso   1.000  H
  H657     1.0000 0.40213  0.36927  0.00777  Biso   1.000  H
  H658     1.0000 0.70260  0.63380  0.65890  Biso   1.000  H
  H659     1.0000 0.36620  0.06880  0.65890  Biso   1.000  H
  H660     1.0000 0.93120  0.29740  0.65890  Biso   1.000  H
  H661     1.0000 0.36927  0.96713  0.99223  Biso   1.000  H
  H662     1.0000 0.03287  0.40213  0.99223  Biso   1.000  H
  H663     1.0000 0.59787  0.63073  0.99223  Biso   1.000  H
  H664     1.0000 0.03593  0.30047  0.32557  Biso   1.000  H
  H665     1.0000 0.69953  0.73547  0.32557  Biso   1.000  H
  H666     1.0000 0.26453  0.96407  0.32557  Biso   1.000  H
  H667     1.0000 0.29000  0.35940  0.27050  Biso   1.000  H
  H668     1.0000 0.64060  0.93060  0.27050  Biso   1.000  H
  H669     1.0000 0.06940  0.71000  0.27050  Biso   1.000  H
  H670     1.0000 0.95667  0.69273  0.60383  Biso   1.000  H
  H671     1.0000 0.30727  0.26393  0.60383  Biso   1.000  H
  H672     1.0000 0.73607  0.04333  0.60383  Biso   1.000  H
  H673     1.0000 0.62333  0.02607  0.93717  Biso   1.000  H
  H674     1.0000 0.97393  0.59727  0.93717  Biso   1.000  H
  H675     1.0000 0.40273  0.37667  0.93717  Biso   1.000  H
  H676     1.0000 0.71000  0.64060  0.72950  Biso   1.000  H
  H677     1.0000 0.35940  0.06940  0.72950  Biso   1.000  H
  H678     1.0000 0.93060  0.29000  0.72950  Biso   1.000  H
  H679     1.0000 0.37667  0.97393  0.06283  Biso   1.000  H
  H680     1.0000 0.02607  0.40273  0.06283  Biso   1.000  H
  H681     1.0000 0.59727  0.62333  0.06283  Biso   1.000  H
  H682     1.0000 0.04333  0.30727  0.39617  Biso   1.000  H
  H683     1.0000 0.69273  0.73607  0.39617  Biso   1.000  H
  H684     1.0000 0.26393  0.95667  0.39617  Biso   1.000  H
  H685     1.0000 0.33540  0.38570  0.29610  Biso   1.000  H
  H686     1.0000 0.61430  0.94970  0.29610  Biso   1.000  H
  H687     1.0000 0.05030  0.66460  0.29610  Biso   1.000  H
  H688     1.0000 0.00207  0.71903  0.62943  Biso   1.000  H
  H689     1.0000 0.28097  0.28303  0.62943  Biso   1.000  H
  H690     1.0000 0.71697  0.99793  0.62943  Biso   1.000  H
  H691     1.0000 0.66873  0.05237  0.96277  Biso   1.000  H
  H692     1.0000 0.94763  0.61637  0.96277  Biso   1.000  H
  H693     1.0000 0.38363  0.33127  0.96277  Biso   1.000  H
  H694     1.0000 0.66460  0.61430  0.70390  Biso   1.000  H
  H695     1.0000 0.38570  0.05030  0.70390  Biso   1.000  H
  H696     1.0000 0.94970  0.33540  0.70390  Biso   1.000  H
  H697     1.0000 0.33127  0.94763  0.03723  Biso   1.000  H
  H698     1.0000 0.05237  0.38363  0.03723  Biso   1.000  H
  H699     1.0000 0.61637  0.66873  0.03723  Biso   1.000  H
  H700     1.0000 0.99793  0.28097  0.37057  Biso   1.000  H
  H701     1.0000 0.71903  0.71697  0.37057  Biso   1.000  H
  H702     1.0000 0.28303  0.00207  0.37057  Biso   1.000  H
  C505     1.0000 0.27770  0.28430  0.30000  Biso   1.000  C
  C506     1.0000 0.71570  0.99340  0.30000  Biso   1.000  C
  C507     1.0000 0.00660  0.72230  0.30000  Biso   1.000  C
  C508     1.0000 0.94437  0.61763  0.63333  Biso   1.000  C
  C509     1.0000 0.38237  0.32673  0.63333  Biso   1.000  C
  C510     1.0000 0.67327  0.05563  0.63333  Biso   1.000  C
  C511     1.0000 0.61103  0.95097  0.96667  Biso   1.000  C
  C512     1.0000 0.04903  0.66007  0.96667  Biso   1.000  C
  C513     1.0000 0.33993  0.38897  0.96667  Biso   1.000  C
  C514     1.0000 0.72230  0.71570  0.70000  Biso   1.000  C
  C515     1.0000 0.28430  0.00660  0.70000  Biso   1.000  C
  C516     1.0000 0.99340  0.27770  0.70000  Biso   1.000  C
  C517     1.0000 0.38897  0.04903  0.03333  Biso   1.000  C
  C518     1.0000 0.95097  0.33993  0.03333  Biso   1.000  C
  C519     1.0000 0.66007  0.61103  0.03333  Biso   1.000  C
  C520     1.0000 0.05563  0.38237  0.36667  Biso   1.000  C
  C521     1.0000 0.61763  0.67327  0.36667  Biso   1.000  C
  C522     1.0000 0.32673  0.94437  0.36667  Biso   1.000  C
  H703     1.0000 0.25210  0.28210  0.29110  Biso   1.000  H
  H704     1.0000 0.71790  0.97000  0.29110  Biso   1.000  H
  H705     1.0000 0.03000  0.74790  0.29110  Biso   1.000  H
  H706     1.0000 0.91877  0.61543  0.62443  Biso   1.000  H
  H707     1.0000 0.38457  0.30333  0.62443  Biso   1.000  H
  H708     1.0000 0.69667  0.08123  0.62443  Biso   1.000  H
  H709     1.0000 0.58543  0.94877  0.95777  Biso   1.000  H
  H710     1.0000 0.05123  0.63667  0.95777  Biso   1.000  H
  H711     1.0000 0.36333  0.41457  0.95777  Biso   1.000  H
  H712     1.0000 0.74790  0.71790  0.70890  Biso   1.000  H
  H713     1.0000 0.28210  0.03000  0.70890  Biso   1.000  H
  H714     1.0000 0.97000  0.25210  0.70890  Biso   1.000  H
  H715     1.0000 0.41457  0.05123  0.04223  Biso   1.000  H
  H716     1.0000 0.94877  0.36333  0.04223  Biso   1.000  H
  H717     1.0000 0.63667  0.58543  0.04223  Biso   1.000  H
  H718     1.0000 0.08123  0.38457  0.37557  Biso   1.000  H
  H719     1.0000 0.61543  0.69667  0.37557  Biso   1.000  H
  H720     1.0000 0.30333  0.91877  0.37557  Biso   1.000  H
  C523     1.0000 0.27930  0.24760  0.30460  Biso   1.000  C
  C524     1.0000 0.75240  0.03170  0.30460  Biso   1.000  C
  C525     1.0000 0.96830  0.72070  0.30460  Biso   1.000  C
  C526     1.0000 0.94597  0.58093  0.63793  Biso   1.000  C
  C527     1.0000 0.41907  0.36503  0.63793  Biso   1.000  C
  C528     1.0000 0.63497  0.05403  0.63793  Biso   1.000  C
  C529     1.0000 0.61263  0.91427  0.97127  Biso   1.000  C
  C530     1.0000 0.08573  0.69837  0.97127  Biso   1.000  C
  C531     1.0000 0.30163  0.38737  0.97127  Biso   1.000  C
  C532     1.0000 0.72070  0.75240  0.69540  Biso   1.000  C
  C533     1.0000 0.24760  0.96830  0.69540  Biso   1.000  C
  C534     1.0000 0.03170  0.27930  0.69540  Biso   1.000  C
  C535     1.0000 0.38737  0.08573  0.02873  Biso   1.000  C
  C536     1.0000 0.91427  0.30163  0.02873  Biso   1.000  C
  C537     1.0000 0.69837  0.61263  0.02873  Biso   1.000  C
  C538     1.0000 0.05403  0.41907  0.36207  Biso   1.000  C
  C539     1.0000 0.58093  0.63497  0.36207  Biso   1.000  C
  C540     1.0000 0.36503  0.94597  0.36207  Biso   1.000  C
  C541     1.0000 0.24020  0.20900  0.29790  Biso   1.000  C
  C542     1.0000 0.79100  0.03120  0.29790  Biso   1.000  C
  C543     1.0000 0.96880  0.75980  0.29790  Biso   1.000  C
  C544     1.0000 0.90687  0.54233  0.63123  Biso   1.000  C
  C545     1.0000 0.45767  0.36453  0.63123  Biso   1.000  C
  C546     1.0000 0.63547  0.09313  0.63123  Biso   1.000  C
  C547     1.0000 0.57353  0.87567  0.96457  Biso   1.000  C
  C548     1.0000 0.12433  0.69787  0.96457  Biso   1.000  C
  C549     1.0000 0.30213  0.42647  0.96457  Biso   1.000  C
  C550     1.0000 0.75980  0.79100  0.70210  Biso   1.000  C
  C551     1.0000 0.20900  0.96880  0.70210  Biso   1.000  C
  C552     1.0000 0.03120  0.24020  0.70210  Biso   1.000  C
  C553     1.0000 0.42647  0.12433  0.03543  Biso   1.000  C
  C554     1.0000 0.87567  0.30213  0.03543  Biso   1.000  C
  C555     1.0000 0.69787  0.57353  0.03543  Biso   1.000  C
  C556     1.0000 0.09313  0.45767  0.36877  Biso   1.000  C
  C557     1.0000 0.54233  0.63547  0.36877  Biso   1.000  C
  C558     1.0000 0.36453  0.90687  0.36877  Biso   1.000  C
  H721     1.0000 0.21730  0.21190  0.28880  Biso   1.000  H
  H722     1.0000 0.78810  0.00540  0.28880  Biso   1.000  H
  H723     1.0000 0.99460  0.78270  0.28880  Biso   1.000  H
  H724     1.0000 0.88397  0.54523  0.62213  Biso   1.000  H
  H725     1.0000 0.45477  0.33873  0.62213  Biso   1.000  H
  H726     1.0000 0.66127  0.11603  0.62213  Biso   1.000  H
  H727     1.0000 0.55063  0.87857  0.95547  Biso   1.000  H
  H728     1.0000 0.12143  0.67207  0.95547  Biso   1.000  H
  H729     1.0000 0.32793  0.44937  0.95547  Biso   1.000  H
  H730     1.0000 0.78270  0.78810  0.71120  Biso   1.000  H
  H731     1.0000 0.21190  0.99460  0.71120  Biso   1.000  H
  H732     1.0000 0.00540  0.21730  0.71120  Biso   1.000  H
  H733     1.0000 0.44937  0.12143  0.04453  Biso   1.000  H
  H734     1.0000 0.87857  0.32793  0.04453  Biso   1.000  H
  H735     1.0000 0.67207  0.55063  0.04453  Biso   1.000  H
  H736     1.0000 0.11603  0.45477  0.37787  Biso   1.000  H
  H737     1.0000 0.54523  0.66127  0.37787  Biso   1.000  H
  H738     1.0000 0.33873  0.88397  0.37787  Biso   1.000  H
  C559     1.0000 0.39470  0.29770  0.33600  Biso   1.000  C
  C560     1.0000 0.70230  0.09700  0.33600  Biso   1.000  C
  C561     1.0000 0.90300  0.60530  0.33600  Biso   1.000  C
  C562     1.0000 0.06137  0.63103  0.66933  Biso   1.000  C
  C563     1.0000 0.36897  0.43033  0.66933  Biso   1.000  C
  C564     1.0000 0.56967  0.93863  0.66933  Biso   1.000  C
  C565     1.0000 0.72803  0.96437  0.00267  Biso   1.000  C
  C566     1.0000 0.03563  0.76367  0.00267  Biso   1.000  C
  C567     1.0000 0.23633  0.27197  0.00267  Biso   1.000  C
  C568     1.0000 0.60530  0.70230  0.66400  Biso   1.000  C
  C569     1.0000 0.29770  0.90300  0.66400  Biso   1.000  C
  C570     1.0000 0.09700  0.39470  0.66400  Biso   1.000  C
  C571     1.0000 0.27197  0.03563  0.99733  Biso   1.000  C
  C572     1.0000 0.96437  0.23633  0.99733  Biso   1.000  C
  C573     1.0000 0.76367  0.72803  0.99733  Biso   1.000  C
  C574     1.0000 0.93863  0.36897  0.33067  Biso   1.000  C
  C575     1.0000 0.63103  0.56967  0.33067  Biso   1.000  C
  C576     1.0000 0.43033  0.06137  0.33067  Biso   1.000  C
  H739     1.0000 0.41540  0.32560  0.33660  Biso   1.000  H
  H740     1.0000 0.67440  0.08980  0.33660  Biso   1.000  H
  H741     1.0000 0.91020  0.58460  0.33660  Biso   1.000  H
  H742     1.0000 0.08207  0.65893  0.66993  Biso   1.000  H
  H743     1.0000 0.34107  0.42313  0.66993  Biso   1.000  H
  H744     1.0000 0.57687  0.91793  0.66993  Biso   1.000  H
  H745     1.0000 0.74873  0.99227  0.00327  Biso   1.000  H
  H746     1.0000 0.00773  0.75647  0.00327  Biso   1.000  H
  H747     1.0000 0.24353  0.25127  0.00327  Biso   1.000  H
  H748     1.0000 0.58460  0.67440  0.66340  Biso   1.000  H
  H749     1.0000 0.32560  0.91020  0.66340  Biso   1.000  H
  H750     1.0000 0.08980  0.41540  0.66340  Biso   1.000  H
  H751     1.0000 0.25127  0.00773  0.99673  Biso   1.000  H
  H752     1.0000 0.99227  0.24353  0.99673  Biso   1.000  H
  H753     1.0000 0.75647  0.74873  0.99673  Biso   1.000  H
  H754     1.0000 0.91793  0.34107  0.33007  Biso   1.000  H
  H755     1.0000 0.65893  0.57687  0.33007  Biso   1.000  H
  H756     1.0000 0.42313  0.08207  0.33007  Biso   1.000  H
  C577     1.0000 0.45210  0.28900  0.34900  Biso   1.000  C
  C578     1.0000 0.71100  0.16310  0.34900  Biso   1.000  C
  C579     1.0000 0.83690  0.54790  0.34900  Biso   1.000  C
  C580     1.0000 0.11877  0.62233  0.68233  Biso   1.000  C
  C581     1.0000 0.37767  0.49643  0.68233  Biso   1.000  C
  C582     1.0000 0.50357  0.88123  0.68233  Biso   1.000  C
  C583     1.0000 0.78543  0.95567  0.01567  Biso   1.000  C
  C584     1.0000 0.04433  0.82977  0.01567  Biso   1.000  C
  C585     1.0000 0.17023  0.21457  0.01567  Biso   1.000  C
  C586     1.0000 0.54790  0.71100  0.65100  Biso   1.000  C
  C587     1.0000 0.28900  0.83690  0.65100  Biso   1.000  C
  C588     1.0000 0.16310  0.45210  0.65100  Biso   1.000  C
  C589     1.0000 0.21457  0.04433  0.98433  Biso   1.000  C
  C590     1.0000 0.95567  0.17023  0.98433  Biso   1.000  C
  C591     1.0000 0.82977  0.78543  0.98433  Biso   1.000  C
  C592     1.0000 0.88123  0.37767  0.31767  Biso   1.000  C
  C593     1.0000 0.62233  0.50357  0.31767  Biso   1.000  C
  C594     1.0000 0.49643  0.11877  0.31767  Biso   1.000  C
  H757     1.0000 0.45890  0.27410  0.37920  Biso   1.000  H
  H758     1.0000 0.72590  0.18480  0.37920  Biso   1.000  H
  H759     1.0000 0.81520  0.54110  0.37920  Biso   1.000  H
  H760     1.0000 0.12557  0.60743  0.71253  Biso   1.000  H
  H761     1.0000 0.39257  0.51813  0.71253  Biso   1.000  H
  H762     1.0000 0.48187  0.87443  0.71253  Biso   1.000  H
  H763     1.0000 0.79223  0.94077  0.04587  Biso   1.000  H
  H764     1.0000 0.05923  0.85147  0.04587  Biso   1.000  H
  H765     1.0000 0.14853  0.20777  0.04587  Biso   1.000  H
  H766     1.0000 0.54110  0.72590  0.62080  Biso   1.000  H
  H767     1.0000 0.27410  0.81520  0.62080  Biso   1.000  H
  H768     1.0000 0.18480  0.45890  0.62080  Biso   1.000  H
  H769     1.0000 0.20777  0.05923  0.95413  Biso   1.000  H
  H770     1.0000 0.94077  0.14853  0.95413  Biso   1.000  H
  H771     1.0000 0.85147  0.79223  0.95413  Biso   1.000  H
  H772     1.0000 0.87443  0.39257  0.28747  Biso   1.000  H
  H773     1.0000 0.60743  0.48187  0.28747  Biso   1.000  H
  H774     1.0000 0.51813  0.12557  0.28747  Biso   1.000  H
  H775     1.0000 0.46580  0.31820  0.36040  Biso   1.000  H
  H776     1.0000 0.68180  0.14760  0.36040  Biso   1.000  H
  H777     1.0000 0.85240  0.53420  0.36040  Biso   1.000  H
  H778     1.0000 0.13247  0.65153  0.69373  Biso   1.000  H
  H779     1.0000 0.34847  0.48093  0.69373  Biso   1.000  H
  H780     1.0000 0.51907  0.86753  0.69373  Biso   1.000  H
  H781     1.0000 0.79913  0.98487  0.02707  Biso   1.000  H
  H782     1.0000 0.01513  0.81427  0.02707  Biso   1.000  H
  H783     1.0000 0.18573  0.20087  0.02707  Biso   1.000  H
  H784     1.0000 0.53420  0.68180  0.63960  Biso   1.000  H
  H785     1.0000 0.31820  0.85240  0.63960  Biso   1.000  H
  H786     1.0000 0.14760  0.46580  0.63960  Biso   1.000  H
  H787     1.0000 0.20087  0.01513  0.97293  Biso   1.000  H
  H788     1.0000 0.98487  0.18573  0.97293  Biso   1.000  H
  H789     1.0000 0.81427  0.79913  0.97293  Biso   1.000  H
  H790     1.0000 0.86753  0.34847  0.30627  Biso   1.000  H
  H791     1.0000 0.65153  0.51907  0.30627  Biso   1.000  H
  H792     1.0000 0.48093  0.13247  0.30627  Biso   1.000  H
  C595     1.0000 0.46700  0.28350  0.28030  Biso   1.000  C
  C596     1.0000 0.71650  0.18350  0.28030  Biso   1.000  C
  C597     1.0000 0.81650  0.53300  0.28030  Biso   1.000  C
  C598     1.0000 0.13367  0.61683  0.61363  Biso   1.000  C
  C599     1.0000 0.38317  0.51683  0.61363  Biso   1.000  C
  C600     1.0000 0.48317  0.86633  0.61363  Biso   1.000  C
  C601     1.0000 0.80033  0.95017  0.94697  Biso   1.000  C
  C602     1.0000 0.04983  0.85017  0.94697  Biso   1.000  C
  C603     1.0000 0.14983  0.19967  0.94697  Biso   1.000  C
  C604     1.0000 0.53300  0.71650  0.71970  Biso   1.000  C
  C605     1.0000 0.28350  0.81650  0.71970  Biso   1.000  C
  C606     1.0000 0.18350  0.46700  0.71970  Biso   1.000  C
  C607     1.0000 0.19967  0.04983  0.05303  Biso   1.000  C
  C608     1.0000 0.95017  0.14983  0.05303  Biso   1.000  C
  C609     1.0000 0.85017  0.80033  0.05303  Biso   1.000  C
  C610     1.0000 0.86633  0.38317  0.38637  Biso   1.000  C
  C611     1.0000 0.61683  0.48317  0.38637  Biso   1.000  C
  C612     1.0000 0.51683  0.13367  0.38637  Biso   1.000  C
  H793     1.0000 0.45820  0.29720  0.25110  Biso   1.000  H
  H794     1.0000 0.70280  0.16100  0.25110  Biso   1.000  H
  H795     1.0000 0.83900  0.54180  0.25110  Biso   1.000  H
  H796     1.0000 0.12487  0.63053  0.58443  Biso   1.000  H
  H797     1.0000 0.36947  0.49433  0.58443  Biso   1.000  H
  H798     1.0000 0.50567  0.87513  0.58443  Biso   1.000  H
  H799     1.0000 0.79153  0.96387  0.91777  Biso   1.000  H
  H800     1.0000 0.03613  0.82767  0.91777  Biso   1.000  H
  H801     1.0000 0.17233  0.20847  0.91777  Biso   1.000  H
  H802     1.0000 0.54180  0.70280  0.74890  Biso   1.000  H
  H803     1.0000 0.29720  0.83900  0.74890  Biso   1.000  H
  H804     1.0000 0.16100  0.45820  0.74890  Biso   1.000  H
  H805     1.0000 0.20847  0.03613  0.08223  Biso   1.000  H
  H806     1.0000 0.96387  0.17233  0.08223  Biso   1.000  H
  H807     1.0000 0.82767  0.79153  0.08223  Biso   1.000  H
  H808     1.0000 0.87513  0.36947  0.41557  Biso   1.000  H
  H809     1.0000 0.63053  0.50567  0.41557  Biso   1.000  H
  H810     1.0000 0.49433  0.12487  0.41557  Biso   1.000  H
  H811     1.0000 0.49730  0.29780  0.27950  Biso   1.000  H
  H812     1.0000 0.70220  0.19950  0.27950  Biso   1.000  H
  H813     1.0000 0.80050  0.50270  0.27950  Biso   1.000  H
  H814     1.0000 0.16397  0.63113  0.61283  Biso   1.000  H
  H815     1.0000 0.36887  0.53283  0.61283  Biso   1.000  H
  H816     1.0000 0.46717  0.83603  0.61283  Biso   1.000  H
  H817     1.0000 0.83063  0.96447  0.94617  Biso   1.000  H
  H818     1.0000 0.03553  0.86617  0.94617  Biso   1.000  H
  H819     1.0000 0.13383  0.16937  0.94617  Biso   1.000  H
  H820     1.0000 0.50270  0.70220  0.72050  Biso   1.000  H
  H821     1.0000 0.29780  0.80050  0.72050  Biso   1.000  H
  H822     1.0000 0.19950  0.49730  0.72050  Biso   1.000  H
  H823     1.0000 0.16937  0.03553  0.05383  Biso   1.000  H
  H824     1.0000 0.96447  0.13383  0.05383  Biso   1.000  H
  H825     1.0000 0.86617  0.83063  0.05383  Biso   1.000  H
  H826     1.0000 0.83603  0.36887  0.38717  Biso   1.000  H
  H827     1.0000 0.63113  0.46717  0.38717  Biso   1.000  H
  H828     1.0000 0.53283  0.16397  0.38717  Biso   1.000  H
  C613     1.0000 0.45010  0.23770  0.25900  Biso   1.000  C
  C614     1.0000 0.76230  0.21240  0.25900  Biso   1.000  C
  C615     1.0000 0.78760  0.54990  0.25900  Biso   1.000  C
  C616     1.0000 0.11677  0.57103  0.59233  Biso   1.000  C
  C617     1.0000 0.42897  0.54573  0.59233  Biso   1.000  C
  C618     1.0000 0.45427  0.88323  0.59233  Biso   1.000  C
  C619     1.0000 0.78343  0.90437  0.92567  Biso   1.000  C
  C620     1.0000 0.09563  0.87907  0.92567  Biso   1.000  C
  C621     1.0000 0.12093  0.21657  0.92567  Biso   1.000  C
  C622     1.0000 0.54990  0.76230  0.74100  Biso   1.000  C
  C623     1.0000 0.23770  0.78760  0.74100  Biso   1.000  C
  C624     1.0000 0.21240  0.45010  0.74100  Biso   1.000  C
  C625     1.0000 0.21657  0.09563  0.07433  Biso   1.000  C
  C626     1.0000 0.90437  0.12093  0.07433  Biso   1.000  C
  C627     1.0000 0.87907  0.78343  0.07433  Biso   1.000  C
  C628     1.0000 0.88323  0.42897  0.40767  Biso   1.000  C
  C629     1.0000 0.57103  0.45427  0.40767  Biso   1.000  C
  C630     1.0000 0.54573  0.11677  0.40767  Biso   1.000  C
  H829     1.0000 0.46170  0.23830  0.21910  Biso   1.000  H
  H830     1.0000 0.76170  0.22340  0.21910  Biso   1.000  H
  H831     1.0000 0.77660  0.53830  0.21910  Biso   1.000  H
  H832     1.0000 0.12837  0.57163  0.55243  Biso   1.000  H
  H833     1.0000 0.42837  0.55673  0.55243  Biso   1.000  H
  H834     1.0000 0.44327  0.87163  0.55243  Biso   1.000  H
  H835     1.0000 0.79503  0.90497  0.88577  Biso   1.000  H
  H836     1.0000 0.09503  0.89007  0.88577  Biso   1.000  H
  H837     1.0000 0.10993  0.20497  0.88577  Biso   1.000  H
  H838     1.0000 0.53830  0.76170  0.78090  Biso   1.000  H
  H839     1.0000 0.23830  0.77660  0.78090  Biso   1.000  H
  H840     1.0000 0.22340  0.46170  0.78090  Biso   1.000  H
  H841     1.0000 0.20497  0.09503  0.11423  Biso   1.000  H
  H842     1.0000 0.90497  0.10993  0.11423  Biso   1.000  H
  H843     1.0000 0.89007  0.79503  0.11423  Biso   1.000  H
  H844     1.0000 0.87163  0.42837  0.44757  Biso   1.000  H
  H845     1.0000 0.57163  0.44327  0.44757  Biso   1.000  H
  H846     1.0000 0.55673  0.12837  0.44757  Biso   1.000  H
  H847     1.0000 0.46030  0.22450  0.28700  Biso   1.000  H
  H848     1.0000 0.77550  0.23580  0.28700  Biso   1.000  H
  H849     1.0000 0.76420  0.53970  0.28700  Biso   1.000  H
  H850     1.0000 0.12697  0.55783  0.62033  Biso   1.000  H
  H851     1.0000 0.44217  0.56913  0.62033  Biso   1.000  H
  H852     1.0000 0.43087  0.87303  0.62033  Biso   1.000  H
  H853     1.0000 0.79363  0.89117  0.95367  Biso   1.000  H
  H854     1.0000 0.10883  0.90247  0.95367  Biso   1.000  H
  H855     1.0000 0.09753  0.20637  0.95367  Biso   1.000  H
  H856     1.0000 0.53970  0.77550  0.71300  Biso   1.000  H
  H857     1.0000 0.22450  0.76420  0.71300  Biso   1.000  H
  H858     1.0000 0.23580  0.46030  0.71300  Biso   1.000  H
  H859     1.0000 0.20637  0.10883  0.04633  Biso   1.000  H
  H860     1.0000 0.89117  0.09753  0.04633  Biso   1.000  H
  H861     1.0000 0.90247  0.79363  0.04633  Biso   1.000  H
  H862     1.0000 0.87303  0.44217  0.37967  Biso   1.000  H
  H863     1.0000 0.55783  0.43087  0.37967  Biso   1.000  H
  H864     1.0000 0.56913  0.12697  0.37967  Biso   1.000  H
  N433     1.0000 0.40300  0.21090  0.25510  Biso   1.000  N
  N434     1.0000 0.78910  0.19210  0.25510  Biso   1.000  N
  N435     1.0000 0.80790  0.59700  0.25510  Biso   1.000  N
  N436     1.0000 0.06967  0.54423  0.58843  Biso   1.000  N
  N437     1.0000 0.45577  0.52543  0.58843  Biso   1.000  N
  N438     1.0000 0.47457  0.93033  0.58843  Biso   1.000  N
  N439     1.0000 0.73633  0.87757  0.92177  Biso   1.000  N
  N440     1.0000 0.12243  0.85877  0.92177  Biso   1.000  N
  N441     1.0000 0.14123  0.26367  0.92177  Biso   1.000  N
  N442     1.0000 0.59700  0.78910  0.74490  Biso   1.000  N
  N443     1.0000 0.21090  0.80790  0.74490  Biso   1.000  N
  N444     1.0000 0.19210  0.40300  0.74490  Biso   1.000  N
  N445     1.0000 0.26367  0.12243  0.07823  Biso   1.000  N
  N446     1.0000 0.87757  0.14123  0.07823  Biso   1.000  N
  N447     1.0000 0.85877  0.73633  0.07823  Biso   1.000  N
  N448     1.0000 0.93033  0.45577  0.41157  Biso   1.000  N
  N449     1.0000 0.54423  0.47457  0.41157  Biso   1.000  N
  N450     1.0000 0.52543  0.06967  0.41157  Biso   1.000  N
  C631     1.0000 0.38590  0.22780  0.20990  Biso   1.000  C
  C632     1.0000 0.77220  0.15810  0.20990  Biso   1.000  C
  C633     1.0000 0.84190  0.61410  0.20990  Biso   1.000  C
  C634     1.0000 0.05257  0.56113  0.54323  Biso   1.000  C
  C635     1.0000 0.43887  0.49143  0.54323  Biso   1.000  C
  C636     1.0000 0.50857  0.94743  0.54323  Biso   1.000  C
  C637     1.0000 0.71923  0.89447  0.87657  Biso   1.000  C
  C638     1.0000 0.10553  0.82477  0.87657  Biso   1.000  C
  C639     1.0000 0.17523  0.28077  0.87657  Biso   1.000  C
  C640     1.0000 0.61410  0.77220  0.79010  Biso   1.000  C
  C641     1.0000 0.22780  0.84190  0.79010  Biso   1.000  C
  C642     1.0000 0.15810  0.38590  0.79010  Biso   1.000  C
  C643     1.0000 0.28077  0.10553  0.12343  Biso   1.000  C
  C644     1.0000 0.89447  0.17523  0.12343  Biso   1.000  C
  C645     1.0000 0.82477  0.71923  0.12343  Biso   1.000  C
  C646     1.0000 0.94743  0.43887  0.45677  Biso   1.000  C
  C647     1.0000 0.56113  0.50857  0.45677  Biso   1.000  C
  C648     1.0000 0.49143  0.05257  0.45677  Biso   1.000  C
  H865     1.0000 0.39450  0.25640  0.22040  Biso   1.000  H
  H866     1.0000 0.74360  0.13810  0.22040  Biso   1.000  H
  H867     1.0000 0.86190  0.60550  0.22040  Biso   1.000  H
  H868     1.0000 0.06117  0.58973  0.55373  Biso   1.000  H
  H869     1.0000 0.41027  0.47143  0.55373  Biso   1.000  H
  H870     1.0000 0.52857  0.93883  0.55373  Biso   1.000  H
  H871     1.0000 0.72783  0.92307  0.88707  Biso   1.000  H
  H872     1.0000 0.07693  0.80477  0.88707  Biso   1.000  H
  H873     1.0000 0.19523  0.27217  0.88707  Biso   1.000  H
  H874     1.0000 0.60550  0.74360  0.77960  Biso   1.000  H
  H875     1.0000 0.25640  0.86190  0.77960  Biso   1.000  H
  H876     1.0000 0.13810  0.39450  0.77960  Biso   1.000  H
  H877     1.0000 0.27217  0.07693  0.11293  Biso   1.000  H
  H878     1.0000 0.92307  0.19523  0.11293  Biso   1.000  H
  H879     1.0000 0.80477  0.72783  0.11293  Biso   1.000  H
  H880     1.0000 0.93883  0.41027  0.44627  Biso   1.000  H
  H881     1.0000 0.58973  0.52857  0.44627  Biso   1.000  H
  H882     1.0000 0.47143  0.06117  0.44627  Biso   1.000  H
  H883     1.0000 0.35560  0.21190  0.21140  Biso   1.000  H
  H884     1.0000 0.78810  0.14370  0.21140  Biso   1.000  H
  H885     1.0000 0.85630  0.64440  0.21140  Biso   1.000  H
  H886     1.0000 0.02227  0.54523  0.54473  Biso   1.000  H
  H887     1.0000 0.45477  0.47703  0.54473  Biso   1.000  H
  H888     1.0000 0.52297  0.97773  0.54473  Biso   1.000  H
  H889     1.0000 0.68893  0.87857  0.87807  Biso   1.000  H
  H890     1.0000 0.12143  0.81037  0.87807  Biso   1.000  H
  H891     1.0000 0.18963  0.31107  0.87807  Biso   1.000  H
  H892     1.0000 0.64440  0.78810  0.78860  Biso   1.000  H
  H893     1.0000 0.21190  0.85630  0.78860  Biso   1.000  H
  H894     1.0000 0.14370  0.35560  0.78860  Biso   1.000  H
  H895     1.0000 0.31107  0.12143  0.12193  Biso   1.000  H
  H896     1.0000 0.87857  0.18963  0.12193  Biso   1.000  H
  H897     1.0000 0.81037  0.68893  0.12193  Biso   1.000  H
  H898     1.0000 0.97773  0.45477  0.45527  Biso   1.000  H
  H899     1.0000 0.54523  0.52297  0.45527  Biso   1.000  H
  H900     1.0000 0.47703  0.02227  0.45527  Biso   1.000  H
  C649     1.0000 0.40110  0.22620  0.14200  Biso   1.000  C
  C650     1.0000 0.77380  0.17490  0.14200  Biso   1.000  C
  C651     1.0000 0.82510  0.59890  0.14200  Biso   1.000  C
  C652     1.0000 0.06777  0.55953  0.47533  Biso   1.000  C
  C653     1.0000 0.44047  0.50823  0.47533  Biso   1.000  C
  C654     1.0000 0.49177  0.93223  0.47533  Biso   1.000  C
  C655     1.0000 0.73443  0.89287  0.80867  Biso   1.000  C
  C656     1.0000 0.10713  0.84157  0.80867  Biso   1.000  C
  C657     1.0000 0.15843  0.26557  0.80867  Biso   1.000  C
  C658     1.0000 0.59890  0.77380  0.85800  Biso   1.000  C
  C659     1.0000 0.22620  0.82510  0.85800  Biso   1.000  C
  C660     1.0000 0.17490  0.40110  0.85800  Biso   1.000  C
  C661     1.0000 0.26557  0.10713  0.19133  Biso   1.000  C
  C662     1.0000 0.89287  0.15843  0.19133  Biso   1.000  C
  C663     1.0000 0.84157  0.73443  0.19133  Biso   1.000  C
  C664     1.0000 0.93223  0.44047  0.52467  Biso   1.000  C
  C665     1.0000 0.55953  0.49177  0.52467  Biso   1.000  C
  C666     1.0000 0.50823  0.06777  0.52467  Biso   1.000  C
  H901     1.0000 0.38820  0.23620  0.11330  Biso   1.000  H
  H902     1.0000 0.76380  0.15200  0.11330  Biso   1.000  H
  H903     1.0000 0.84800  0.61180  0.11330  Biso   1.000  H
  H904     1.0000 0.05487  0.56953  0.44663  Biso   1.000  H
  H905     1.0000 0.43047  0.48533  0.44663  Biso   1.000  H
  H906     1.0000 0.51467  0.94513  0.44663  Biso   1.000  H
  H907     1.0000 0.72153  0.90287  0.77997  Biso   1.000  H
  H908     1.0000 0.09713  0.81867  0.77997  Biso   1.000  H
  H909     1.0000 0.18133  0.27847  0.77997  Biso   1.000  H
  H910     1.0000 0.61180  0.76380  0.88670  Biso   1.000  H
  H911     1.0000 0.23620  0.84800  0.88670  Biso   1.000  H
  H912     1.0000 0.15200  0.38820  0.88670  Biso   1.000  H
  H913     1.0000 0.27847  0.09713  0.22003  Biso   1.000  H
  H914     1.0000 0.90287  0.18133  0.22003  Biso   1.000  H
  H915     1.0000 0.81867  0.72153  0.22003  Biso   1.000  H
  H916     1.0000 0.94513  0.43047  0.55337  Biso   1.000  H
  H917     1.0000 0.56953  0.51467  0.55337  Biso   1.000  H
  H918     1.0000 0.48533  0.05487  0.55337  Biso   1.000  H
  H919     1.0000 0.43110  0.24420  0.13930  Biso   1.000  H
  H920     1.0000 0.75580  0.18690  0.13930  Biso   1.000  H
  H921     1.0000 0.81310  0.56890  0.13930  Biso   1.000  H
  H922     1.0000 0.09777  0.57753  0.47263  Biso   1.000  H
  H923     1.0000 0.42247  0.52023  0.47263  Biso   1.000  H
  H924     1.0000 0.47977  0.90223  0.47263  Biso   1.000  H
  H925     1.0000 0.76443  0.91087  0.80597  Biso   1.000  H
  H926     1.0000 0.08913  0.85357  0.80597  Biso   1.000  H
  H927     1.0000 0.14643  0.23557  0.80597  Biso   1.000  H
  H928     1.0000 0.56890  0.75580  0.86070  Biso   1.000  H
  H929     1.0000 0.24420  0.81310  0.86070  Biso   1.000  H
  H930     1.0000 0.18690  0.43110  0.86070  Biso   1.000  H
  H931     1.0000 0.23557  0.08913  0.19403  Biso   1.000  H
  H932     1.0000 0.91087  0.14643  0.19403  Biso   1.000  H
  H933     1.0000 0.85357  0.76443  0.19403  Biso   1.000  H
  H934     1.0000 0.90223  0.42247  0.52737  Biso   1.000  H
  H935     1.0000 0.57753  0.47977  0.52737  Biso   1.000  H
  H936     1.0000 0.52023  0.09777  0.52737  Biso   1.000  H
  O73      1.0000 0.39050  0.18540  0.12690  Biso   1.000  O
  O74      1.0000 0.81460  0.20510  0.12690  Biso   1.000  O
  O75      1.0000 0.79490  0.60950  0.12690  Biso   1.000  O
  O76      1.0000 0.05717  0.51873  0.46023  Biso   1.000  O
  O77      1.0000 0.48127  0.53843  0.46023  Biso   1.000  O
  O78      1.0000 0.46157  0.94283  0.46023  Biso   1.000  O
  O79      1.0000 0.72383  0.85207  0.79357  Biso   1.000  O
  O80      1.0000 0.14793  0.87177  0.79357  Biso   1.000  O
  O81      1.0000 0.12823  0.27617  0.79357  Biso   1.000  O
  O82      1.0000 0.60950  0.81460  0.87310  Biso   1.000  O
  O83      1.0000 0.18540  0.79490  0.87310  Biso   1.000  O
  O84      1.0000 0.20510  0.39050  0.87310  Biso   1.000  O
  O85      1.0000 0.27617  0.14793  0.20643  Biso   1.000  O
  O86      1.0000 0.85207  0.12823  0.20643  Biso   1.000  O
  O87      1.0000 0.87177  0.72383  0.20643  Biso   1.000  O
  O88      1.0000 0.94283  0.48127  0.53977  Biso   1.000  O
  O89      1.0000 0.51873  0.46157  0.53977  Biso   1.000  O
  O90      1.0000 0.53843  0.05717  0.53977  Biso   1.000  O
  C667     1.0000 0.40760  0.16780  0.16640  Biso   1.000  C
  C668     1.0000 0.83220  0.23980  0.16640  Biso   1.000  C
  C669     1.0000 0.76020  0.59240  0.16640  Biso   1.000  C
  C670     1.0000 0.07427  0.50113  0.49973  Biso   1.000  C
  C671     1.0000 0.49887  0.57313  0.49973  Biso   1.000  C
  C672     1.0000 0.42687  0.92573  0.49973  Biso   1.000  C
  C673     1.0000 0.74093  0.83447  0.83307  Biso   1.000  C
  C674     1.0000 0.16553  0.90647  0.83307  Biso   1.000  C
  C675     1.0000 0.09353  0.25907  0.83307  Biso   1.000  C
  C676     1.0000 0.59240  0.83220  0.83360  Biso   1.000  C
  C677     1.0000 0.16780  0.76020  0.83360  Biso   1.000  C
  C678     1.0000 0.23980  0.40760  0.83360  Biso   1.000  C
  C679     1.0000 0.25907  0.16553  0.16693  Biso   1.000  C
  C680     1.0000 0.83447  0.09353  0.16693  Biso   1.000  C
  C681     1.0000 0.90647  0.74093  0.16693  Biso   1.000  C
  C682     1.0000 0.92573  0.49887  0.50027  Biso   1.000  C
  C683     1.0000 0.50113  0.42687  0.50027  Biso   1.000  C
  C684     1.0000 0.57313  0.07427  0.50027  Biso   1.000  C
  H937     1.0000 0.43780  0.18330  0.16330  Biso   1.000  H
  H938     1.0000 0.81670  0.25450  0.16330  Biso   1.000  H
  H939     1.0000 0.74550  0.56220  0.16330  Biso   1.000  H
  H940     1.0000 0.10447  0.51663  0.49663  Biso   1.000  H
  H941     1.0000 0.48337  0.58783  0.49663  Biso   1.000  H
  H942     1.0000 0.41217  0.89553  0.49663  Biso   1.000  H
  H943     1.0000 0.77113  0.84997  0.82997  Biso   1.000  H
  H944     1.0000 0.15003  0.92117  0.82997  Biso   1.000  H
  H945     1.0000 0.07883  0.22887  0.82997  Biso   1.000  H
  H946     1.0000 0.56220  0.81670  0.83670  Biso   1.000  H
  H947     1.0000 0.18330  0.74550  0.83670  Biso   1.000  H
  H948     1.0000 0.25450  0.43780  0.83670  Biso   1.000  H
  H949     1.0000 0.22887  0.15003  0.17003  Biso   1.000  H
  H950     1.0000 0.84997  0.07883  0.17003  Biso   1.000  H
  H951     1.0000 0.92117  0.77113  0.17003  Biso   1.000  H
  H952     1.0000 0.89553  0.48337  0.50337  Biso   1.000  H
  H953     1.0000 0.51663  0.41217  0.50337  Biso   1.000  H
  H954     1.0000 0.58783  0.10447  0.50337  Biso   1.000  H
  H955     1.0000 0.39800  0.13920  0.15450  Biso   1.000  H
  H956     1.0000 0.86080  0.25880  0.15450  Biso   1.000  H
  H957     1.0000 0.74120  0.60200  0.15450  Biso   1.000  H
  H958     1.0000 0.06467  0.47253  0.48783  Biso   1.000  H
  H959     1.0000 0.52747  0.59213  0.48783  Biso   1.000  H
  H960     1.0000 0.40787  0.93533  0.48783  Biso   1.000  H
  H961     1.0000 0.73133  0.80587  0.82117  Biso   1.000  H
  H962     1.0000 0.19413  0.92547  0.82117  Biso   1.000  H
  H963     1.0000 0.07453  0.26867  0.82117  Biso   1.000  H
  H964     1.0000 0.60200  0.86080  0.84550  Biso   1.000  H
  H965     1.0000 0.13920  0.74120  0.84550  Biso   1.000  H
  H966     1.0000 0.25880  0.39800  0.84550  Biso   1.000  H
  H967     1.0000 0.26867  0.19413  0.17883  Biso   1.000  H
  H968     1.0000 0.80587  0.07453  0.17883  Biso   1.000  H
  H969     1.0000 0.92547  0.73133  0.17883  Biso   1.000  H
  H970     1.0000 0.93533  0.52747  0.51217  Biso   1.000  H
  H971     1.0000 0.47253  0.40787  0.51217  Biso   1.000  H
  H972     1.0000 0.59213  0.06467  0.51217  Biso   1.000  H
  C685     1.0000 0.39380  0.16910  0.23590  Biso   1.000  C
  C686     1.0000 0.83090  0.22470  0.23590  Biso   1.000  C
  C687     1.0000 0.77530  0.60620  0.23590  Biso   1.000  C
  C688     1.0000 0.06047  0.50243  0.56923  Biso   1.000  C
  C689     1.0000 0.49757  0.55803  0.56923  Biso   1.000  C
  C690     1.0000 0.44197  0.93953  0.56923  Biso   1.000  C
  C691     1.0000 0.72713  0.83577  0.90257  Biso   1.000  C
  C692     1.0000 0.16423  0.89137  0.90257  Biso   1.000  C
  C693     1.0000 0.10863  0.27287  0.90257  Biso   1.000  C
  C694     1.0000 0.60620  0.83090  0.76410  Biso   1.000  C
  C695     1.0000 0.16910  0.77530  0.76410  Biso   1.000  C
  C696     1.0000 0.22470  0.39380  0.76410  Biso   1.000  C
  C697     1.0000 0.27287  0.16423  0.09743  Biso   1.000  C
  C698     1.0000 0.83577  0.10863  0.09743  Biso   1.000  C
  C699     1.0000 0.89137  0.72713  0.09743  Biso   1.000  C
  C700     1.0000 0.93953  0.49757  0.43077  Biso   1.000  C
  C701     1.0000 0.50243  0.44197  0.43077  Biso   1.000  C
  C702     1.0000 0.55803  0.06047  0.43077  Biso   1.000  C
  H973     1.0000 0.36410  0.15000  0.24000  Biso   1.000  H
  H974     1.0000 0.85000  0.21410  0.24000  Biso   1.000  H
  H975     1.0000 0.78590  0.63590  0.24000  Biso   1.000  H
  H976     1.0000 0.03077  0.48333  0.57333  Biso   1.000  H
  H977     1.0000 0.51667  0.54743  0.57333  Biso   1.000  H
  H978     1.0000 0.45257  0.96923  0.57333  Biso   1.000  H
  H979     1.0000 0.69743  0.81667  0.90667  Biso   1.000  H
  H980     1.0000 0.18333  0.88077  0.90667  Biso   1.000  H
  H981     1.0000 0.11923  0.30257  0.90667  Biso   1.000  H
  H982     1.0000 0.63590  0.85000  0.76000  Biso   1.000  H
  H983     1.0000 0.15000  0.78590  0.76000  Biso   1.000  H
  H984     1.0000 0.21410  0.36410  0.76000  Biso   1.000  H
  H985     1.0000 0.30257  0.18333  0.09333  Biso   1.000  H
  H986     1.0000 0.81667  0.11923  0.09333  Biso   1.000  H
  H987     1.0000 0.88077  0.69743  0.09333  Biso   1.000  H
  H988     1.0000 0.96923  0.51667  0.42667  Biso   1.000  H
  H989     1.0000 0.48333  0.45257  0.42667  Biso   1.000  H
  H990     1.0000 0.54743  0.03077  0.42667  Biso   1.000  H
  H991     1.0000 0.40810  0.15970  0.26300  Biso   1.000  H
  H992     1.0000 0.84030  0.24840  0.26300  Biso   1.000  H
  H993     1.0000 0.75160  0.59190  0.26300  Biso   1.000  H
  H994     1.0000 0.07477  0.49303  0.59633  Biso   1.000  H
  H995     1.0000 0.50697  0.58173  0.59633  Biso   1.000  H
  H996     1.0000 0.41827  0.92523  0.59633  Biso   1.000  H
  H997     1.0000 0.74143  0.82637  0.92967  Biso   1.000  H
  H998     1.0000 0.17363  0.91507  0.92967  Biso   1.000  H
  H999     1.0000 0.08493  0.25857  0.92967  Biso   1.000  H
  H1000    1.0000 0.59190  0.84030  0.73700  Biso   1.000  H
  H1001    1.0000 0.15970  0.75160  0.73700  Biso   1.000  H
  H1002    1.0000 0.24840  0.40810  0.73700  Biso   1.000  H
  H1003    1.0000 0.25857  0.17363  0.07033  Biso   1.000  H
  H1004    1.0000 0.82637  0.08493  0.07033  Biso   1.000  H
  H1005    1.0000 0.91507  0.74143  0.07033  Biso   1.000  H
  H1006    1.0000 0.92523  0.50697  0.40367  Biso   1.000  H
  H1007    1.0000 0.49303  0.41827  0.40367  Biso   1.000  H
  H1008    1.0000 0.58173  0.07477  0.40367  Biso   1.000  H
  C703     1.0000 0.18510  0.14060  0.30500  Biso   1.000  C
  C704     1.0000 0.85940  0.04450  0.30500  Biso   1.000  C
  C705     1.0000 0.95550  0.81490  0.30500  Biso   1.000  C
  C706     1.0000 0.85177  0.47393  0.63833  Biso   1.000  C
  C707     1.0000 0.52607  0.37783  0.63833  Biso   1.000  C
  C708     1.0000 0.62217  0.14823  0.63833  Biso   1.000  C
  C709     1.0000 0.51843  0.80727  0.97167  Biso   1.000  C
  C710     1.0000 0.19273  0.71117  0.97167  Biso   1.000  C
  C711     1.0000 0.28883  0.48157  0.97167  Biso   1.000  C
  C712     1.0000 0.81490  0.85940  0.69500  Biso   1.000  C
  C713     1.0000 0.14060  0.95550  0.69500  Biso   1.000  C
  C714     1.0000 0.04450  0.18510  0.69500  Biso   1.000  C
  C715     1.0000 0.48157  0.19273  0.02833  Biso   1.000  C
  C716     1.0000 0.80727  0.28883  0.02833  Biso   1.000  C
  C717     1.0000 0.71117  0.51843  0.02833  Biso   1.000  C
  C718     1.0000 0.14823  0.52607  0.36167  Biso   1.000  C
  C719     1.0000 0.47393  0.62217  0.36167  Biso   1.000  C
  C720     1.0000 0.37783  0.85177  0.36167  Biso   1.000  C
  H1009    1.0000 0.17110  0.15160  0.28020  Biso   1.000  H
  H1010    1.0000 0.84840  0.01950  0.28020  Biso   1.000  H
  H1011    1.0000 0.98050  0.82890  0.28020  Biso   1.000  H
  H1012    1.0000 0.83777  0.48493  0.61353  Biso   1.000  H
  H1013    1.0000 0.51507  0.35283  0.61353  Biso   1.000  H
  H1014    1.0000 0.64717  0.16223  0.61353  Biso   1.000  H
  H1015    1.0000 0.50443  0.81827  0.94687  Biso   1.000  H
  H1016    1.0000 0.18173  0.68617  0.94687  Biso   1.000  H
  H1017    1.0000 0.31383  0.49557  0.94687  Biso   1.000  H
  H1018    1.0000 0.82890  0.84840  0.71980  Biso   1.000  H
  H1019    1.0000 0.15160  0.98050  0.71980  Biso   1.000  H
  H1020    1.0000 0.01950  0.17110  0.71980  Biso   1.000  H
  H1021    1.0000 0.49557  0.18173  0.05313  Biso   1.000  H
  H1022    1.0000 0.81827  0.31383  0.05313  Biso   1.000  H
  H1023    1.0000 0.68617  0.50443  0.05313  Biso   1.000  H
  H1024    1.0000 0.16223  0.51507  0.38647  Biso   1.000  H
  H1025    1.0000 0.48493  0.64717  0.38647  Biso   1.000  H
  H1026    1.0000 0.35283  0.83777  0.38647  Biso   1.000  H
  H1027    1.0000 0.17980  0.11460  0.28650  Biso   1.000  H
  H1028    1.0000 0.88540  0.06520  0.28650  Biso   1.000  H
  H1029    1.0000 0.93480  0.82020  0.28650  Biso   1.000  H
  H1030    1.0000 0.84647  0.44793  0.61983  Biso   1.000  H
  H1031    1.0000 0.55207  0.39853  0.61983  Biso   1.000  H
  H1032    1.0000 0.60147  0.15353  0.61983  Biso   1.000  H
  H1033    1.0000 0.51313  0.78127  0.95317  Biso   1.000  H
  H1034    1.0000 0.21873  0.73187  0.95317  Biso   1.000  H
  H1035    1.0000 0.26813  0.48687  0.95317  Biso   1.000  H
  H1036    1.0000 0.82020  0.88540  0.71350  Biso   1.000  H
  H1037    1.0000 0.11460  0.93480  0.71350  Biso   1.000  H
  H1038    1.0000 0.06520  0.17980  0.71350  Biso   1.000  H
  H1039    1.0000 0.48687  0.21873  0.04683  Biso   1.000  H
  H1040    1.0000 0.78127  0.26813  0.04683  Biso   1.000  H
  H1041    1.0000 0.73187  0.51313  0.04683  Biso   1.000  H
  H1042    1.0000 0.15353  0.55207  0.38017  Biso   1.000  H
  H1043    1.0000 0.44793  0.60147  0.38017  Biso   1.000  H
  H1044    1.0000 0.39853  0.84647  0.38017  Biso   1.000  H
  C721     1.0000 0.16560  0.13110  0.36780  Biso   1.000  C
  C722     1.0000 0.86890  0.03450  0.36780  Biso   1.000  C
  C723     1.0000 0.96550  0.83440  0.36780  Biso   1.000  C
  C724     1.0000 0.83227  0.46443  0.70113  Biso   1.000  C
  C725     1.0000 0.53557  0.36783  0.70113  Biso   1.000  C
  C726     1.0000 0.63217  0.16773  0.70113  Biso   1.000  C
  C727     1.0000 0.49893  0.79777  0.03447  Biso   1.000  C
  C728     1.0000 0.20223  0.70117  0.03447  Biso   1.000  C
  C729     1.0000 0.29883  0.50107  0.03447  Biso   1.000  C
  C730     1.0000 0.83440  0.86890  0.63220  Biso   1.000  C
  C731     1.0000 0.13110  0.96550  0.63220  Biso   1.000  C
  C732     1.0000 0.03450  0.16560  0.63220  Biso   1.000  C
  C733     1.0000 0.50107  0.20223  0.96553  Biso   1.000  C
  C734     1.0000 0.79777  0.29883  0.96553  Biso   1.000  C
  C735     1.0000 0.70117  0.49893  0.96553  Biso   1.000  C
  C736     1.0000 0.16773  0.53557  0.29887  Biso   1.000  C
  C737     1.0000 0.46443  0.63217  0.29887  Biso   1.000  C
  C738     1.0000 0.36783  0.83227  0.29887  Biso   1.000  C
  H1045    1.0000 0.17980  0.12060  0.39320  Biso   1.000  H
  H1046    1.0000 0.87940  0.05920  0.39320  Biso   1.000  H
  H1047    1.0000 0.94080  0.82020  0.39320  Biso   1.000  H
  H1048    1.0000 0.84647  0.45393  0.72653  Biso   1.000  H
  H1049    1.0000 0.54607  0.39253  0.72653  Biso   1.000  H
  H1050    1.0000 0.60747  0.15353  0.72653  Biso   1.000  H
  H1051    1.0000 0.51313  0.78727  0.05987  Biso   1.000  H
  H1052    1.0000 0.21273  0.72587  0.05987  Biso   1.000  H
  H1053    1.0000 0.27413  0.48687  0.05987  Biso   1.000  H
  H1054    1.0000 0.82020  0.87940  0.60680  Biso   1.000  H
  H1055    1.0000 0.12060  0.94080  0.60680  Biso   1.000  H
  H1056    1.0000 0.05920  0.17980  0.60680  Biso   1.000  H
  H1057    1.0000 0.48687  0.21273  0.94013  Biso   1.000  H
  H1058    1.0000 0.78727  0.27413  0.94013  Biso   1.000  H
  H1059    1.0000 0.72587  0.51313  0.94013  Biso   1.000  H
  H1060    1.0000 0.15353  0.54607  0.27347  Biso   1.000  H
  H1061    1.0000 0.45393  0.60747  0.27347  Biso   1.000  H
  H1062    1.0000 0.39253  0.84647  0.27347  Biso   1.000  H
  H1063    1.0000 0.16980  0.15670  0.38610  Biso   1.000  H
  H1064    1.0000 0.84330  0.01310  0.38610  Biso   1.000  H
  H1065    1.0000 0.98690  0.83020  0.38610  Biso   1.000  H
  H1066    1.0000 0.83647  0.49003  0.71943  Biso   1.000  H
  H1067    1.0000 0.50997  0.34643  0.71943  Biso   1.000  H
  H1068    1.0000 0.65357  0.16353  0.71943  Biso   1.000  H
  H1069    1.0000 0.50313  0.82337  0.05277  Biso   1.000  H
  H1070    1.0000 0.17663  0.67977  0.05277  Biso   1.000  H
  H1071    1.0000 0.32023  0.49687  0.05277  Biso   1.000  H
  H1072    1.0000 0.83020  0.84330  0.61390  Biso   1.000  H
  H1073    1.0000 0.15670  0.98690  0.61390  Biso   1.000  H
  H1074    1.0000 0.01310  0.16980  0.61390  Biso   1.000  H
  H1075    1.0000 0.49687  0.17663  0.94723  Biso   1.000  H
  H1076    1.0000 0.82337  0.32023  0.94723  Biso   1.000  H
  H1077    1.0000 0.67977  0.50313  0.94723  Biso   1.000  H
  H1078    1.0000 0.16353  0.50997  0.28057  Biso   1.000  H
  H1079    1.0000 0.49003  0.65357  0.28057  Biso   1.000  H
  H1080    1.0000 0.34643  0.83647  0.28057  Biso   1.000  H
  C739     1.0000 0.12090  0.10050  0.36750  Biso   1.000  C
  C740     1.0000 0.89950  0.02040  0.36750  Biso   1.000  C
  C741     1.0000 0.97960  0.87910  0.36750  Biso   1.000  C
  C742     1.0000 0.78757  0.43383  0.70083  Biso   1.000  C
  C743     1.0000 0.56617  0.35373  0.70083  Biso   1.000  C
  C744     1.0000 0.64627  0.21243  0.70083  Biso   1.000  C
  C745     1.0000 0.45423  0.76717  0.03417  Biso   1.000  C
  C746     1.0000 0.23283  0.68707  0.03417  Biso   1.000  C
  C747     1.0000 0.31293  0.54577  0.03417  Biso   1.000  C
  C748     1.0000 0.87910  0.89950  0.63250  Biso   1.000  C
  C749     1.0000 0.10050  0.97960  0.63250  Biso   1.000  C
  C750     1.0000 0.02040  0.12090  0.63250  Biso   1.000  C
  C751     1.0000 0.54577  0.23283  0.96583  Biso   1.000  C
  C752     1.0000 0.76717  0.31293  0.96583  Biso   1.000  C
  C753     1.0000 0.68707  0.45423  0.96583  Biso   1.000  C
  C754     1.0000 0.21243  0.56617  0.29917  Biso   1.000  C
  C755     1.0000 0.43383  0.64627  0.29917  Biso   1.000  C
  C756     1.0000 0.35373  0.78757  0.29917  Biso   1.000  C
  H1081    1.0000 0.10590  0.11190  0.34610  Biso   1.000  H
  H1082    1.0000 0.88810  0.99400  0.34610  Biso   1.000  H
  H1083    1.0000 0.00600  0.89410  0.34610  Biso   1.000  H
  H1084    1.0000 0.77257  0.44523  0.67943  Biso   1.000  H
  H1085    1.0000 0.55477  0.32733  0.67943  Biso   1.000  H
  H1086    1.0000 0.67267  0.22743  0.67943  Biso   1.000  H
  H1087    1.0000 0.43923  0.77857  0.01277  Biso   1.000  H
  H1088    1.0000 0.22143  0.66067  0.01277  Biso   1.000  H
  H1089    1.0000 0.33933  0.56077  0.01277  Biso   1.000  H
  H1090    1.0000 0.89410  0.88810  0.65390  Biso   1.000  H
  H1091    1.0000 0.11190  0.00600  0.65390  Biso   1.000  H
  H1092    1.0000 0.99400  0.10590  0.65390  Biso   1.000  H
  H1093    1.0000 0.56077  0.22143  0.98723  Biso   1.000  H
  H1094    1.0000 0.77857  0.33933  0.98723  Biso   1.000  H
  H1095    1.0000 0.66067  0.43923  0.98723  Biso   1.000  H
  H1096    1.0000 0.22743  0.55477  0.32057  Biso   1.000  H
  H1097    1.0000 0.44523  0.67267  0.32057  Biso   1.000  H
  H1098    1.0000 0.32733  0.77257  0.32057  Biso   1.000  H
  H1099    1.0000 0.11060  0.09440  0.40920  Biso   1.000  H
  H1100    1.0000 0.90560  0.01620  0.40920  Biso   1.000  H
  H1101    1.0000 0.98380  0.88940  0.40920  Biso   1.000  H
  H1102    1.0000 0.77727  0.42773  0.74253  Biso   1.000  H
  H1103    1.0000 0.57227  0.34953  0.74253  Biso   1.000  H
  H1104    1.0000 0.65047  0.22273  0.74253  Biso   1.000  H
  H1105    1.0000 0.44393  0.76107  0.07587  Biso   1.000  H
  H1106    1.0000 0.23893  0.68287  0.07587  Biso   1.000  H
  H1107    1.0000 0.31713  0.55607  0.07587  Biso   1.000  H
  H1108    1.0000 0.88940  0.90560  0.59080  Biso   1.000  H
  H1109    1.0000 0.09440  0.98380  0.59080  Biso   1.000  H
  H1110    1.0000 0.01620  0.11060  0.59080  Biso   1.000  H
  H1111    1.0000 0.55607  0.23893  0.92413  Biso   1.000  H
  H1112    1.0000 0.76107  0.31713  0.92413  Biso   1.000  H
  H1113    1.0000 0.68287  0.44393  0.92413  Biso   1.000  H
  H1114    1.0000 0.22273  0.57227  0.25747  Biso   1.000  H
  H1115    1.0000 0.42773  0.65047  0.25747  Biso   1.000  H
  H1116    1.0000 0.34953  0.77727  0.25747  Biso   1.000  H
  N451     1.0000 0.11290  0.05970  0.33570  Biso   1.000  N
  N452     1.0000 0.94030  0.05320  0.33570  Biso   1.000  N
  N453     1.0000 0.94680  0.88710  0.33570  Biso   1.000  N
  N454     1.0000 0.77957  0.39303  0.66903  Biso   1.000  N
  N455     1.0000 0.60697  0.38653  0.66903  Biso   1.000  N
  N456     1.0000 0.61347  0.22043  0.66903  Biso   1.000  N
  N457     1.0000 0.44623  0.72637  0.00237  Biso   1.000  N
  N458     1.0000 0.27363  0.71987  0.00237  Biso   1.000  N
  N459     1.0000 0.28013  0.55377  0.00237  Biso   1.000  N
  N460     1.0000 0.88710  0.94030  0.66430  Biso   1.000  N
  N461     1.0000 0.05970  0.94680  0.66430  Biso   1.000  N
  N462     1.0000 0.05320  0.11290  0.66430  Biso   1.000  N
  N463     1.0000 0.55377  0.27363  0.99763  Biso   1.000  N
  N464     1.0000 0.72637  0.28013  0.99763  Biso   1.000  N
  N465     1.0000 0.71987  0.44623  0.99763  Biso   1.000  N
  N466     1.0000 0.22043  0.60697  0.33097  Biso   1.000  N
  N467     1.0000 0.39303  0.61347  0.33097  Biso   1.000  N
  N468     1.0000 0.38653  0.77957  0.33097  Biso   1.000  N
  C757     1.0000 0.12160  0.03460  0.37730  Biso   1.000  C
  C758     1.0000 0.96540  0.08700  0.37730  Biso   1.000  C
  C759     1.0000 0.91300  0.87840  0.37730  Biso   1.000  C
  C760     1.0000 0.78827  0.36793  0.71063  Biso   1.000  C
  C761     1.0000 0.63207  0.42033  0.71063  Biso   1.000  C
  C762     1.0000 0.57967  0.21173  0.71063  Biso   1.000  C
  C763     1.0000 0.45493  0.70127  0.04397  Biso   1.000  C
  C764     1.0000 0.29873  0.75367  0.04397  Biso   1.000  C
  C765     1.0000 0.24633  0.54507  0.04397  Biso   1.000  C
  C766     1.0000 0.87840  0.96540  0.62270  Biso   1.000  C
  C767     1.0000 0.03460  0.91300  0.62270  Biso   1.000  C
  C768     1.0000 0.08700  0.12160  0.62270  Biso   1.000  C
  C769     1.0000 0.54507  0.29873  0.95603  Biso   1.000  C
  C770     1.0000 0.70127  0.24633  0.95603  Biso   1.000  C
  C771     1.0000 0.75367  0.45493  0.95603  Biso   1.000  C
  C772     1.0000 0.21173  0.63207  0.28937  Biso   1.000  C
  C773     1.0000 0.36793  0.57967  0.28937  Biso   1.000  C
  C774     1.0000 0.42033  0.78827  0.28937  Biso   1.000  C
  H1117    1.0000 0.10150  0.02470  0.41050  Biso   1.000  H
  H1118    1.0000 0.97530  0.07680  0.41050  Biso   1.000  H
  H1119    1.0000 0.92320  0.89850  0.41050  Biso   1.000  H
  H1120    1.0000 0.76817  0.35803  0.74383  Biso   1.000  H
  H1121    1.0000 0.64197  0.41013  0.74383  Biso   1.000  H
  H1122    1.0000 0.58987  0.23183  0.74383  Biso   1.000  H
  H1123    1.0000 0.43483  0.69137  0.07717  Biso   1.000  H
  H1124    1.0000 0.30863  0.74347  0.07717  Biso   1.000  H
  H1125    1.0000 0.25653  0.56517  0.07717  Biso   1.000  H
  H1126    1.0000 0.89850  0.97530  0.58950  Biso   1.000  H
  H1127    1.0000 0.02470  0.92320  0.58950  Biso   1.000  H
  H1128    1.0000 0.07680  0.10150  0.58950  Biso   1.000  H
  H1129    1.0000 0.56517  0.30863  0.92283  Biso   1.000  H
  H1130    1.0000 0.69137  0.25653  0.92283  Biso   1.000  H
  H1131    1.0000 0.74347  0.43483  0.92283  Biso   1.000  H
  H1132    1.0000 0.23183  0.64197  0.25617  Biso   1.000  H
  H1133    1.0000 0.35803  0.58987  0.25617  Biso   1.000  H
  H1134    1.0000 0.41013  0.76817  0.25617  Biso   1.000  H
  H1135    1.0000 0.14930  0.05130  0.39470  Biso   1.000  H
  H1136    1.0000 0.94870  0.09800  0.39470  Biso   1.000  H
  H1137    1.0000 0.90200  0.85070  0.39470  Biso   1.000  H
  H1138    1.0000 0.81597  0.38463  0.72803  Biso   1.000  H
  H1139    1.0000 0.61537  0.43133  0.72803  Biso   1.000  H
  H1140    1.0000 0.56867  0.18403  0.72803  Biso   1.000  H
  H1141    1.0000 0.48263  0.71797  0.06137  Biso   1.000  H
  H1142    1.0000 0.28203  0.76467  0.06137  Biso   1.000  H
  H1143    1.0000 0.23533  0.51737  0.06137  Biso   1.000  H
  H1144    1.0000 0.85070  0.94870  0.60530  Biso   1.000  H
  H1145    1.0000 0.05130  0.90200  0.60530  Biso   1.000  H
  H1146    1.0000 0.09800  0.14930  0.60530  Biso   1.000  H
  H1147    1.0000 0.51737  0.28203  0.93863  Biso   1.000  H
  H1148    1.0000 0.71797  0.23533  0.93863  Biso   1.000  H
  H1149    1.0000 0.76467  0.48263  0.93863  Biso   1.000  H
  H1150    1.0000 0.18403  0.61537  0.27197  Biso   1.000  H
  H1151    1.0000 0.38463  0.56867  0.27197  Biso   1.000  H
  H1152    1.0000 0.43133  0.81597  0.27197  Biso   1.000  H
  C775     1.0000 0.11910  0.99870  0.34330  Biso   1.000  C
  C776     1.0000 0.00130  0.12040  0.34330  Biso   1.000  C
  C777     1.0000 0.87960  0.88090  0.34330  Biso   1.000  C
  C778     1.0000 0.78577  0.33203  0.67663  Biso   1.000  C
  C779     1.0000 0.66797  0.45373  0.67663  Biso   1.000  C
  C780     1.0000 0.54627  0.21423  0.67663  Biso   1.000  C
  C781     1.0000 0.45243  0.66537  0.00997  Biso   1.000  C
  C782     1.0000 0.33463  0.78707  0.00997  Biso   1.000  C
  C783     1.0000 0.21293  0.54757  0.00997  Biso   1.000  C
  C784     1.0000 0.88090  0.00130  0.65670  Biso   1.000  C
  C785     1.0000 0.99870  0.87960  0.65670  Biso   1.000  C
  C786     1.0000 0.12040  0.11910  0.65670  Biso   1.000  C
  C787     1.0000 0.54757  0.33463  0.99003  Biso   1.000  C
  C788     1.0000 0.66537  0.21293  0.99003  Biso   1.000  C
  C789     1.0000 0.78707  0.45243  0.99003  Biso   1.000  C
  C790     1.0000 0.21423  0.66797  0.32337  Biso   1.000  C
  C791     1.0000 0.33203  0.54627  0.32337  Biso   1.000  C
  C792     1.0000 0.45373  0.78577  0.32337  Biso   1.000  C
  H1153    1.0000 0.13270  0.00720  0.30380  Biso   1.000  H
  H1154    1.0000 0.99280  0.12550  0.30380  Biso   1.000  H
  H1155    1.0000 0.87450  0.86730  0.30380  Biso   1.000  H
  H1156    1.0000 0.79937  0.34053  0.63713  Biso   1.000  H
  H1157    1.0000 0.65947  0.45883  0.63713  Biso   1.000  H
  H1158    1.0000 0.54117  0.20063  0.63713  Biso   1.000  H
  H1159    1.0000 0.46603  0.67387  0.97047  Biso   1.000  H
  H1160    1.0000 0.32613  0.79217  0.97047  Biso   1.000  H
  H1161    1.0000 0.20783  0.53397  0.97047  Biso   1.000  H
  H1162    1.0000 0.86730  0.99280  0.69620  Biso   1.000  H
  H1163    1.0000 0.00720  0.87450  0.69620  Biso   1.000  H
  H1164    1.0000 0.12550  0.13270  0.69620  Biso   1.000  H
  H1165    1.0000 0.53397  0.32613  0.02953  Biso   1.000  H
  H1166    1.0000 0.67387  0.20783  0.02953  Biso   1.000  H
  H1167    1.0000 0.79217  0.46603  0.02953  Biso   1.000  H
  H1168    1.0000 0.20063  0.65947  0.36287  Biso   1.000  H
  H1169    1.0000 0.34053  0.54117  0.36287  Biso   1.000  H
  H1170    1.0000 0.45883  0.79937  0.36287  Biso   1.000  H
  H1171    1.0000 0.13150  0.98530  0.36630  Biso   1.000  H
  H1172    1.0000 0.01470  0.14620  0.36630  Biso   1.000  H
  H1173    1.0000 0.85380  0.86850  0.36630  Biso   1.000  H
  H1174    1.0000 0.79817  0.31863  0.69963  Biso   1.000  H
  H1175    1.0000 0.68137  0.47953  0.69963  Biso   1.000  H
  H1176    1.0000 0.52047  0.20183  0.69963  Biso   1.000  H
  H1177    1.0000 0.46483  0.65197  0.03297  Biso   1.000  H
  H1178    1.0000 0.34803  0.81287  0.03297  Biso   1.000  H
  H1179    1.0000 0.18713  0.53517  0.03297  Biso   1.000  H
  H1180    1.0000 0.86850  0.01470  0.63370  Biso   1.000  H
  H1181    1.0000 0.98530  0.85380  0.63370  Biso   1.000  H
  H1182    1.0000 0.14620  0.13150  0.63370  Biso   1.000  H
  H1183    1.0000 0.53517  0.34803  0.96703  Biso   1.000  H
  H1184    1.0000 0.65197  0.18713  0.96703  Biso   1.000  H
  H1185    1.0000 0.81287  0.46483  0.96703  Biso   1.000  H
  H1186    1.0000 0.20183  0.68137  0.30037  Biso   1.000  H
  H1187    1.0000 0.31863  0.52047  0.30037  Biso   1.000  H
  H1188    1.0000 0.47953  0.79817  0.30037  Biso   1.000  H
  O91      1.0000 0.07610  0.97250  0.33700  Biso   1.000  O
  O92      1.0000 0.02750  0.10360  0.33700  Biso   1.000  O
  O93      1.0000 0.89640  0.92390  0.33700  Biso   1.000  O
  O94      1.0000 0.74277  0.30583  0.67033  Biso   1.000  O
  O95      1.0000 0.69417  0.43693  0.67033  Biso   1.000  O
  O96      1.0000 0.56307  0.25723  0.67033  Biso   1.000  O
  O97      1.0000 0.40943  0.63917  0.00367  Biso   1.000  O
  O98      1.0000 0.36083  0.77027  0.00367  Biso   1.000  O
  O99      1.0000 0.22973  0.59057  0.00367  Biso   1.000  O
  O100     1.0000 0.92390  0.02750  0.66300  Biso   1.000  O
  O101     1.0000 0.97250  0.89640  0.66300  Biso   1.000  O
  O102     1.0000 0.10360  0.07610  0.66300  Biso   1.000  O
  O103     1.0000 0.59057  0.36083  0.99633  Biso   1.000  O
  O104     1.0000 0.63917  0.22973  0.99633  Biso   1.000  O
  O105     1.0000 0.77027  0.40943  0.99633  Biso   1.000  O
  O106     1.0000 0.25723  0.69417  0.32967  Biso   1.000  O
  O107     1.0000 0.30583  0.56307  0.32967  Biso   1.000  O
  O108     1.0000 0.43693  0.74277  0.32967  Biso   1.000  O
  C793     1.0000 0.05970  0.99100  0.30290  Biso   1.000  C
  C794     1.0000 0.00900  0.06870  0.30290  Biso   1.000  C
  C795     1.0000 0.93130  0.94030  0.30290  Biso   1.000  C
  C796     1.0000 0.72637  0.32433  0.63623  Biso   1.000  C
  C797     1.0000 0.67567  0.40203  0.63623  Biso   1.000  C
  C798     1.0000 0.59797  0.27363  0.63623  Biso   1.000  C
  C799     1.0000 0.39303  0.65767  0.96957  Biso   1.000  C
  C800     1.0000 0.34233  0.73537  0.96957  Biso   1.000  C
  C801     1.0000 0.26463  0.60697  0.96957  Biso   1.000  C
  C802     1.0000 0.94030  0.00900  0.69710  Biso   1.000  C
  C803     1.0000 0.99100  0.93130  0.69710  Biso   1.000  C
  C804     1.0000 0.06870  0.05970  0.69710  Biso   1.000  C
  C805     1.0000 0.60697  0.34233  0.03043  Biso   1.000  C
  C806     1.0000 0.65767  0.26463  0.03043  Biso   1.000  C
  C807     1.0000 0.73537  0.39303  0.03043  Biso   1.000  C
  C808     1.0000 0.27363  0.67567  0.36377  Biso   1.000  C
  C809     1.0000 0.32433  0.59797  0.36377  Biso   1.000  C
  C810     1.0000 0.40203  0.72637  0.36377  Biso   1.000  C
  H1189    1.0000 0.03020  0.97180  0.29700  Biso   1.000  H
  H1190    1.0000 0.02820  0.05840  0.29700  Biso   1.000  H
  H1191    1.0000 0.94160  0.96980  0.29700  Biso   1.000  H
  H1192    1.0000 0.69687  0.30513  0.63033  Biso   1.000  H
  H1193    1.0000 0.69487  0.39173  0.63033  Biso   1.000  H
  H1194    1.0000 0.60827  0.30313  0.63033  Biso   1.000  H
  H1195    1.0000 0.36353  0.63847  0.96367  Biso   1.000  H
  H1196    1.0000 0.36153  0.72507  0.96367  Biso   1.000  H
  H1197    1.0000 0.27493  0.63647  0.96367  Biso   1.000  H
  H1198    1.0000 0.96980  0.02820  0.70300  Biso   1.000  H
  H1199    1.0000 0.97180  0.94160  0.70300  Biso   1.000  H
  H1200    1.0000 0.05840  0.03020  0.70300  Biso   1.000  H
  H1201    1.0000 0.63647  0.36153  0.03633  Biso   1.000  H
  H1202    1.0000 0.63847  0.27493  0.03633  Biso   1.000  H
  H1203    1.0000 0.72507  0.36353  0.03633  Biso   1.000  H
  H1204    1.0000 0.30313  0.69487  0.36967  Biso   1.000  H
  H1205    1.0000 0.30513  0.60827  0.36967  Biso   1.000  H
  H1206    1.0000 0.39173  0.69687  0.36967  Biso   1.000  H
  H1207    1.0000 0.07300  0.99780  0.26300  Biso   1.000  H
  H1208    1.0000 0.00220  0.07520  0.26300  Biso   1.000  H
  H1209    1.0000 0.92480  0.92700  0.26300  Biso   1.000  H
  H1210    1.0000 0.73967  0.33113  0.59633  Biso   1.000  H
  H1211    1.0000 0.66887  0.40853  0.59633  Biso   1.000  H
  H1212    1.0000 0.59147  0.26033  0.59633  Biso   1.000  H
  H1213    1.0000 0.40633  0.66447  0.92967  Biso   1.000  H
  H1214    1.0000 0.33553  0.74187  0.92967  Biso   1.000  H
  H1215    1.0000 0.25813  0.59367  0.92967  Biso   1.000  H
  H1216    1.0000 0.92700  0.00220  0.73700  Biso   1.000  H
  H1217    1.0000 0.99780  0.92480  0.73700  Biso   1.000  H
  H1218    1.0000 0.07520  0.07300  0.73700  Biso   1.000  H
  H1219    1.0000 0.59367  0.33553  0.07033  Biso   1.000  H
  H1220    1.0000 0.66447  0.25813  0.07033  Biso   1.000  H
  H1221    1.0000 0.74187  0.40633  0.07033  Biso   1.000  H
  H1222    1.0000 0.26033  0.66887  0.40367  Biso   1.000  H
  H1223    1.0000 0.33113  0.59147  0.40367  Biso   1.000  H
  H1224    1.0000 0.40853  0.73967  0.40367  Biso   1.000  H
  C811     1.0000 0.06600  0.03120  0.33420  Biso   1.000  C
  C812     1.0000 0.96880  0.03480  0.33420  Biso   1.000  C
  C813     1.0000 0.96520  0.93400  0.33420  Biso   1.000  C
  C814     1.0000 0.73267  0.36453  0.66753  Biso   1.000  C
  C815     1.0000 0.63547  0.36813  0.66753  Biso   1.000  C
  C816     1.0000 0.63187  0.26733  0.66753  Biso   1.000  C
  C817     1.0000 0.39933  0.69787  0.00087  Biso   1.000  C
  C818     1.0000 0.30213  0.70147  0.00087  Biso   1.000  C
  C819     1.0000 0.29853  0.60067  0.00087  Biso   1.000  C
  C820     1.0000 0.93400  0.96880  0.66580  Biso   1.000  C
  C821     1.0000 0.03120  0.96520  0.66580  Biso   1.000  C
  C822     1.0000 0.03480  0.06600  0.66580  Biso   1.000  C
  C823     1.0000 0.60067  0.30213  0.99913  Biso   1.000  C
  C824     1.0000 0.69787  0.29853  0.99913  Biso   1.000  C
  C825     1.0000 0.70147  0.39933  0.99913  Biso   1.000  C
  C826     1.0000 0.26733  0.63547  0.33247  Biso   1.000  C
  C827     1.0000 0.36453  0.63187  0.33247  Biso   1.000  C
  C828     1.0000 0.36813  0.73267  0.33247  Biso   1.000  C
  H1225    1.0000 0.05270  0.04370  0.31090  Biso   1.000  H
  H1226    1.0000 0.95630  0.00900  0.31090  Biso   1.000  H
  H1227    1.0000 0.99100  0.94730  0.31090  Biso   1.000  H
  H1228    1.0000 0.71937  0.37703  0.64423  Biso   1.000  H
  H1229    1.0000 0.62297  0.34233  0.64423  Biso   1.000  H
  H1230    1.0000 0.65767  0.28063  0.64423  Biso   1.000  H
  H1231    1.0000 0.38603  0.71037  0.97757  Biso   1.000  H
  H1232    1.0000 0.28963  0.67567  0.97757  Biso   1.000  H
  H1233    1.0000 0.32433  0.61397  0.97757  Biso   1.000  H
  H1234    1.0000 0.94730  0.95630  0.68910  Biso   1.000  H
  H1235    1.0000 0.04370  0.99100  0.68910  Biso   1.000  H
  H1236    1.0000 0.00900  0.05270  0.68910  Biso   1.000  H
  H1237    1.0000 0.61397  0.28963  0.02243  Biso   1.000  H
  H1238    1.0000 0.71037  0.32433  0.02243  Biso   1.000  H
  H1239    1.0000 0.67567  0.38603  0.02243  Biso   1.000  H
  H1240    1.0000 0.28063  0.62297  0.35577  Biso   1.000  H
  H1241    1.0000 0.37703  0.65767  0.35577  Biso   1.000  H
  H1242    1.0000 0.34233  0.71937  0.35577  Biso   1.000  H
  H1243    1.0000 0.05450  0.02540  0.37520  Biso   1.000  H
  H1244    1.0000 0.97460  0.02910  0.37520  Biso   1.000  H
  H1245    1.0000 0.97090  0.94550  0.37520  Biso   1.000  H
  H1246    1.0000 0.72117  0.35873  0.70853  Biso   1.000  H
  H1247    1.0000 0.64127  0.36243  0.70853  Biso   1.000  H
  H1248    1.0000 0.63757  0.27883  0.70853  Biso   1.000  H
  H1249    1.0000 0.38783  0.69207  0.04187  Biso   1.000  H
  H1250    1.0000 0.30793  0.69577  0.04187  Biso   1.000  H
  H1251    1.0000 0.30423  0.61217  0.04187  Biso   1.000  H
  H1252    1.0000 0.94550  0.97460  0.62480  Biso   1.000  H
  H1253    1.0000 0.02540  0.97090  0.62480  Biso   1.000  H
  H1254    1.0000 0.02910  0.05450  0.62480  Biso   1.000  H
  H1255    1.0000 0.61217  0.30793  0.95813  Biso   1.000  H
  H1256    1.0000 0.69207  0.30423  0.95813  Biso   1.000  H
  H1257    1.0000 0.69577  0.38783  0.95813  Biso   1.000  H
  H1258    1.0000 0.27883  0.64127  0.29147  Biso   1.000  H
  H1259    1.0000 0.35873  0.63757  0.29147  Biso   1.000  H
  H1260    1.0000 0.36243  0.72117  0.29147  Biso   1.000  H
  C829     1.0000 0.47420  0.29090  0.29870  Biso   1.000  C
  C830     1.0000 0.70910  0.18330  0.29870  Biso   1.000  C
  C831     1.0000 0.81670  0.52580  0.29870  Biso   1.000  C
  C832     1.0000 0.14087  0.62423  0.63203  Biso   1.000  C
  C833     1.0000 0.37577  0.51663  0.63203  Biso   1.000  C
  C834     1.0000 0.48337  0.85913  0.63203  Biso   1.000  C
  C835     1.0000 0.80753  0.95757  0.96537  Biso   1.000  C
  C836     1.0000 0.04243  0.84997  0.96537  Biso   1.000  C
  C837     1.0000 0.15003  0.19247  0.96537  Biso   1.000  C
  C838     1.0000 0.52580  0.70910  0.70130  Biso   1.000  C
  C839     1.0000 0.29090  0.81670  0.70130  Biso   1.000  C
  C840     1.0000 0.18330  0.47420  0.70130  Biso   1.000  C
  C841     1.0000 0.19247  0.04243  0.03463  Biso   1.000  C
  C842     1.0000 0.95757  0.15003  0.03463  Biso   1.000  C
  C843     1.0000 0.84997  0.80753  0.03463  Biso   1.000  C
  C844     1.0000 0.85913  0.37577  0.36797  Biso   1.000  C
  C845     1.0000 0.62423  0.48337  0.36797  Biso   1.000  C
  C846     1.0000 0.51663  0.14087  0.36797  Biso   1.000  C
  H1261    1.0000 0.50370  0.30620  0.30890  Biso   1.000  H
  H1262    1.0000 0.69380  0.19750  0.30890  Biso   1.000  H
  H1263    1.0000 0.80250  0.49630  0.30890  Biso   1.000  H
  H1264    1.0000 0.17037  0.63953  0.64223  Biso   1.000  H
  H1265    1.0000 0.36047  0.53083  0.64223  Biso   1.000  H
  H1266    1.0000 0.46917  0.82963  0.64223  Biso   1.000  H
  H1267    1.0000 0.83703  0.97287  0.97557  Biso   1.000  H
  H1268    1.0000 0.02713  0.86417  0.97557  Biso   1.000  H
  H1269    1.0000 0.13583  0.16297  0.97557  Biso   1.000  H
  H1270    1.0000 0.49630  0.69380  0.69110  Biso   1.000  H
  H1271    1.0000 0.30620  0.80250  0.69110  Biso   1.000  H
  H1272    1.0000 0.19750  0.50370  0.69110  Biso   1.000  H
  H1273    1.0000 0.16297  0.02713  0.02443  Biso   1.000  H
  H1274    1.0000 0.97287  0.13583  0.02443  Biso   1.000  H
  H1275    1.0000 0.86417  0.83703  0.02443  Biso   1.000  H
  H1276    1.0000 0.82963  0.36047  0.35777  Biso   1.000  H
  H1277    1.0000 0.63953  0.46917  0.35777  Biso   1.000  H
  H1278    1.0000 0.53083  0.17037  0.35777  Biso   1.000  H
  H1279    1.0000 0.46940  0.30660  0.26750  Biso   1.000  H
  H1280    1.0000 0.69340  0.16280  0.26750  Biso   1.000  H
  H1281    1.0000 0.83720  0.53060  0.26750  Biso   1.000  H
  H1282    1.0000 0.13607  0.63993  0.60083  Biso   1.000  H
  H1283    1.0000 0.36007  0.49613  0.60083  Biso   1.000  H
  H1284    1.0000 0.50387  0.86393  0.60083  Biso   1.000  H
  H1285    1.0000 0.80273  0.97327  0.93417  Biso   1.000  H
  H1286    1.0000 0.02673  0.82947  0.93417  Biso   1.000  H
  H1287    1.0000 0.17053  0.19727  0.93417  Biso   1.000  H
  H1288    1.0000 0.53060  0.69340  0.73250  Biso   1.000  H
  H1289    1.0000 0.30660  0.83720  0.73250  Biso   1.000  H
  H1290    1.0000 0.16280  0.46940  0.73250  Biso   1.000  H
  H1291    1.0000 0.19727  0.02673  0.06583  Biso   1.000  H
  H1292    1.0000 0.97327  0.17053  0.06583  Biso   1.000  H
  H1293    1.0000 0.82947  0.80273  0.06583  Biso   1.000  H
  H1294    1.0000 0.86393  0.36007  0.39917  Biso   1.000  H
  H1295    1.0000 0.63993  0.50387  0.39917  Biso   1.000  H
  H1296    1.0000 0.49613  0.13607  0.39917  Biso   1.000  H
  C847     1.0000 0.46410  0.24870  0.27190  Biso   1.000  C
  C848     1.0000 0.75130  0.21540  0.27190  Biso   1.000  C
  C849     1.0000 0.78460  0.53590  0.27190  Biso   1.000  C
  C850     1.0000 0.13077  0.58203  0.60523  Biso   1.000  C
  C851     1.0000 0.41797  0.54873  0.60523  Biso   1.000  C
  C852     1.0000 0.45127  0.86923  0.60523  Biso   1.000  C
  C853     1.0000 0.79743  0.91537  0.93857  Biso   1.000  C
  C854     1.0000 0.08463  0.88207  0.93857  Biso   1.000  C
  C855     1.0000 0.11793  0.20257  0.93857  Biso   1.000  C
  C856     1.0000 0.53590  0.75130  0.72810  Biso   1.000  C
  C857     1.0000 0.24870  0.78460  0.72810  Biso   1.000  C
  C858     1.0000 0.21540  0.46410  0.72810  Biso   1.000  C
  C859     1.0000 0.20257  0.08463  0.06143  Biso   1.000  C
  C860     1.0000 0.91537  0.11793  0.06143  Biso   1.000  C
  C861     1.0000 0.88207  0.79743  0.06143  Biso   1.000  C
  C862     1.0000 0.86923  0.41797  0.39477  Biso   1.000  C
  C863     1.0000 0.58203  0.45127  0.39477  Biso   1.000  C
  C864     1.0000 0.54873  0.13077  0.39477  Biso   1.000  C
  H1297    1.0000 0.48270  0.25380  0.23780  Biso   1.000  H
  H1298    1.0000 0.74620  0.22890  0.23780  Biso   1.000  H
  H1299    1.0000 0.77110  0.51730  0.23780  Biso   1.000  H
  H1300    1.0000 0.14937  0.58713  0.57113  Biso   1.000  H
  H1301    1.0000 0.41287  0.56223  0.57113  Biso   1.000  H
  H1302    1.0000 0.43777  0.85063  0.57113  Biso   1.000  H
  H1303    1.0000 0.81603  0.92047  0.90447  Biso   1.000  H
  H1304    1.0000 0.07953  0.89557  0.90447  Biso   1.000  H
  H1305    1.0000 0.10443  0.18397  0.90447  Biso   1.000  H
  H1306    1.0000 0.51730  0.74620  0.76220  Biso   1.000  H
  H1307    1.0000 0.25380  0.77110  0.76220  Biso   1.000  H
  H1308    1.0000 0.22890  0.48270  0.76220  Biso   1.000  H
  H1309    1.0000 0.18397  0.07953  0.09553  Biso   1.000  H
  H1310    1.0000 0.92047  0.10443  0.09553  Biso   1.000  H
  H1311    1.0000 0.89557  0.81603  0.09553  Biso   1.000  H
  H1312    1.0000 0.85063  0.41287  0.42887  Biso   1.000  H
  H1313    1.0000 0.58713  0.43777  0.42887  Biso   1.000  H
  H1314    1.0000 0.56223  0.14937  0.42887  Biso   1.000  H
  H1315    1.0000 0.47040  0.23380  0.30270  Biso   1.000  H
  H1316    1.0000 0.76620  0.23660  0.30270  Biso   1.000  H
  H1317    1.0000 0.76340  0.52960  0.30270  Biso   1.000  H
  H1318    1.0000 0.13707  0.56713  0.63603  Biso   1.000  H
  H1319    1.0000 0.43287  0.56993  0.63603  Biso   1.000  H
  H1320    1.0000 0.43007  0.86293  0.63603  Biso   1.000  H
  H1321    1.0000 0.80373  0.90047  0.96937  Biso   1.000  H
  H1322    1.0000 0.09953  0.90327  0.96937  Biso   1.000  H
  H1323    1.0000 0.09673  0.19627  0.96937  Biso   1.000  H
  H1324    1.0000 0.52960  0.76620  0.69730  Biso   1.000  H
  H1325    1.0000 0.23380  0.76340  0.69730  Biso   1.000  H
  H1326    1.0000 0.23660  0.47040  0.69730  Biso   1.000  H
  H1327    1.0000 0.19627  0.09953  0.03063  Biso   1.000  H
  H1328    1.0000 0.90047  0.09673  0.03063  Biso   1.000  H
  H1329    1.0000 0.90327  0.80373  0.03063  Biso   1.000  H
  H1330    1.0000 0.86293  0.43287  0.36397  Biso   1.000  H
  H1331    1.0000 0.56713  0.43007  0.36397  Biso   1.000  H
  H1332    1.0000 0.56993  0.13707  0.36397  Biso   1.000  H
  N469     1.0000 0.42230  0.22190  0.25130  Biso   1.000  N
  N470     1.0000 0.77810  0.20040  0.25130  Biso   1.000  N
  N471     1.0000 0.79960  0.57770  0.25130  Biso   1.000  N
  N472     1.0000 0.08897  0.55523  0.58463  Biso   1.000  N
  N473     1.0000 0.44477  0.53373  0.58463  Biso   1.000  N
  N474     1.0000 0.46627  0.91103  0.58463  Biso   1.000  N
  N475     1.0000 0.75563  0.88857  0.91797  Biso   1.000  N
  N476     1.0000 0.11143  0.86707  0.91797  Biso   1.000  N
  N477     1.0000 0.13293  0.24437  0.91797  Biso   1.000  N
  N478     1.0000 0.57770  0.77810  0.74870  Biso   1.000  N
  N479     1.0000 0.22190  0.79960  0.74870  Biso   1.000  N
  N480     1.0000 0.20040  0.42230  0.74870  Biso   1.000  N
  N481     1.0000 0.24437  0.11143  0.08203  Biso   1.000  N
  N482     1.0000 0.88857  0.13293  0.08203  Biso   1.000  N
  N483     1.0000 0.86707  0.75563  0.08203  Biso   1.000  N
  N484     1.0000 0.91103  0.44477  0.41537  Biso   1.000  N
  N485     1.0000 0.55523  0.46627  0.41537  Biso   1.000  N
  N486     1.0000 0.53373  0.08897  0.41537  Biso   1.000  N
  C865     1.0000 0.41410  0.24430  0.19870  Biso   1.000  C
  C866     1.0000 0.75570  0.16980  0.19870  Biso   1.000  C
  C867     1.0000 0.83020  0.58590  0.19870  Biso   1.000  C
  C868     1.0000 0.08077  0.57763  0.53203  Biso   1.000  C
  C869     1.0000 0.42237  0.50313  0.53203  Biso   1.000  C
  C870     1.0000 0.49687  0.91923  0.53203  Biso   1.000  C
  C871     1.0000 0.74743  0.91097  0.86537  Biso   1.000  C
  C872     1.0000 0.08903  0.83647  0.86537  Biso   1.000  C
  C873     1.0000 0.16353  0.25257  0.86537  Biso   1.000  C
  C874     1.0000 0.58590  0.75570  0.80130  Biso   1.000  C
  C875     1.0000 0.24430  0.83020  0.80130  Biso   1.000  C
  C876     1.0000 0.16980  0.41410  0.80130  Biso   1.000  C
  C877     1.0000 0.25257  0.08903  0.13463  Biso   1.000  C
  C878     1.0000 0.91097  0.16353  0.13463  Biso   1.000  C
  C879     1.0000 0.83647  0.74743  0.13463  Biso   1.000  C
  C880     1.0000 0.91923  0.42237  0.46797  Biso   1.000  C
  C881     1.0000 0.57763  0.49687  0.46797  Biso   1.000  C
  C882     1.0000 0.50313  0.08077  0.46797  Biso   1.000  C
  H1333    1.0000 0.40940  0.26600  0.21490  Biso   1.000  H
  H1334    1.0000 0.73400  0.14340  0.21490  Biso   1.000  H
  H1335    1.0000 0.85660  0.59060  0.21490  Biso   1.000  H
  H1336    1.0000 0.07607  0.59933  0.54823  Biso   1.000  H
  H1337    1.0000 0.40067  0.47673  0.54823  Biso   1.000  H
  H1338    1.0000 0.52327  0.92393  0.54823  Biso   1.000  H
  H1339    1.0000 0.74273  0.93267  0.88157  Biso   1.000  H
  H1340    1.0000 0.06733  0.81007  0.88157  Biso   1.000  H
  H1341    1.0000 0.18993  0.25727  0.88157  Biso   1.000  H
  H1342    1.0000 0.59060  0.73400  0.78510  Biso   1.000  H
  H1343    1.0000 0.26600  0.85660  0.78510  Biso   1.000  H
  H1344    1.0000 0.14340  0.40940  0.78510  Biso   1.000  H
  H1345    1.0000 0.25727  0.06733  0.11843  Biso   1.000  H
  H1346    1.0000 0.93267  0.18993  0.11843  Biso   1.000  H
  H1347    1.0000 0.81007  0.74273  0.11843  Biso   1.000  H
  H1348    1.0000 0.92393  0.40067  0.45177  Biso   1.000  H
  H1349    1.0000 0.59933  0.52327  0.45177  Biso   1.000  H
  H1350    1.0000 0.47673  0.07607  0.45177  Biso   1.000  H
  H1351    1.0000 0.43810  0.25720  0.17180  Biso   1.000  H
  H1352    1.0000 0.74280  0.18090  0.17180  Biso   1.000  H
  H1353    1.0000 0.81910  0.56190  0.17180  Biso   1.000  H
  H1354    1.0000 0.10477  0.59053  0.50513  Biso   1.000  H
  H1355    1.0000 0.40947  0.51423  0.50513  Biso   1.000  H
  H1356    1.0000 0.48577  0.89523  0.50513  Biso   1.000  H
  H1357    1.0000 0.77143  0.92387  0.83847  Biso   1.000  H
  H1358    1.0000 0.07613  0.84757  0.83847  Biso   1.000  H
  H1359    1.0000 0.15243  0.22857  0.83847  Biso   1.000  H
  H1360    1.0000 0.56190  0.74280  0.82820  Biso   1.000  H
  H1361    1.0000 0.25720  0.81910  0.82820  Biso   1.000  H
  H1362    1.0000 0.18090  0.43810  0.82820  Biso   1.000  H
  H1363    1.0000 0.22857  0.07613  0.16153  Biso   1.000  H
  H1364    1.0000 0.92387  0.15243  0.16153  Biso   1.000  H
  H1365    1.0000 0.84757  0.77143  0.16153  Biso   1.000  H
  H1366    1.0000 0.89523  0.40947  0.49487  Biso   1.000  H
  H1367    1.0000 0.59053  0.48577  0.49487  Biso   1.000  H
  H1368    1.0000 0.51423  0.10477  0.49487  Biso   1.000  H
  C883     1.0000 0.38070  0.21660  0.16770  Biso   1.000  C
  C884     1.0000 0.78340  0.16410  0.16770  Biso   1.000  C
  C885     1.0000 0.83590  0.61930  0.16770  Biso   1.000  C
  C886     1.0000 0.04737  0.54993  0.50103  Biso   1.000  C
  C887     1.0000 0.45007  0.49743  0.50103  Biso   1.000  C
  C888     1.0000 0.50257  0.95263  0.50103  Biso   1.000  C
  C889     1.0000 0.71403  0.88327  0.83437  Biso   1.000  C
  C890     1.0000 0.11673  0.83077  0.83437  Biso   1.000  C
  C891     1.0000 0.16923  0.28597  0.83437  Biso   1.000  C
  C892     1.0000 0.61930  0.78340  0.83230  Biso   1.000  C
  C893     1.0000 0.21660  0.83590  0.83230  Biso   1.000  C
  C894     1.0000 0.16410  0.38070  0.83230  Biso   1.000  C
  C895     1.0000 0.28597  0.11673  0.16563  Biso   1.000  C
  C896     1.0000 0.88327  0.16923  0.16563  Biso   1.000  C
  C897     1.0000 0.83077  0.71403  0.16563  Biso   1.000  C
  C898     1.0000 0.95263  0.45007  0.49897  Biso   1.000  C
  C899     1.0000 0.54993  0.50257  0.49897  Biso   1.000  C
  C900     1.0000 0.49743  0.04737  0.49897  Biso   1.000  C
  H1369    1.0000 0.37590  0.23190  0.13580  Biso   1.000  H
  H1370    1.0000 0.76810  0.14400  0.13580  Biso   1.000  H
  H1371    1.0000 0.85600  0.62410  0.13580  Biso   1.000  H
  H1372    1.0000 0.04257  0.56523  0.46913  Biso   1.000  H
  H1373    1.0000 0.43477  0.47733  0.46913  Biso   1.000  H
  H1374    1.0000 0.52267  0.95743  0.46913  Biso   1.000  H
  H1375    1.0000 0.70923  0.89857  0.80247  Biso   1.000  H
  H1376    1.0000 0.10143  0.81067  0.80247  Biso   1.000  H
  H1377    1.0000 0.18933  0.29077  0.80247  Biso   1.000  H
  H1378    1.0000 0.62410  0.76810  0.86420  Biso   1.000  H
  H1379    1.0000 0.23190  0.85600  0.86420  Biso   1.000  H
  H1380    1.0000 0.14400  0.37590  0.86420  Biso   1.000  H
  H1381    1.0000 0.29077  0.10143  0.19753  Biso   1.000  H
  H1382    1.0000 0.89857  0.18933  0.19753  Biso   1.000  H
  H1383    1.0000 0.81067  0.70923  0.19753  Biso   1.000  H
  H1384    1.0000 0.95743  0.43477  0.53087  Biso   1.000  H
  H1385    1.0000 0.56523  0.52267  0.53087  Biso   1.000  H
  H1386    1.0000 0.47733  0.04257  0.53087  Biso   1.000  H
  H1387    1.0000 0.35720  0.20640  0.19540  Biso   1.000  H
  H1388    1.0000 0.79360  0.15080  0.19540  Biso   1.000  H
  H1389    1.0000 0.84920  0.64280  0.19540  Biso   1.000  H
  H1390    1.0000 0.02387  0.53973  0.52873  Biso   1.000  H
  H1391    1.0000 0.46027  0.48413  0.52873  Biso   1.000  H
  H1392    1.0000 0.51587  0.97613  0.52873  Biso   1.000  H
  H1393    1.0000 0.69053  0.87307  0.86207  Biso   1.000  H
  H1394    1.0000 0.12693  0.81747  0.86207  Biso   1.000  H
  H1395    1.0000 0.18253  0.30947  0.86207  Biso   1.000  H
  H1396    1.0000 0.64280  0.79360  0.80460  Biso   1.000  H
  H1397    1.0000 0.20640  0.84920  0.80460  Biso   1.000  H
  H1398    1.0000 0.15080  0.35720  0.80460  Biso   1.000  H
  H1399    1.0000 0.30947  0.12693  0.13793  Biso   1.000  H
  H1400    1.0000 0.87307  0.18253  0.13793  Biso   1.000  H
  H1401    1.0000 0.81747  0.69053  0.13793  Biso   1.000  H
  H1402    1.0000 0.97613  0.46027  0.47127  Biso   1.000  H
  H1403    1.0000 0.53973  0.51587  0.47127  Biso   1.000  H
  H1404    1.0000 0.48413  0.02387  0.47127  Biso   1.000  H
  O109     1.0000 0.37880  0.17980  0.13860  Biso   1.000  O
  O110     1.0000 0.82020  0.19900  0.13860  Biso   1.000  O
  O111     1.0000 0.80100  0.62120  0.13860  Biso   1.000  O
  O112     1.0000 0.04547  0.51313  0.47193  Biso   1.000  O
  O113     1.0000 0.48687  0.53233  0.47193  Biso   1.000  O
  O114     1.0000 0.46767  0.95453  0.47193  Biso   1.000  O
  O115     1.0000 0.71213  0.84647  0.80527  Biso   1.000  O
  O116     1.0000 0.15353  0.86567  0.80527  Biso   1.000  O
  O117     1.0000 0.13433  0.28787  0.80527  Biso   1.000  O
  O118     1.0000 0.62120  0.82020  0.86140  Biso   1.000  O
  O119     1.0000 0.17980  0.80100  0.86140  Biso   1.000  O
  O120     1.0000 0.19900  0.37880  0.86140  Biso   1.000  O
  O121     1.0000 0.28787  0.15353  0.19473  Biso   1.000  O
  O122     1.0000 0.84647  0.13433  0.19473  Biso   1.000  O
  O123     1.0000 0.86567  0.71213  0.19473  Biso   1.000  O
  O124     1.0000 0.95453  0.48687  0.52807  Biso   1.000  O
  O125     1.0000 0.51313  0.46767  0.52807  Biso   1.000  O
  O126     1.0000 0.53233  0.04547  0.52807  Biso   1.000  O
  C901     1.0000 0.38960  0.16130  0.19210  Biso   1.000  C
  C902     1.0000 0.83870  0.22830  0.19210  Biso   1.000  C
  C903     1.0000 0.77170  0.61040  0.19210  Biso   1.000  C
  C904     1.0000 0.05627  0.49463  0.52543  Biso   1.000  C
  C905     1.0000 0.50537  0.56163  0.52543  Biso   1.000  C
  C906     1.0000 0.43837  0.94373  0.52543  Biso   1.000  C
  C907     1.0000 0.72293  0.82797  0.85877  Biso   1.000  C
  C908     1.0000 0.17203  0.89497  0.85877  Biso   1.000  C
  C909     1.0000 0.10503  0.27707  0.85877  Biso   1.000  C
  C910     1.0000 0.61040  0.83870  0.80790  Biso   1.000  C
  C911     1.0000 0.16130  0.77170  0.80790  Biso   1.000  C
  C912     1.0000 0.22830  0.38960  0.80790  Biso   1.000  C
  C913     1.0000 0.27707  0.17203  0.14123  Biso   1.000  C
  C914     1.0000 0.82797  0.10503  0.14123  Biso   1.000  C
  C915     1.0000 0.89497  0.72293  0.14123  Biso   1.000  C
  C916     1.0000 0.94373  0.50537  0.47457  Biso   1.000  C
  C917     1.0000 0.49463  0.43837  0.47457  Biso   1.000  C
  C918     1.0000 0.56163  0.05627  0.47457  Biso   1.000  C
  H1405    1.0000 0.36540  0.14870  0.21870  Biso   1.000  H
  H1406    1.0000 0.85130  0.21670  0.21870  Biso   1.000  H
  H1407    1.0000 0.78330  0.63460  0.21870  Biso   1.000  H
  H1408    1.0000 0.03207  0.48203  0.55203  Biso   1.000  H
  H1409    1.0000 0.51797  0.55003  0.55203  Biso   1.000  H
  H1410    1.0000 0.44997  0.96793  0.55203  Biso   1.000  H
  H1411    1.0000 0.69873  0.81537  0.88537  Biso   1.000  H
  H1412    1.0000 0.18463  0.88337  0.88537  Biso   1.000  H
  H1413    1.0000 0.11663  0.30127  0.88537  Biso   1.000  H
  H1414    1.0000 0.63460  0.85130  0.78130  Biso   1.000  H
  H1415    1.0000 0.14870  0.78330  0.78130  Biso   1.000  H
  H1416    1.0000 0.21670  0.36540  0.78130  Biso   1.000  H
  H1417    1.0000 0.30127  0.18463  0.11463  Biso   1.000  H
  H1418    1.0000 0.81537  0.11663  0.11463  Biso   1.000  H
  H1419    1.0000 0.88337  0.69873  0.11463  Biso   1.000  H
  H1420    1.0000 0.96793  0.51797  0.44797  Biso   1.000  H
  H1421    1.0000 0.48203  0.44997  0.44797  Biso   1.000  H
  H1422    1.0000 0.55003  0.03207  0.44797  Biso   1.000  H
  H1423    1.0000 0.39300  0.13870  0.17630  Biso   1.000  H
  H1424    1.0000 0.86130  0.25430  0.17630  Biso   1.000  H
  H1425    1.0000 0.74570  0.60700  0.17630  Biso   1.000  H
  H1426    1.0000 0.05967  0.47203  0.50963  Biso   1.000  H
  H1427    1.0000 0.52797  0.58763  0.50963  Biso   1.000  H
  H1428    1.0000 0.41237  0.94033  0.50963  Biso   1.000  H
  H1429    1.0000 0.72633  0.80537  0.84297  Biso   1.000  H
  H1430    1.0000 0.19463  0.92097  0.84297  Biso   1.000  H
  H1431    1.0000 0.07903  0.27367  0.84297  Biso   1.000  H
  H1432    1.0000 0.60700  0.86130  0.82370  Biso   1.000  H
  H1433    1.0000 0.13870  0.74570  0.82370  Biso   1.000  H
  H1434    1.0000 0.25430  0.39300  0.82370  Biso   1.000  H
  H1435    1.0000 0.27367  0.19463  0.15703  Biso   1.000  H
  H1436    1.0000 0.80537  0.07903  0.15703  Biso   1.000  H
  H1437    1.0000 0.92097  0.72633  0.15703  Biso   1.000  H
  H1438    1.0000 0.94033  0.52797  0.49037  Biso   1.000  H
  H1439    1.0000 0.47203  0.41237  0.49037  Biso   1.000  H
  H1440    1.0000 0.58763  0.05967  0.49037  Biso   1.000  H
  C919     1.0000 0.42170  0.18400  0.22600  Biso   1.000  C
  C920     1.0000 0.81600  0.23770  0.22600  Biso   1.000  C
  C921     1.0000 0.76230  0.57830  0.22600  Biso   1.000  C
  C922     1.0000 0.08837  0.51733  0.55933  Biso   1.000  C
  C923     1.0000 0.48267  0.57103  0.55933  Biso   1.000  C
  C924     1.0000 0.42897  0.91163  0.55933  Biso   1.000  C
  C925     1.0000 0.75503  0.85067  0.89267  Biso   1.000  C
  C926     1.0000 0.14933  0.90437  0.89267  Biso   1.000  C
  C927     1.0000 0.09563  0.24497  0.89267  Biso   1.000  C
  C928     1.0000 0.57830  0.81600  0.77400  Biso   1.000  C
  C929     1.0000 0.18400  0.76230  0.77400  Biso   1.000  C
  C930     1.0000 0.23770  0.42170  0.77400  Biso   1.000  C
  C931     1.0000 0.24497  0.14933  0.10733  Biso   1.000  C
  C932     1.0000 0.85067  0.09563  0.10733  Biso   1.000  C
  C933     1.0000 0.90437  0.75503  0.10733  Biso   1.000  C
  C934     1.0000 0.91163  0.48267  0.44067  Biso   1.000  C
  C935     1.0000 0.51733  0.42897  0.44067  Biso   1.000  C
  C936     1.0000 0.57103  0.08837  0.44067  Biso   1.000  C
  H1441    1.0000 0.44670  0.19280  0.20210  Biso   1.000  H
  H1442    1.0000 0.80720  0.25390  0.20210  Biso   1.000  H
  H1443    1.0000 0.74610  0.55330  0.20210  Biso   1.000  H
  H1444    1.0000 0.11337  0.52613  0.53543  Biso   1.000  H
  H1445    1.0000 0.47387  0.58723  0.53543  Biso   1.000  H
  H1446    1.0000 0.41277  0.88663  0.53543  Biso   1.000  H
  H1447    1.0000 0.78003  0.85947  0.86877  Biso   1.000  H
  H1448    1.0000 0.14053  0.92057  0.86877  Biso   1.000  H
  H1449    1.0000 0.07943  0.21997  0.86877  Biso   1.000  H
  H1450    1.0000 0.55330  0.80720  0.79790  Biso   1.000  H
  H1451    1.0000 0.19280  0.74610  0.79790  Biso   1.000  H
  H1452    1.0000 0.25390  0.44670  0.79790  Biso   1.000  H
  H1453    1.0000 0.21997  0.14053  0.13123  Biso   1.000  H
  H1454    1.0000 0.85947  0.07943  0.13123  Biso   1.000  H
  H1455    1.0000 0.92057  0.78003  0.13123  Biso   1.000  H
  H1456    1.0000 0.88663  0.47387  0.46457  Biso   1.000  H
  H1457    1.0000 0.52613  0.41277  0.46457  Biso   1.000  H
  H1458    1.0000 0.58723  0.11337  0.46457  Biso   1.000  H
  H1459    1.0000 0.42210  0.16720  0.25970  Biso   1.000  H
  H1460    1.0000 0.83280  0.25490  0.25970  Biso   1.000  H
  H1461    1.0000 0.74510  0.57790  0.25970  Biso   1.000  H
  H1462    1.0000 0.08877  0.50053  0.59303  Biso   1.000  H
  H1463    1.0000 0.49947  0.58823  0.59303  Biso   1.000  H
  H1464    1.0000 0.41177  0.91123  0.59303  Biso   1.000  H
  H1465    1.0000 0.75543  0.83387  0.92637  Biso   1.000  H
  H1466    1.0000 0.16613  0.92157  0.92637  Biso   1.000  H
  H1467    1.0000 0.07843  0.24457  0.92637  Biso   1.000  H
  H1468    1.0000 0.57790  0.83280  0.74030  Biso   1.000  H
  H1469    1.0000 0.16720  0.74510  0.74030  Biso   1.000  H
  H1470    1.0000 0.25490  0.42210  0.74030  Biso   1.000  H
  H1471    1.0000 0.24457  0.16613  0.07363  Biso   1.000  H
  H1472    1.0000 0.83387  0.07843  0.07363  Biso   1.000  H
  H1473    1.0000 0.92157  0.75543  0.07363  Biso   1.000  H
  H1474    1.0000 0.91123  0.49947  0.40697  Biso   1.000  H
  H1475    1.0000 0.50053  0.41177  0.40697  Biso   1.000  H
  H1476    1.0000 0.58823  0.08877  0.40697  Biso   1.000  H
  C937     1.0000 0.19200  0.13720  0.28030  Biso   1.000  C
  C938     1.0000 0.86280  0.05480  0.28030  Biso   1.000  C
  C939     1.0000 0.94520  0.80800  0.28030  Biso   1.000  C
  C940     1.0000 0.85867  0.47053  0.61363  Biso   1.000  C
  C941     1.0000 0.52947  0.38813  0.61363  Biso   1.000  C
  C942     1.0000 0.61187  0.14133  0.61363  Biso   1.000  C
  C943     1.0000 0.52533  0.80387  0.94697  Biso   1.000  C
  C944     1.0000 0.19613  0.72147  0.94697  Biso   1.000  C
  C945     1.0000 0.27853  0.47467  0.94697  Biso   1.000  C
  C946     1.0000 0.80800  0.86280  0.71970  Biso   1.000  C
  C947     1.0000 0.13720  0.94520  0.71970  Biso   1.000  C
  C948     1.0000 0.05480  0.19200  0.71970  Biso   1.000  C
  C949     1.0000 0.47467  0.19613  0.05303  Biso   1.000  C
  C950     1.0000 0.80387  0.27853  0.05303  Biso   1.000  C
  C951     1.0000 0.72147  0.52533  0.05303  Biso   1.000  C
  C952     1.0000 0.14133  0.52947  0.38637  Biso   1.000  C
  C953     1.0000 0.47053  0.61187  0.38637  Biso   1.000  C
  C954     1.0000 0.38813  0.85867  0.38637  Biso   1.000  C
  H1477    1.0000 0.19520  0.11590  0.25920  Biso   1.000  H
  H1478    1.0000 0.88410  0.07930  0.25920  Biso   1.000  H
  H1479    1.0000 0.92070  0.80480  0.25920  Biso   1.000  H
  H1480    1.0000 0.86187  0.44923  0.59253  Biso   1.000  H
  H1481    1.0000 0.55077  0.41263  0.59253  Biso   1.000  H
  H1482    1.0000 0.58737  0.13813  0.59253  Biso   1.000  H
  H1483    1.0000 0.52853  0.78257  0.92587  Biso   1.000  H
  H1484    1.0000 0.21743  0.74597  0.92587  Biso   1.000  H
  H1485    1.0000 0.25403  0.47147  0.92587  Biso   1.000  H
  H1486    1.0000 0.80480  0.88410  0.74080  Biso   1.000  H
  H1487    1.0000 0.11590  0.92070  0.74080  Biso   1.000  H
  H1488    1.0000 0.07930  0.19520  0.74080  Biso   1.000  H
  H1489    1.0000 0.47147  0.21743  0.07413  Biso   1.000  H
  H1490    1.0000 0.78257  0.25403  0.07413  Biso   1.000  H
  H1491    1.0000 0.74597  0.52853  0.07413  Biso   1.000  H
  H1492    1.0000 0.13813  0.55077  0.40747  Biso   1.000  H
  H1493    1.0000 0.44923  0.58737  0.40747  Biso   1.000  H
  H1494    1.0000 0.41263  0.86187  0.40747  Biso   1.000  H
  H1495    1.0000 0.17790  0.14720  0.25400  Biso   1.000  H
  H1496    1.0000 0.85280  0.03070  0.25400  Biso   1.000  H
  H1497    1.0000 0.96930  0.82210  0.25400  Biso   1.000  H
  H1498    1.0000 0.84457  0.48053  0.58733  Biso   1.000  H
  H1499    1.0000 0.51947  0.36403  0.58733  Biso   1.000  H
  H1500    1.0000 0.63597  0.15543  0.58733  Biso   1.000  H
  H1501    1.0000 0.51123  0.81387  0.92067  Biso   1.000  H
  H1502    1.0000 0.18613  0.69737  0.92067  Biso   1.000  H
  H1503    1.0000 0.30263  0.48877  0.92067  Biso   1.000  H
  H1504    1.0000 0.82210  0.85280  0.74600  Biso   1.000  H
  H1505    1.0000 0.14720  0.96930  0.74600  Biso   1.000  H
  H1506    1.0000 0.03070  0.17790  0.74600  Biso   1.000  H
  H1507    1.0000 0.48877  0.18613  0.07933  Biso   1.000  H
  H1508    1.0000 0.81387  0.30263  0.07933  Biso   1.000  H
  H1509    1.0000 0.69737  0.51123  0.07933  Biso   1.000  H
  H1510    1.0000 0.15543  0.51947  0.41267  Biso   1.000  H
  H1511    1.0000 0.48053  0.63597  0.41267  Biso   1.000  H
  H1512    1.0000 0.36403  0.84457  0.41267  Biso   1.000  H
  C955     1.0000 0.16960  0.12160  0.34190  Biso   1.000  C
  C956     1.0000 0.87840  0.04800  0.34190  Biso   1.000  C
  C957     1.0000 0.95200  0.83040  0.34190  Biso   1.000  C
  C958     1.0000 0.83627  0.45493  0.67523  Biso   1.000  C
  C959     1.0000 0.54507  0.38133  0.67523  Biso   1.000  C
  C960     1.0000 0.61867  0.16373  0.67523  Biso   1.000  C
  C961     1.0000 0.50293  0.78827  0.00857  Biso   1.000  C
  C962     1.0000 0.21173  0.71467  0.00857  Biso   1.000  C
  C963     1.0000 0.28533  0.49707  0.00857  Biso   1.000  C
  C964     1.0000 0.83040  0.87840  0.65810  Biso   1.000  C
  C965     1.0000 0.12160  0.95200  0.65810  Biso   1.000  C
  C966     1.0000 0.04800  0.16960  0.65810  Biso   1.000  C
  C967     1.0000 0.49707  0.21173  0.99143  Biso   1.000  C
  C968     1.0000 0.78827  0.28533  0.99143  Biso   1.000  C
  C969     1.0000 0.71467  0.50293  0.99143  Biso   1.000  C
  C970     1.0000 0.16373  0.54507  0.32477  Biso   1.000  C
  C971     1.0000 0.45493  0.61867  0.32477  Biso   1.000  C
  C972     1.0000 0.38133  0.83627  0.32477  Biso   1.000  C
  H1513    1.0000 0.17330  0.14490  0.36650  Biso   1.000  H
  H1514    1.0000 0.85510  0.02840  0.36650  Biso   1.000  H
  H1515    1.0000 0.97160  0.82670  0.36650  Biso   1.000  H
  H1516    1.0000 0.83997  0.47823  0.69983  Biso   1.000  H
  H1517    1.0000 0.52177  0.36173  0.69983  Biso   1.000  H
  H1518    1.0000 0.63827  0.16003  0.69983  Biso   1.000  H
  H1519    1.0000 0.50663  0.81157  0.03317  Biso   1.000  H
  H1520    1.0000 0.18843  0.69507  0.03317  Biso   1.000  H
  H1521    1.0000 0.30493  0.49337  0.03317  Biso   1.000  H
  H1522    1.0000 0.82670  0.85510  0.63350  Biso   1.000  H
  H1523    1.0000 0.14490  0.97160  0.63350  Biso   1.000  H
  H1524    1.0000 0.02840  0.17330  0.63350  Biso   1.000  H
  H1525    1.0000 0.49337  0.18843  0.96683  Biso   1.000  H
  H1526    1.0000 0.81157  0.30493  0.96683  Biso   1.000  H
  H1527    1.0000 0.69507  0.50663  0.96683  Biso   1.000  H
  H1528    1.0000 0.16003  0.52177  0.30017  Biso   1.000  H
  H1529    1.0000 0.47823  0.63827  0.30017  Biso   1.000  H
  H1530    1.0000 0.36173  0.83997  0.30017  Biso   1.000  H
  H1531    1.0000 0.18120  0.10700  0.36400  Biso   1.000  H
  H1532    1.0000 0.89300  0.07420  0.36400  Biso   1.000  H
  H1533    1.0000 0.92580  0.81880  0.36400  Biso   1.000  H
  H1534    1.0000 0.84787  0.44033  0.69733  Biso   1.000  H
  H1535    1.0000 0.55967  0.40753  0.69733  Biso   1.000  H
  H1536    1.0000 0.59247  0.15213  0.69733  Biso   1.000  H
  H1537    1.0000 0.51453  0.77367  0.03067  Biso   1.000  H
  H1538    1.0000 0.22633  0.74087  0.03067  Biso   1.000  H
  H1539    1.0000 0.25913  0.48547  0.03067  Biso   1.000  H
  H1540    1.0000 0.81880  0.89300  0.63600  Biso   1.000  H
  H1541    1.0000 0.10700  0.92580  0.63600  Biso   1.000  H
  H1542    1.0000 0.07420  0.18120  0.63600  Biso   1.000  H
  H1543    1.0000 0.48547  0.22633  0.96933  Biso   1.000  H
  H1544    1.0000 0.77367  0.25913  0.96933  Biso   1.000  H
  H1545    1.0000 0.74087  0.51453  0.96933  Biso   1.000  H
  H1546    1.0000 0.15213  0.55967  0.30267  Biso   1.000  H
  H1547    1.0000 0.44033  0.59247  0.30267  Biso   1.000  H
  H1548    1.0000 0.40753  0.84787  0.30267  Biso   1.000  H
  C973     1.0000 0.12030  0.09020  0.32850  Biso   1.000  C
  C974     1.0000 0.90980  0.03010  0.32850  Biso   1.000  C
  C975     1.0000 0.96990  0.87970  0.32850  Biso   1.000  C
  C976     1.0000 0.78697  0.42353  0.66183  Biso   1.000  C
  C977     1.0000 0.57647  0.36343  0.66183  Biso   1.000  C
  C978     1.0000 0.63657  0.21303  0.66183  Biso   1.000  C
  C979     1.0000 0.45363  0.75687  0.99517  Biso   1.000  C
  C980     1.0000 0.24313  0.69677  0.99517  Biso   1.000  C
  C981     1.0000 0.30323  0.54637  0.99517  Biso   1.000  C
  C982     1.0000 0.87970  0.90980  0.67150  Biso   1.000  C
  C983     1.0000 0.09020  0.96990  0.67150  Biso   1.000  C
  C984     1.0000 0.03010  0.12030  0.67150  Biso   1.000  C
  C985     1.0000 0.54637  0.24313  0.00483  Biso   1.000  C
  C986     1.0000 0.75687  0.30323  0.00483  Biso   1.000  C
  C987     1.0000 0.69677  0.45363  0.00483  Biso   1.000  C
  C988     1.0000 0.21303  0.57647  0.33817  Biso   1.000  C
  C989     1.0000 0.42353  0.63657  0.33817  Biso   1.000  C
  C990     1.0000 0.36343  0.78697  0.33817  Biso   1.000  C
  H1549    1.0000 0.10560  0.10570  0.32740  Biso   1.000  H
  H1550    1.0000 0.89430  0.99990  0.32740  Biso   1.000  H
  H1551    1.0000 0.00010  0.89440  0.32740  Biso   1.000  H
  H1552    1.0000 0.77227  0.43903  0.66073  Biso   1.000  H
  H1553    1.0000 0.56097  0.33323  0.66073  Biso   1.000  H
  H1554    1.0000 0.66677  0.22773  0.66073  Biso   1.000  H
  H1555    1.0000 0.43893  0.77237  0.99407  Biso   1.000  H
  H1556    1.0000 0.22763  0.66657  0.99407  Biso   1.000  H
  H1557    1.0000 0.33343  0.56107  0.99407  Biso   1.000  H
  H1558    1.0000 0.89440  0.89430  0.67260  Biso   1.000  H
  H1559    1.0000 0.10570  0.00010  0.67260  Biso   1.000  H
  H1560    1.0000 0.99990  0.10560  0.67260  Biso   1.000  H
  H1561    1.0000 0.56107  0.22763  0.00593  Biso   1.000  H
  H1562    1.0000 0.77237  0.33343  0.00593  Biso   1.000  H
  H1563    1.0000 0.66657  0.43893  0.00593  Biso   1.000  H
  H1564    1.0000 0.22773  0.56097  0.33927  Biso   1.000  H
  H1565    1.0000 0.43903  0.66677  0.33927  Biso   1.000  H
  H1566    1.0000 0.33323  0.77227  0.33927  Biso   1.000  H
  H1567    1.0000 0.11670  0.07650  0.28930  Biso   1.000  H
  H1568    1.0000 0.92350  0.04020  0.28930  Biso   1.000  H
  H1569    1.0000 0.95980  0.88330  0.28930  Biso   1.000  H
  H1570    1.0000 0.78337  0.40983  0.62263  Biso   1.000  H
  H1571    1.0000 0.59017  0.37353  0.62263  Biso   1.000  H
  H1572    1.0000 0.62647  0.21663  0.62263  Biso   1.000  H
  H1573    1.0000 0.45003  0.74317  0.95597  Biso   1.000  H
  H1574    1.0000 0.25683  0.70687  0.95597  Biso   1.000  H
  H1575    1.0000 0.29313  0.54997  0.95597  Biso   1.000  H
  H1576    1.0000 0.88330  0.92350  0.71070  Biso   1.000  H
  H1577    1.0000 0.07650  0.95980  0.71070  Biso   1.000  H
  H1578    1.0000 0.04020  0.11670  0.71070  Biso   1.000  H
  H1579    1.0000 0.54997  0.25683  0.04403  Biso   1.000  H
  H1580    1.0000 0.74317  0.29313  0.04403  Biso   1.000  H
  H1581    1.0000 0.70687  0.45003  0.04403  Biso   1.000  H
  H1582    1.0000 0.21663  0.59017  0.37737  Biso   1.000  H
  H1583    1.0000 0.40983  0.62647  0.37737  Biso   1.000  H
  H1584    1.0000 0.37353  0.78337  0.37737  Biso   1.000  H
  N487     1.0000 0.10360  0.05900  0.37770  Biso   1.000  N
  N488     1.0000 0.94100  0.04460  0.37770  Biso   1.000  N
  N489     1.0000 0.95540  0.89640  0.37770  Biso   1.000  N
  N490     1.0000 0.77027  0.39233  0.71103  Biso   1.000  N
  N491     1.0000 0.60767  0.37793  0.71103  Biso   1.000  N
  N492     1.0000 0.62207  0.22973  0.71103  Biso   1.000  N
  N493     1.0000 0.43693  0.72567  0.04437  Biso   1.000  N
  N494     1.0000 0.27433  0.71127  0.04437  Biso   1.000  N
  N495     1.0000 0.28873  0.56307  0.04437  Biso   1.000  N
  N496     1.0000 0.89640  0.94100  0.62230  Biso   1.000  N
  N497     1.0000 0.05900  0.95540  0.62230  Biso   1.000  N
  N498     1.0000 0.04460  0.10360  0.62230  Biso   1.000  N
  N499     1.0000 0.56307  0.27433  0.95563  Biso   1.000  N
  N500     1.0000 0.72567  0.28873  0.95563  Biso   1.000  N
  N501     1.0000 0.71127  0.43693  0.95563  Biso   1.000  N
  N502     1.0000 0.22973  0.60767  0.28897  Biso   1.000  N
  N503     1.0000 0.39233  0.62207  0.28897  Biso   1.000  N
  N504     1.0000 0.37793  0.77027  0.28897  Biso   1.000  N
  H1585    1.0000 0.14530  0.04560  0.40490  Biso   1.000  H
  H1586    1.0000 0.95440  0.09970  0.40490  Biso   1.000  H
  H1587    1.0000 0.90030  0.85470  0.40490  Biso   1.000  H
  H1588    1.0000 0.81197  0.37893  0.73823  Biso   1.000  H
  H1589    1.0000 0.62107  0.43303  0.73823  Biso   1.000  H
  H1590    1.0000 0.56697  0.18803  0.73823  Biso   1.000  H
  H1591    1.0000 0.47863  0.71227  0.07157  Biso   1.000  H
  H1592    1.0000 0.28773  0.76637  0.07157  Biso   1.000  H
  H1593    1.0000 0.23363  0.52137  0.07157  Biso   1.000  H
  H1594    1.0000 0.85470  0.95440  0.59510  Biso   1.000  H
  H1595    1.0000 0.04560  0.90030  0.59510  Biso   1.000  H
  H1596    1.0000 0.09970  0.14530  0.59510  Biso   1.000  H
  H1597    1.0000 0.52137  0.28773  0.92843  Biso   1.000  H
  H1598    1.0000 0.71227  0.23363  0.92843  Biso   1.000  H
  H1599    1.0000 0.76637  0.47863  0.92843  Biso   1.000  H
  H1600    1.0000 0.18803  0.62107  0.26177  Biso   1.000  H
  H1601    1.0000 0.37893  0.56697  0.26177  Biso   1.000  H
  H1602    1.0000 0.43303  0.81197  0.26177  Biso   1.000  H
  H1603    1.0000 0.13080  0.03270  0.33660  Biso   1.000  H
  H1604    1.0000 0.96730  0.09810  0.33660  Biso   1.000  H
  H1605    1.0000 0.90190  0.86920  0.33660  Biso   1.000  H
  H1606    1.0000 0.79747  0.36603  0.66993  Biso   1.000  H
  H1607    1.0000 0.63397  0.43143  0.66993  Biso   1.000  H
  H1608    1.0000 0.56857  0.20253  0.66993  Biso   1.000  H
  H1609    1.0000 0.46413  0.69937  0.00327  Biso   1.000  H
  H1610    1.0000 0.30063  0.76477  0.00327  Biso   1.000  H
  H1611    1.0000 0.23523  0.53587  0.00327  Biso   1.000  H
  H1612    1.0000 0.86920  0.96730  0.66340  Biso   1.000  H
  H1613    1.0000 0.03270  0.90190  0.66340  Biso   1.000  H
  H1614    1.0000 0.09810  0.13080  0.66340  Biso   1.000  H
  H1615    1.0000 0.53587  0.30063  0.99673  Biso   1.000  H
  H1616    1.0000 0.69937  0.23523  0.99673  Biso   1.000  H
  H1617    1.0000 0.76477  0.46413  0.99673  Biso   1.000  H
  H1618    1.0000 0.20253  0.63397  0.33007  Biso   1.000  H
  H1619    1.0000 0.36603  0.56857  0.33007  Biso   1.000  H
  H1620    1.0000 0.43143  0.79747  0.33007  Biso   1.000  H
  C991     1.0000 0.08340  0.98820  0.40120  Biso   1.000  C
  C992     1.0000 0.01180  0.09520  0.40120  Biso   1.000  C
  C993     1.0000 0.90480  0.91660  0.40120  Biso   1.000  C
  C994     1.0000 0.75007  0.32153  0.73453  Biso   1.000  C
  C995     1.0000 0.67847  0.42853  0.73453  Biso   1.000  C
  C996     1.0000 0.57147  0.24993  0.73453  Biso   1.000  C
  C997     1.0000 0.41673  0.65487  0.06787  Biso   1.000  C
  C998     1.0000 0.34513  0.76187  0.06787  Biso   1.000  C
  C999     1.0000 0.23813  0.58327  0.06787  Biso   1.000  C
  C1000    1.0000 0.91660  0.01180  0.59880  Biso   1.000  C
  C1001    1.0000 0.98820  0.90480  0.59880  Biso   1.000  C
  C1002    1.0000 0.09520  0.08340  0.59880  Biso   1.000  C
  C1003    1.0000 0.58327  0.34513  0.93213  Biso   1.000  C
  C1004    1.0000 0.65487  0.23813  0.93213  Biso   1.000  C
  C1005    1.0000 0.76187  0.41673  0.93213  Biso   1.000  C
  C1006    1.0000 0.24993  0.67847  0.26547  Biso   1.000  C
  C1007    1.0000 0.32153  0.57147  0.26547  Biso   1.000  C
  C1008    1.0000 0.42853  0.75007  0.26547  Biso   1.000  C
  H1621    1.0000 0.06020  0.97740  0.37290  Biso   1.000  H
  H1622    1.0000 0.02260  0.08280  0.37290  Biso   1.000  H
  H1623    1.0000 0.91720  0.93980  0.37290  Biso   1.000  H
  H1624    1.0000 0.72687  0.31073  0.70623  Biso   1.000  H
  H1625    1.0000 0.68927  0.41613  0.70623  Biso   1.000  H
  H1626    1.0000 0.58387  0.27313  0.70623  Biso   1.000  H
  H1627    1.0000 0.39353  0.64407  0.03957  Biso   1.000  H
  H1628    1.0000 0.35593  0.74947  0.03957  Biso   1.000  H
  H1629    1.0000 0.25053  0.60647  0.03957  Biso   1.000  H
  H1630    1.0000 0.93980  0.02260  0.62710  Biso   1.000  H
  H1631    1.0000 0.97740  0.91720  0.62710  Biso   1.000  H
  H1632    1.0000 0.08280  0.06020  0.62710  Biso   1.000  H
  H1633    1.0000 0.60647  0.35593  0.96043  Biso   1.000  H
  H1634    1.0000 0.64407  0.25053  0.96043  Biso   1.000  H
  H1635    1.0000 0.74947  0.39353  0.96043  Biso   1.000  H
  H1636    1.0000 0.27313  0.68927  0.29377  Biso   1.000  H
  H1637    1.0000 0.31073  0.58387  0.29377  Biso   1.000  H
  H1638    1.0000 0.41613  0.72687  0.29377  Biso   1.000  H
  H1639    1.0000 0.09350  0.96850  0.40330  Biso   1.000  H
  H1640    1.0000 0.03150  0.12500  0.40330  Biso   1.000  H
  H1641    1.0000 0.87500  0.90650  0.40330  Biso   1.000  H
  H1642    1.0000 0.76017  0.30183  0.73663  Biso   1.000  H
  H1643    1.0000 0.69817  0.45833  0.73663  Biso   1.000  H
  H1644    1.0000 0.54167  0.23983  0.73663  Biso   1.000  H
  H1645    1.0000 0.42683  0.63517  0.06997  Biso   1.000  H
  H1646    1.0000 0.36483  0.79167  0.06997  Biso   1.000  H
  H1647    1.0000 0.20833  0.57317  0.06997  Biso   1.000  H
  H1648    1.0000 0.90650  0.03150  0.59670  Biso   1.000  H
  H1649    1.0000 0.96850  0.87500  0.59670  Biso   1.000  H
  H1650    1.0000 0.12500  0.09350  0.59670  Biso   1.000  H
  H1651    1.0000 0.57317  0.36483  0.93003  Biso   1.000  H
  H1652    1.0000 0.63517  0.20833  0.93003  Biso   1.000  H
  H1653    1.0000 0.79167  0.42683  0.93003  Biso   1.000  H
  H1654    1.0000 0.23983  0.69817  0.26337  Biso   1.000  H
  H1655    1.0000 0.30183  0.54167  0.26337  Biso   1.000  H
  H1656    1.0000 0.45833  0.76017  0.26337  Biso   1.000  H
  O127     1.0000 0.07010  0.99340  0.46060  Biso   1.000  O
  O128     1.0000 0.00660  0.07670  0.46060  Biso   1.000  O
  O129     1.0000 0.92330  0.92990  0.46060  Biso   1.000  O
  O130     1.0000 0.73677  0.32673  0.79393  Biso   1.000  O
  O131     1.0000 0.67327  0.41003  0.79393  Biso   1.000  O
  O132     1.0000 0.58997  0.26323  0.79393  Biso   1.000  O
  O133     1.0000 0.40343  0.66007  0.12727  Biso   1.000  O
  O134     1.0000 0.33993  0.74337  0.12727  Biso   1.000  O
  O135     1.0000 0.25663  0.59657  0.12727  Biso   1.000  O
  O136     1.0000 0.92990  0.00660  0.53940  Biso   1.000  O
  O137     1.0000 0.99340  0.92330  0.53940  Biso   1.000  O
  O138     1.0000 0.07670  0.07010  0.53940  Biso   1.000  O
  O139     1.0000 0.59657  0.33993  0.87273  Biso   1.000  O
  O140     1.0000 0.66007  0.25663  0.87273  Biso   1.000  O
  O141     1.0000 0.74337  0.40343  0.87273  Biso   1.000  O
  O142     1.0000 0.26323  0.67327  0.20607  Biso   1.000  O
  O143     1.0000 0.32673  0.58997  0.20607  Biso   1.000  O
  O144     1.0000 0.41003  0.73677  0.20607  Biso   1.000  O
  C1009    1.0000 0.06530  0.02660  0.47500  Biso   1.000  C
  C1010    1.0000 0.97340  0.03870  0.47500  Biso   1.000  C
  C1011    1.0000 0.96130  0.93470  0.47500  Biso   1.000  C
  C1012    1.0000 0.73197  0.35993  0.80833  Biso   1.000  C
  C1013    1.0000 0.64007  0.37203  0.80833  Biso   1.000  C
  C1014    1.0000 0.62797  0.26803  0.80833  Biso   1.000  C
  C1015    1.0000 0.39863  0.69327  0.14167  Biso   1.000  C
  C1016    1.0000 0.30673  0.70537  0.14167  Biso   1.000  C
  C1017    1.0000 0.29463  0.60137  0.14167  Biso   1.000  C
  C1018    1.0000 0.93470  0.97340  0.52500  Biso   1.000  C
  C1019    1.0000 0.02660  0.96130  0.52500  Biso   1.000  C
  C1020    1.0000 0.03870  0.06530  0.52500  Biso   1.000  C
  C1021    1.0000 0.60137  0.30673  0.85833  Biso   1.000  C
  C1022    1.0000 0.69327  0.29463  0.85833  Biso   1.000  C
  C1023    1.0000 0.70537  0.39863  0.85833  Biso   1.000  C
  C1024    1.0000 0.26803  0.64007  0.19167  Biso   1.000  C
  C1025    1.0000 0.35993  0.62797  0.19167  Biso   1.000  C
  C1026    1.0000 0.37203  0.73197  0.19167  Biso   1.000  C
  H1657    1.0000 0.07150  0.03280  0.51810  Biso   1.000  H
  H1658    1.0000 0.96720  0.03870  0.51810  Biso   1.000  H
  H1659    1.0000 0.96130  0.92850  0.51810  Biso   1.000  H
  H1660    1.0000 0.73817  0.36613  0.85143  Biso   1.000  H
  H1661    1.0000 0.63387  0.37203  0.85143  Biso   1.000  H
  H1662    1.0000 0.62797  0.26183  0.85143  Biso   1.000  H
  H1663    1.0000 0.40483  0.69947  0.18477  Biso   1.000  H
  H1664    1.0000 0.30053  0.70537  0.18477  Biso   1.000  H
  H1665    1.0000 0.29463  0.59517  0.18477  Biso   1.000  H
  H1666    1.0000 0.92850  0.96720  0.48190  Biso   1.000  H
  H1667    1.0000 0.03280  0.96130  0.48190  Biso   1.000  H
  H1668    1.0000 0.03870  0.07150  0.48190  Biso   1.000  H
  H1669    1.0000 0.59517  0.30053  0.81523  Biso   1.000  H
  H1670    1.0000 0.69947  0.29463  0.81523  Biso   1.000  H
  H1671    1.0000 0.70537  0.40483  0.81523  Biso   1.000  H
  H1672    1.0000 0.26183  0.63387  0.14857  Biso   1.000  H
  H1673    1.0000 0.36613  0.62797  0.14857  Biso   1.000  H
  H1674    1.0000 0.37203  0.73817  0.14857  Biso   1.000  H
  H1675    1.0000 0.03620  0.01840  0.46920  Biso   1.000  H
  H1676    1.0000 0.98160  0.01780  0.46920  Biso   1.000  H
  H1677    1.0000 0.98220  0.96380  0.46920  Biso   1.000  H
  H1678    1.0000 0.70287  0.35173  0.80253  Biso   1.000  H
  H1679    1.0000 0.64827  0.35113  0.80253  Biso   1.000  H
  H1680    1.0000 0.64887  0.29713  0.80253  Biso   1.000  H
  H1681    1.0000 0.36953  0.68507  0.13587  Biso   1.000  H
  H1682    1.0000 0.31493  0.68447  0.13587  Biso   1.000  H
  H1683    1.0000 0.31553  0.63047  0.13587  Biso   1.000  H
  H1684    1.0000 0.96380  0.98160  0.53080  Biso   1.000  H
  H1685    1.0000 0.01840  0.98220  0.53080  Biso   1.000  H
  H1686    1.0000 0.01780  0.03620  0.53080  Biso   1.000  H
  H1687    1.0000 0.63047  0.31493  0.86413  Biso   1.000  H
  H1688    1.0000 0.68507  0.31553  0.86413  Biso   1.000  H
  H1689    1.0000 0.68447  0.36953  0.86413  Biso   1.000  H
  H1690    1.0000 0.29713  0.64827  0.19747  Biso   1.000  H
  H1691    1.0000 0.35173  0.64887  0.19747  Biso   1.000  H
  H1692    1.0000 0.35113  0.70287  0.19747  Biso   1.000  H
  C1027    1.0000 0.09320  0.06860  0.43700  Biso   1.000  C
  C1028    1.0000 0.93140  0.02460  0.43700  Biso   1.000  C
  C1029    1.0000 0.97540  0.90680  0.43700  Biso   1.000  C
  C1030    1.0000 0.75987  0.40193  0.77033  Biso   1.000  C
  C1031    1.0000 0.59807  0.35793  0.77033  Biso   1.000  C
  C1032    1.0000 0.64207  0.24013  0.77033  Biso   1.000  C
  C1033    1.0000 0.42653  0.73527  0.10367  Biso   1.000  C
  C1034    1.0000 0.26473  0.69127  0.10367  Biso   1.000  C
  C1035    1.0000 0.30873  0.57347  0.10367  Biso   1.000  C
  C1036    1.0000 0.90680  0.93140  0.56300  Biso   1.000  C
  C1037    1.0000 0.06860  0.97540  0.56300  Biso   1.000  C
  C1038    1.0000 0.02460  0.09320  0.56300  Biso   1.000  C
  C1039    1.0000 0.57347  0.26473  0.89633  Biso   1.000  C
  C1040    1.0000 0.73527  0.30873  0.89633  Biso   1.000  C
  C1041    1.0000 0.69127  0.42653  0.89633  Biso   1.000  C
  C1042    1.0000 0.24013  0.59807  0.22967  Biso   1.000  C
  C1043    1.0000 0.40193  0.64207  0.22967  Biso   1.000  C
  C1044    1.0000 0.35793  0.75987  0.22967  Biso   1.000  C
  H1693    1.0000 0.07810  0.08340  0.43180  Biso   1.000  H
  H1694    1.0000 0.91660  0.99470  0.43180  Biso   1.000  H
  H1695    1.0000 0.00530  0.92190  0.43180  Biso   1.000  H
  H1696    1.0000 0.74477  0.41673  0.76513  Biso   1.000  H
  H1697    1.0000 0.58327  0.32803  0.76513  Biso   1.000  H
  H1698    1.0000 0.67197  0.25523  0.76513  Biso   1.000  H
  H1699    1.0000 0.41143  0.75007  0.09847  Biso   1.000  H
  H1700    1.0000 0.24993  0.66137  0.09847  Biso   1.000  H
  H1701    1.0000 0.33863  0.58857  0.09847  Biso   1.000  H
  H1702    1.0000 0.92190  0.91660  0.56820  Biso   1.000  H
  H1703    1.0000 0.08340  0.00530  0.56820  Biso   1.000  H
  H1704    1.0000 0.99470  0.07810  0.56820  Biso   1.000  H
  H1705    1.0000 0.58857  0.24993  0.90153  Biso   1.000  H
  H1706    1.0000 0.75007  0.33863  0.90153  Biso   1.000  H
  H1707    1.0000 0.66137  0.41143  0.90153  Biso   1.000  H
  H1708    1.0000 0.25523  0.58327  0.23487  Biso   1.000  H
  H1709    1.0000 0.41673  0.67197  0.23487  Biso   1.000  H
  H1710    1.0000 0.32803  0.74477  0.23487  Biso   1.000  H
  H1711    1.0000 0.11860  0.08640  0.45950  Biso   1.000  H
  H1712    1.0000 0.91360  0.03220  0.45950  Biso   1.000  H
  H1713    1.0000 0.96780  0.88140  0.45950  Biso   1.000  H
  H1714    1.0000 0.78527  0.41973  0.79283  Biso   1.000  H
  H1715    1.0000 0.58027  0.36553  0.79283  Biso   1.000  H
  H1716    1.0000 0.63447  0.21473  0.79283  Biso   1.000  H
  H1717    1.0000 0.45193  0.75307  0.12617  Biso   1.000  H
  H1718    1.0000 0.24693  0.69887  0.12617  Biso   1.000  H
  H1719    1.0000 0.30113  0.54807  0.12617  Biso   1.000  H
  H1720    1.0000 0.88140  0.91360  0.54050  Biso   1.000  H
  H1721    1.0000 0.08640  0.96780  0.54050  Biso   1.000  H
  H1722    1.0000 0.03220  0.11860  0.54050  Biso   1.000  H
  H1723    1.0000 0.54807  0.24693  0.87383  Biso   1.000  H
  H1724    1.0000 0.75307  0.30113  0.87383  Biso   1.000  H
  H1725    1.0000 0.69887  0.45193  0.87383  Biso   1.000  H
  H1726    1.0000 0.21473  0.58027  0.20717  Biso   1.000  H
  H1727    1.0000 0.41973  0.63447  0.20717  Biso   1.000  H
  H1728    1.0000 0.36553  0.78527  0.20717  Biso   1.000  H
