data_image0
_cell_length_a       20.68
_cell_length_b       8.1439
_cell_length_c       45.837
_cell_angle_alpha    90
_cell_angle_beta     94.957
_cell_angle_gamma    90

_symmetry_space_group_name_H-M    "P 1"
_symmetry_int_tables_number       1

loop_
  _symmetry_equiv_pos_as_xyz
  'x, y, z'

loop_
  _atom_site_label
  _atom_site_occupancy
  _atom_site_fract_x
  _atom_site_fract_y
  _atom_site_fract_z
  _atom_site_thermal_displace_type
  _atom_site_B_iso_or_equiv
  _atom_site_type_symbol
  Cu1      1.0000 0.26252  0.94172  0.12363  Biso   1.000  Cu
  Cu2      1.0000 0.73748  0.44172  0.37637  Biso   1.000  Cu
  Cu3      1.0000 0.73748  0.05828  0.87637  Biso   1.000  Cu
  Cu4      1.0000 0.26252  0.55828  0.62363  Biso   1.000  Cu
  Cu5      1.0000 0.75350  0.50507  0.13501  Biso   1.000  Cu
  Cu6      1.0000 0.24650  0.00507  0.36499  Biso   1.000  Cu
  Cu7      1.0000 0.24650  0.49493  0.86499  Biso   1.000  Cu
  Cu8      1.0000 0.75350  0.99493  0.63501  Biso   1.000  Cu
  Cl1      1.0000 0.14199  0.40510  0.18685  Biso   1.000  Cl
  Cl2      1.0000 0.85801  0.90510  0.31315  Biso   1.000  Cl
  Cl3      1.0000 0.85801  0.59490  0.81315  Biso   1.000  Cl
  Cl4      1.0000 0.14199  0.09490  0.68685  Biso   1.000  Cl
  Cl5      1.0000 0.36852  0.43230  0.29617  Biso   1.000  Cl
  Cl6      1.0000 0.63148  0.93230  0.20383  Biso   1.000  Cl
  Cl7      1.0000 0.63148  0.56770  0.70383  Biso   1.000  Cl
  Cl8      1.0000 0.36852  0.06770  0.79617  Biso   1.000  Cl
  Cl9      1.0000 0.49520  0.23400  0.41530  Biso   1.000  Cl
  Cl10     1.0000 0.50480  0.73400  0.08470  Biso   1.000  Cl
  Cl11     1.0000 0.50480  0.76600  0.58470  Biso   1.000  Cl
  Cl12     1.0000 0.49520  0.26600  0.91530  Biso   1.000  Cl
  Cl13     1.0000 0.05330  0.71000  0.42405  Biso   1.000  Cl
  Cl14     1.0000 0.94670  0.21000  0.07595  Biso   1.000  Cl
  Cl15     1.0000 0.94670  0.29000  0.57595  Biso   1.000  Cl
  Cl16     1.0000 0.05330  0.79000  0.92405  Biso   1.000  Cl
  N1       1.0000 0.26430  0.94630  0.16771  Biso   1.000  N
  N2       1.0000 0.73570  0.44630  0.33229  Biso   1.000  N
  N3       1.0000 0.73570  0.05370  0.83229  Biso   1.000  N
  N4       1.0000 0.26430  0.55370  0.66771  Biso   1.000  N
  N5       1.0000 0.24270  0.99030  0.32076  Biso   1.000  N
  N6       1.0000 0.75730  0.49030  0.17924  Biso   1.000  N
  N7       1.0000 0.75730  0.00970  0.67924  Biso   1.000  N
  N8       1.0000 0.24270  0.50970  0.82076  Biso   1.000  N
  N9       1.0000 0.35180  0.04970  0.12730  Biso   1.000  N
  N10      1.0000 0.64820  0.54970  0.37270  Biso   1.000  N
  N11      1.0000 0.64820  0.95030  0.87270  Biso   1.000  N
  N12      1.0000 0.35180  0.45030  0.62730  Biso   1.000  N
  N13      1.0000 0.66220  0.40660  0.13374  Biso   1.000  N
  N14      1.0000 0.33780  0.90660  0.36626  Biso   1.000  N
  N15      1.0000 0.33780  0.59340  0.86626  Biso   1.000  N
  N16      1.0000 0.66220  0.09340  0.63374  Biso   1.000  N
  N17      1.0000 0.16820  0.86330  0.12247  Biso   1.000  N
  N18      1.0000 0.83180  0.36330  0.37753  Biso   1.000  N
  N19      1.0000 0.83180  0.13670  0.87753  Biso   1.000  N
  N20      1.0000 0.16820  0.63670  0.62247  Biso   1.000  N
  N21      1.0000 0.84550  0.60050  0.13681  Biso   1.000  N
  N22      1.0000 0.15450  0.10050  0.36319  Biso   1.000  N
  N23      1.0000 0.15450  0.39950  0.86319  Biso   1.000  N
  N24      1.0000 0.84550  0.89950  0.63681  Biso   1.000  N
  N25      1.0000 0.26300  0.94710  0.07961  Biso   1.000  N
  N26      1.0000 0.73700  0.44710  0.42039  Biso   1.000  N
  N27      1.0000 0.73700  0.05290  0.92039  Biso   1.000  N
  N28      1.0000 0.26300  0.55290  0.57961  Biso   1.000  N
  N29      1.0000 0.29070  0.03210  0.92670  Biso   1.000  N
  N30      1.0000 0.70930  0.53210  0.57330  Biso   1.000  N
  N31      1.0000 0.70930  0.96790  0.07330  Biso   1.000  N
  N32      1.0000 0.29070  0.46790  0.42670  Biso   1.000  N
  N33      1.0000 0.74440  0.51490  0.09048  Biso   1.000  N
  N34      1.0000 0.25560  0.01490  0.40952  Biso   1.000  N
  N35      1.0000 0.25560  0.48510  0.90952  Biso   1.000  N
  N36      1.0000 0.74440  0.98510  0.59048  Biso   1.000  N
  N37      1.0000 0.69740  0.49450  0.93523  Biso   1.000  N
  N38      1.0000 0.30260  0.99450  0.56477  Biso   1.000  N
  N39      1.0000 0.30260  0.50550  0.06477  Biso   1.000  N
  N40      1.0000 0.69740  0.00550  0.43523  Biso   1.000  N
  N41      1.0000 0.01110  0.23280  0.47700  Biso   1.000  N
  N42      1.0000 0.98890  0.73280  0.02300  Biso   1.000  N
  N43      1.0000 0.98890  0.76720  0.52300  Biso   1.000  N
  N44      1.0000 0.01110  0.26720  0.97700  Biso   1.000  N
  N45      1.0000 0.44800  0.48500  0.20740  Biso   1.000  N
  N46      1.0000 0.55200  0.98500  0.29260  Biso   1.000  N
  N47      1.0000 0.55200  0.51500  0.79260  Biso   1.000  N
  N48      1.0000 0.44800  0.01500  0.70740  Biso   1.000  N
  N49      1.0000 0.87140  0.10000  0.17790  Biso   1.000  N
  N50      1.0000 0.12860  0.60000  0.32210  Biso   1.000  N
  N51      1.0000 0.12860  0.90000  0.82210  Biso   1.000  N
  N52      1.0000 0.87140  0.40000  0.67790  Biso   1.000  N
  N53      1.0000 0.09880  0.72100  0.28020  Biso   1.000  N
  N54      1.0000 0.90120  0.22100  0.21980  Biso   1.000  N
  N55      1.0000 0.90120  0.27900  0.71980  Biso   1.000  N
  N56      1.0000 0.09880  0.77900  0.78020  Biso   1.000  N
  O1       1.0000 0.10710  0.55360  0.18840  Biso   1.000  O
  O2       1.0000 0.89290  0.05360  0.31160  Biso   1.000  O
  O3       1.0000 0.89290  0.44640  0.81160  Biso   1.000  O
  O4       1.0000 0.10710  0.94640  0.68840  Biso   1.000  O
  O5       1.0000 0.10030  0.29990  0.17030  Biso   1.000  O
  O6       1.0000 0.89970  0.79990  0.32970  Biso   1.000  O
  O7       1.0000 0.89970  0.70010  0.82970  Biso   1.000  O
  O8       1.0000 0.10030  0.20010  0.67030  Biso   1.000  O
  O9       1.0000 0.19830  0.42790  0.17100  Biso   1.000  O
  O10      1.0000 0.80170  0.92790  0.32900  Biso   1.000  O
  O11      1.0000 0.80170  0.57210  0.82900  Biso   1.000  O
  O12      1.0000 0.19830  0.07210  0.67100  Biso   1.000  O
  O13      1.0000 0.15930  0.35400  0.21560  Biso   1.000  O
  O14      1.0000 0.84070  0.85400  0.28440  Biso   1.000  O
  O15      1.0000 0.84070  0.64600  0.78440  Biso   1.000  O
  O16      1.0000 0.15930  0.14600  0.71560  Biso   1.000  O
  O17      1.0000 0.31860  0.46430  0.31400  Biso   1.000  O
  O18      1.0000 0.68140  0.96430  0.18600  Biso   1.000  O
  O19      1.0000 0.68140  0.53570  0.68600  Biso   1.000  O
  O20      1.0000 0.31860  0.03570  0.81400  Biso   1.000  O
  O21      1.0000 0.34150  0.43000  0.26710  Biso   1.000  O
  O22      1.0000 0.65850  0.93000  0.23290  Biso   1.000  O
  O23      1.0000 0.65850  0.57000  0.73290  Biso   1.000  O
  O24      1.0000 0.34150  0.07000  0.76710  Biso   1.000  O
  O25      1.0000 0.41050  0.56820  0.29640  Biso   1.000  O
  O26      1.0000 0.58950  0.06820  0.20360  Biso   1.000  O
  O27      1.0000 0.58950  0.43180  0.70360  Biso   1.000  O
  O28      1.0000 0.41050  0.93180  0.79640  Biso   1.000  O
  O29      1.0000 0.39590  0.29800  0.30640  Biso   1.000  O
  O30      1.0000 0.60410  0.79800  0.19360  Biso   1.000  O
  O31      1.0000 0.60410  0.70200  0.69360  Biso   1.000  O
  O32      1.0000 0.39590  0.20200  0.80640  Biso   1.000  O
  O33      1.0000 0.44130  0.28650  0.39780  Biso   1.000  O
  O34      1.0000 0.55870  0.78650  0.10220  Biso   1.000  O
  O35      1.0000 0.55870  0.71350  0.60220  Biso   1.000  O
  O36      1.0000 0.44130  0.21350  0.89780  Biso   1.000  O
  O37      1.0000 0.47500  0.08700  0.42860  Biso   1.000  O
  O38      1.0000 0.52500  0.58700  0.07140  Biso   1.000  O
  O39      1.0000 0.52500  0.91300  0.57140  Biso   1.000  O
  O40      1.0000 0.47500  0.41300  0.92860  Biso   1.000  O
  O41      1.0000 0.51790  0.38200  0.43000  Biso   1.000  O
  O42      1.0000 0.48210  0.88200  0.07000  Biso   1.000  O
  O43      1.0000 0.48210  0.61800  0.57000  Biso   1.000  O
  O44      1.0000 0.51790  0.11800  0.93000  Biso   1.000  O
  O45      1.0000 0.54610  0.17870  0.39850  Biso   1.000  O
  O46      1.0000 0.45390  0.67870  0.10150  Biso   1.000  O
  O47      1.0000 0.45390  0.82130  0.60150  Biso   1.000  O
  O48      1.0000 0.54610  0.32130  0.89850  Biso   1.000  O
  O49      1.0000 0.03240  0.87100  0.42290  Biso   1.000  O
  O50      1.0000 0.96760  0.37100  0.07710  Biso   1.000  O
  O51      1.0000 0.96760  0.12900  0.57710  Biso   1.000  O
  O52      1.0000 0.03240  0.62900  0.92290  Biso   1.000  O
  O53      1.0000 0.99980  0.61600  0.42320  Biso   1.000  O
  O54      1.0000 0.00020  0.11600  0.07680  Biso   1.000  O
  O55      1.0000 0.00020  0.38400  0.57680  Biso   1.000  O
  O56      1.0000 0.99980  0.88400  0.92320  Biso   1.000  O
  O57      1.0000 0.08220  0.73300  0.45250  Biso   1.000  O
  O58      1.0000 0.91780  0.23300  0.04750  Biso   1.000  O
  O59      1.0000 0.91780  0.26700  0.54750  Biso   1.000  O
  O60      1.0000 0.08220  0.76700  0.95250  Biso   1.000  O
  O61      1.0000 0.09800  0.66540  0.40490  Biso   1.000  O
  O62      1.0000 0.90200  0.16540  0.09510  Biso   1.000  O
  O63      1.0000 0.90200  0.33460  0.59510  Biso   1.000  O
  O64      1.0000 0.09800  0.83460  0.90490  Biso   1.000  O
  O65      1.0000 0.30140  0.66920  0.12267  Biso   1.000  O
  O66      1.0000 0.69860  0.16920  0.37733  Biso   1.000  O
  O67      1.0000 0.69860  0.33080  0.87733  Biso   1.000  O
  O68      1.0000 0.30140  0.83080  0.62267  Biso   1.000  O
  H1       1.0000 0.32470  0.62360  0.13660  Biso   1.000  H
  H2       1.0000 0.67530  0.12360  0.36340  Biso   1.000  H
  H3       1.0000 0.67530  0.37640  0.86340  Biso   1.000  H
  H4       1.0000 0.32470  0.87640  0.63660  Biso   1.000  H
  H5       1.0000 0.30470  0.61420  0.10710  Biso   1.000  H
  H6       1.0000 0.69530  0.11420  0.39290  Biso   1.000  H
  H7       1.0000 0.69530  0.38580  0.89290  Biso   1.000  H
  H8       1.0000 0.30470  0.88580  0.60710  Biso   1.000  H
  O69      1.0000 0.71120  0.79430  0.13312  Biso   1.000  O
  O70      1.0000 0.28880  0.29430  0.36688  Biso   1.000  O
  O71      1.0000 0.28880  0.20570  0.86688  Biso   1.000  O
  O72      1.0000 0.71120  0.70570  0.63312  Biso   1.000  O
  H9       1.0000 0.70190  0.85460  0.14730  Biso   1.000  H
  H10      1.0000 0.29810  0.35460  0.35270  Biso   1.000  H
  H11      1.0000 0.29810  0.14540  0.85270  Biso   1.000  H
  H12      1.0000 0.70190  0.64540  0.64730  Biso   1.000  H
  H13      1.0000 0.70950  0.85250  0.11770  Biso   1.000  H
  H14      1.0000 0.29050  0.35250  0.38230  Biso   1.000  H
  H15      1.0000 0.29050  0.14750  0.88230  Biso   1.000  H
  H16      1.0000 0.70950  0.64750  0.61770  Biso   1.000  H
  O73      1.0000 0.79760  0.21750  0.13195  Biso   1.000  O
  O74      1.0000 0.20240  0.71750  0.36805  Biso   1.000  O
  O75      1.0000 0.20240  0.78250  0.86805  Biso   1.000  O
  O76      1.0000 0.79760  0.28250  0.63195  Biso   1.000  O
  H17      1.0000 0.81840  0.20930  0.11680  Biso   1.000  H
  H18      1.0000 0.18160  0.70930  0.38320  Biso   1.000  H
  H19      1.0000 0.18160  0.79070  0.88320  Biso   1.000  H
  H20      1.0000 0.81840  0.29070  0.61680  Biso   1.000  H
  H21      1.0000 0.82300  0.19790  0.14710  Biso   1.000  H
  H22      1.0000 0.17700  0.69790  0.35290  Biso   1.000  H
  H23      1.0000 0.17700  0.80210  0.85290  Biso   1.000  H
  H24      1.0000 0.82300  0.30210  0.64710  Biso   1.000  H
  O77      1.0000 0.09600  0.20830  0.51140  Biso   1.000  O
  O78      1.0000 0.90400  0.70830  0.98860  Biso   1.000  O
  O79      1.0000 0.90400  0.79170  0.48860  Biso   1.000  O
  O80      1.0000 0.09600  0.29170  0.01140  Biso   1.000  O
  O81      1.0000 0.37290  0.54900  0.17260  Biso   1.000  O
  O82      1.0000 0.62710  0.04900  0.32740  Biso   1.000  O
  O83      1.0000 0.62710  0.45100  0.82740  Biso   1.000  O
  O84      1.0000 0.37290  0.95100  0.67260  Biso   1.000  O
  O85      1.0000 0.21490  0.25750  0.11691  Biso   1.000  O
  O86      1.0000 0.78510  0.75750  0.38309  Biso   1.000  O
  O87      1.0000 0.78510  0.74250  0.88309  Biso   1.000  O
  O88      1.0000 0.21490  0.24250  0.61691  Biso   1.000  O
  H25      1.0000 0.20840  0.30950  0.13250  Biso   1.000  H
  H26      1.0000 0.79160  0.80950  0.36750  Biso   1.000  H
  H27      1.0000 0.79160  0.69050  0.86750  Biso   1.000  H
  H28      1.0000 0.20840  0.19050  0.63250  Biso   1.000  H
  H29      1.0000 0.18420  0.27960  0.10400  Biso   1.000  H
  H30      1.0000 0.81580  0.77960  0.39600  Biso   1.000  H
  H31      1.0000 0.81580  0.72040  0.89600  Biso   1.000  H
  H32      1.0000 0.18420  0.22040  0.60400  Biso   1.000  H
  O89      1.0000 0.88320  0.82220  0.42750  Biso   1.000  O
  O90      1.0000 0.11680  0.32220  0.07250  Biso   1.000  O
  O91      1.0000 0.11680  0.17780  0.57250  Biso   1.000  O
  O92      1.0000 0.88320  0.67780  0.92750  Biso   1.000  O
  H33      1.0000 0.91530  0.76510  0.42300  Biso   1.000  H
  H34      1.0000 0.08470  0.26510  0.07700  Biso   1.000  H
  H35      1.0000 0.08470  0.23490  0.57700  Biso   1.000  H
  H36      1.0000 0.91530  0.73490  0.92300  Biso   1.000  H
  H37      1.0000 0.88350  0.82320  0.44600  Biso   1.000  H
  H38      1.0000 0.11650  0.32320  0.05400  Biso   1.000  H
  H39      1.0000 0.11650  0.17680  0.55400  Biso   1.000  H
  H40      1.0000 0.88350  0.67680  0.94600  Biso   1.000  H
  O93      1.0000 0.47750  0.89700  0.47940  Biso   1.000  O
  O94      1.0000 0.52250  0.39700  0.02060  Biso   1.000  O
  O95      1.0000 0.52250  0.10300  0.52060  Biso   1.000  O
  O96      1.0000 0.47750  0.60300  0.97940  Biso   1.000  O
  H41      1.0000 0.47440  0.93910  0.46240  Biso   1.000  H
  H42      1.0000 0.52560  0.43910  0.03760  Biso   1.000  H
  H43      1.0000 0.52560  0.06090  0.53760  Biso   1.000  H
  H44      1.0000 0.47440  0.56090  0.96240  Biso   1.000  H
  H45      1.0000 0.48480  0.79470  0.47790  Biso   1.000  H
  H46      1.0000 0.51520  0.29470  0.02210  Biso   1.000  H
  H47      1.0000 0.51520  0.20530  0.52210  Biso   1.000  H
  H48      1.0000 0.48480  0.70530  0.97790  Biso   1.000  H
  O97      1.0000 0.52080  0.59200  0.47910  Biso   1.000  O
  O98      1.0000 0.47920  0.09200  0.02090  Biso   1.000  O
  O99      1.0000 0.47920  0.40800  0.52090  Biso   1.000  O
  O100     1.0000 0.52080  0.90800  0.97910  Biso   1.000  O
  H49      1.0000 0.52110  0.55130  0.46210  Biso   1.000  H
  H50      1.0000 0.47890  0.05130  0.03790  Biso   1.000  H
  H51      1.0000 0.47890  0.44870  0.53790  Biso   1.000  H
  H52      1.0000 0.52110  0.94870  0.96210  Biso   1.000  H
  H53      1.0000 0.49210  0.54510  0.48840  Biso   1.000  H
  H54      1.0000 0.50790  0.04510  0.01160  Biso   1.000  H
  H55      1.0000 0.50790  0.45490  0.51160  Biso   1.000  H
  H56      1.0000 0.49210  0.95490  0.98840  Biso   1.000  H
  C1       1.0000 0.24920  0.81320  0.18296  Biso   1.000  C
  C2       1.0000 0.75080  0.31320  0.31704  Biso   1.000  C
  C3       1.0000 0.75080  0.18680  0.81704  Biso   1.000  C
  C4       1.0000 0.24920  0.68680  0.68296  Biso   1.000  C
  H57      1.0000 0.24020  0.71490  0.17310  Biso   1.000  H
  H58      1.0000 0.75980  0.21490  0.32690  Biso   1.000  H
  H59      1.0000 0.75980  0.28510  0.82690  Biso   1.000  H
  H60      1.0000 0.24020  0.78510  0.67310  Biso   1.000  H
  C5       1.0000 0.24670  0.81880  0.21297  Biso   1.000  C
  C6       1.0000 0.75330  0.31880  0.28703  Biso   1.000  C
  C7       1.0000 0.75330  0.18120  0.78703  Biso   1.000  C
  C8       1.0000 0.24670  0.68120  0.71297  Biso   1.000  C
  H61      1.0000 0.23690  0.72380  0.22300  Biso   1.000  H
  H62      1.0000 0.76310  0.22380  0.27700  Biso   1.000  H
  H63      1.0000 0.76310  0.27620  0.77700  Biso   1.000  H
  H64      1.0000 0.23690  0.77620  0.72300  Biso   1.000  H
  C9       1.0000 0.25840  0.96310  0.22845  Biso   1.000  C
  C10      1.0000 0.74160  0.46310  0.27155  Biso   1.000  C
  C11      1.0000 0.74160  0.03690  0.77155  Biso   1.000  C
  C12      1.0000 0.25840  0.53690  0.72845  Biso   1.000  C
  C13      1.0000 0.27370  0.09890  0.21220  Biso   1.000  C
  C14      1.0000 0.72630  0.59890  0.28780  Biso   1.000  C
  C15      1.0000 0.72630  0.90110  0.78780  Biso   1.000  C
  C16      1.0000 0.27370  0.40110  0.71220  Biso   1.000  C
  H65      1.0000 0.28180  0.19930  0.22150  Biso   1.000  H
  H66      1.0000 0.71820  0.69930  0.27850  Biso   1.000  H
  H67      1.0000 0.71820  0.80070  0.77850  Biso   1.000  H
  H68      1.0000 0.28180  0.30070  0.72150  Biso   1.000  H
  C17      1.0000 0.27680  0.08610  0.18264  Biso   1.000  C
  C18      1.0000 0.72320  0.58610  0.31736  Biso   1.000  C
  C19      1.0000 0.72320  0.91390  0.81736  Biso   1.000  C
  C20      1.0000 0.27680  0.41390  0.68264  Biso   1.000  C
  H69      1.0000 0.28820  0.17880  0.17240  Biso   1.000  H
  H70      1.0000 0.71180  0.67880  0.32760  Biso   1.000  H
  H71      1.0000 0.71180  0.82120  0.82760  Biso   1.000  H
  H72      1.0000 0.28820  0.32120  0.67240  Biso   1.000  H
  C21      1.0000 0.22480  0.11530  0.30316  Biso   1.000  C
  C22      1.0000 0.77520  0.61530  0.19684  Biso   1.000  C
  C23      1.0000 0.77520  0.88470  0.69684  Biso   1.000  C
  C24      1.0000 0.22480  0.38470  0.80316  Biso   1.000  C
  H73      1.0000 0.20860  0.20940  0.31140  Biso   1.000  H
  H74      1.0000 0.79140  0.70940  0.18860  Biso   1.000  H
  H75      1.0000 0.79140  0.79060  0.68860  Biso   1.000  H
  H76      1.0000 0.20860  0.29060  0.81140  Biso   1.000  H
  C25      1.0000 0.22900  0.11250  0.27350  Biso   1.000  C
  C26      1.0000 0.77100  0.61250  0.22650  Biso   1.000  C
  C27      1.0000 0.77100  0.88750  0.72650  Biso   1.000  C
  C28      1.0000 0.22900  0.38750  0.77350  Biso   1.000  C
  H77      1.0000 0.21650  0.20380  0.26220  Biso   1.000  H
  H78      1.0000 0.78350  0.70380  0.23780  Biso   1.000  H
  H79      1.0000 0.78350  0.79620  0.73780  Biso   1.000  H
  H80      1.0000 0.21650  0.29620  0.76220  Biso   1.000  H
  C29      1.0000 0.25200  0.97220  0.26022  Biso   1.000  C
  C30      1.0000 0.74800  0.47220  0.23978  Biso   1.000  C
  C31      1.0000 0.74800  0.02780  0.73978  Biso   1.000  C
  C32      1.0000 0.25200  0.52780  0.76022  Biso   1.000  C
  C33      1.0000 0.26970  0.84090  0.27832  Biso   1.000  C
  C34      1.0000 0.73030  0.34090  0.22168  Biso   1.000  C
  C35      1.0000 0.73030  0.15910  0.72168  Biso   1.000  C
  C36      1.0000 0.26970  0.65910  0.77832  Biso   1.000  C
  H81      1.0000 0.28510  0.74430  0.27060  Biso   1.000  H
  H82      1.0000 0.71490  0.24430  0.22940  Biso   1.000  H
  H83      1.0000 0.71490  0.25570  0.72940  Biso   1.000  H
  H84      1.0000 0.28510  0.75570  0.77060  Biso   1.000  H
  C37      1.0000 0.26420  0.85480  0.30783  Biso   1.000  C
  C38      1.0000 0.73580  0.35480  0.19217  Biso   1.000  C
  C39      1.0000 0.73580  0.14520  0.69217  Biso   1.000  C
  C40      1.0000 0.26420  0.64520  0.80783  Biso   1.000  C
  H85      1.0000 0.27620  0.76500  0.31960  Biso   1.000  H
  H86      1.0000 0.72380  0.26500  0.18040  Biso   1.000  H
  H87      1.0000 0.72380  0.23500  0.68040  Biso   1.000  H
  H88      1.0000 0.27620  0.73500  0.81960  Biso   1.000  H
  C41      1.0000 0.36080  0.20010  0.11700  Biso   1.000  C
  C42      1.0000 0.63920  0.70010  0.38300  Biso   1.000  C
  C43      1.0000 0.63920  0.79990  0.88300  Biso   1.000  C
  C44      1.0000 0.36080  0.29990  0.61700  Biso   1.000  C
  H89      1.0000 0.32530  0.25680  0.10810  Biso   1.000  H
  H90      1.0000 0.67470  0.75680  0.39190  Biso   1.000  H
  H91      1.0000 0.67470  0.74320  0.89190  Biso   1.000  H
  H92      1.0000 0.32530  0.24320  0.60810  Biso   1.000  H
  C45      1.0000 0.42100  0.27500  0.11900  Biso   1.000  C
  C46      1.0000 0.57900  0.77500  0.38100  Biso   1.000  C
  C47      1.0000 0.57900  0.72500  0.88100  Biso   1.000  C
  C48      1.0000 0.42100  0.22500  0.61900  Biso   1.000  C
  H93      1.0000 0.42540  0.38070  0.11180  Biso   1.000  H
  H94      1.0000 0.57460  0.88070  0.38820  Biso   1.000  H
  H95      1.0000 0.57460  0.61930  0.88820  Biso   1.000  H
  H96      1.0000 0.42540  0.11930  0.61180  Biso   1.000  H
  C49      1.0000 0.47430  0.19270  0.13177  Biso   1.000  C
  C50      1.0000 0.52570  0.69270  0.36823  Biso   1.000  C
  C51      1.0000 0.52570  0.80730  0.86823  Biso   1.000  C
  C52      1.0000 0.47430  0.30730  0.63177  Biso   1.000  C
  C53      1.0000 0.46440  0.03850  0.14270  Biso   1.000  C
  C54      1.0000 0.53560  0.53850  0.35730  Biso   1.000  C
  C55      1.0000 0.53560  0.96150  0.85730  Biso   1.000  C
  C56      1.0000 0.46440  0.46150  0.64270  Biso   1.000  C
  H97      1.0000 0.49940  0.98010  0.15160  Biso   1.000  H
  H98      1.0000 0.50060  0.48010  0.34840  Biso   1.000  H
  H99      1.0000 0.50060  0.01990  0.84840  Biso   1.000  H
  H100     1.0000 0.49940  0.51990  0.65160  Biso   1.000  H
  C57      1.0000 0.40340  0.96930  0.14061  Biso   1.000  C
  C58      1.0000 0.59660  0.46930  0.35939  Biso   1.000  C
  C59      1.0000 0.59660  0.03070  0.85939  Biso   1.000  C
  C60      1.0000 0.40340  0.53070  0.64061  Biso   1.000  C
  H101     1.0000 0.39760  0.86560  0.14850  Biso   1.000  H
  H102     1.0000 0.60240  0.36560  0.35150  Biso   1.000  H
  H103     1.0000 0.60240  0.13440  0.85150  Biso   1.000  H
  H104     1.0000 0.39760  0.63440  0.64850  Biso   1.000  H
  C61      1.0000 0.61380  0.49040  0.14426  Biso   1.000  C
  C62      1.0000 0.38620  0.99040  0.35574  Biso   1.000  C
  C63      1.0000 0.38620  0.50960  0.85574  Biso   1.000  C
  C64      1.0000 0.61380  0.00960  0.64426  Biso   1.000  C
  H105     1.0000 0.62210  0.59360  0.15240  Biso   1.000  H
  H106     1.0000 0.37790  0.09360  0.34760  Biso   1.000  H
  H107     1.0000 0.37790  0.40640  0.84760  Biso   1.000  H
  H108     1.0000 0.62210  0.90640  0.65240  Biso   1.000  H
  C65      1.0000 0.55190  0.42730  0.14332  Biso   1.000  C
  C66      1.0000 0.44810  0.92730  0.35668  Biso   1.000  C
  C67      1.0000 0.44810  0.57270  0.85668  Biso   1.000  C
  C68      1.0000 0.55190  0.07270  0.64332  Biso   1.000  C
  H109     1.0000 0.51830  0.49080  0.14960  Biso   1.000  H
  H110     1.0000 0.48170  0.99080  0.35040  Biso   1.000  H
  H111     1.0000 0.48170  0.50920  0.85040  Biso   1.000  H
  H112     1.0000 0.51830  0.00920  0.64960  Biso   1.000  H
  C69      1.0000 0.53960  0.26940  0.13308  Biso   1.000  C
  C70      1.0000 0.46040  0.76940  0.36692  Biso   1.000  C
  C71      1.0000 0.46040  0.73060  0.86692  Biso   1.000  C
  C72      1.0000 0.53960  0.23060  0.63308  Biso   1.000  C
  C73      1.0000 0.59120  0.18380  0.12290  Biso   1.000  C
  C74      1.0000 0.40880  0.68380  0.37710  Biso   1.000  C
  C75      1.0000 0.40880  0.81620  0.87710  Biso   1.000  C
  C76      1.0000 0.59120  0.31620  0.62290  Biso   1.000  C
  H113     1.0000 0.58530  0.07720  0.11590  Biso   1.000  H
  H114     1.0000 0.41470  0.57720  0.38410  Biso   1.000  H
  H115     1.0000 0.41470  0.92280  0.88410  Biso   1.000  H
  H116     1.0000 0.58530  0.42280  0.61590  Biso   1.000  H
  C77      1.0000 0.65100  0.25730  0.12310  Biso   1.000  C
  C78      1.0000 0.34900  0.75730  0.37690  Biso   1.000  C
  C79      1.0000 0.34900  0.74270  0.87690  Biso   1.000  C
  C80      1.0000 0.65100  0.24270  0.62310  Biso   1.000  C
  H117     1.0000 0.68480  0.20030  0.11550  Biso   1.000  H
  H118     1.0000 0.31520  0.70030  0.38450  Biso   1.000  H
  H119     1.0000 0.31520  0.79970  0.88450  Biso   1.000  H
  H120     1.0000 0.68480  0.29970  0.61550  Biso   1.000  H
  C81      1.0000 0.12320  0.95940  0.13200  Biso   1.000  C
  C82      1.0000 0.87680  0.45940  0.36800  Biso   1.000  C
  C83      1.0000 0.87680  0.04060  0.86800  Biso   1.000  C
  C84      1.0000 0.12320  0.54060  0.63200  Biso   1.000  C
  H121     1.0000 0.13510  0.06600  0.13740  Biso   1.000  H
  H122     1.0000 0.86490  0.56600  0.36260  Biso   1.000  H
  H123     1.0000 0.86490  0.93400  0.86260  Biso   1.000  H
  H124     1.0000 0.13510  0.43400  0.63740  Biso   1.000  H
  C85      1.0000 0.06120  0.91430  0.13450  Biso   1.000  C
  C86      1.0000 0.93880  0.41430  0.36550  Biso   1.000  C
  C87      1.0000 0.93880  0.08570  0.86550  Biso   1.000  C
  C88      1.0000 0.06120  0.58570  0.63450  Biso   1.000  C
  H125     1.0000 0.03180  0.99100  0.14050  Biso   1.000  H
  H126     1.0000 0.96820  0.49100  0.35950  Biso   1.000  H
  H127     1.0000 0.96820  0.00900  0.85950  Biso   1.000  H
  H128     1.0000 0.03180  0.50900  0.64050  Biso   1.000  H
  C89      1.0000 0.04120  0.75840  0.12849  Biso   1.000  C
  C90      1.0000 0.95880  0.25840  0.37151  Biso   1.000  C
  C91      1.0000 0.95880  0.24160  0.87151  Biso   1.000  C
  C92      1.0000 0.04120  0.74160  0.62849  Biso   1.000  C
  C93      1.0000 0.08710  0.65650  0.11860  Biso   1.000  C
  C94      1.0000 0.91290  0.15650  0.38140  Biso   1.000  C
  C95      1.0000 0.91290  0.34350  0.88140  Biso   1.000  C
  C96      1.0000 0.08710  0.84350  0.61860  Biso   1.000  C
  H129     1.0000 0.07610  0.54910  0.11340  Biso   1.000  H
  H130     1.0000 0.92390  0.04910  0.38660  Biso   1.000  H
  H131     1.0000 0.92390  0.45090  0.88660  Biso   1.000  H
  H132     1.0000 0.07610  0.95090  0.61340  Biso   1.000  H
  C97      1.0000 0.14920  0.71130  0.11640  Biso   1.000  C
  C98      1.0000 0.85080  0.21130  0.38360  Biso   1.000  C
  C99      1.0000 0.85080  0.28870  0.88360  Biso   1.000  C
  C100     1.0000 0.14920  0.78870  0.61640  Biso   1.000  C
  H133     1.0000 0.17950  0.63750  0.11020  Biso   1.000  H
  H134     1.0000 0.82050  0.13750  0.38980  Biso   1.000  H
  H135     1.0000 0.82050  0.36250  0.88980  Biso   1.000  H
  H136     1.0000 0.17950  0.86250  0.61020  Biso   1.000  H
  C101     1.0000 0.89670  0.50740  0.14670  Biso   1.000  C
  C102     1.0000 0.10330  0.00740  0.35330  Biso   1.000  C
  C103     1.0000 0.10330  0.49260  0.85330  Biso   1.000  C
  C104     1.0000 0.89670  0.99260  0.64670  Biso   1.000  C
  H137     1.0000 0.88930  0.40660  0.15530  Biso   1.000  H
  H138     1.0000 0.11070  0.90660  0.34470  Biso   1.000  H
  H139     1.0000 0.11070  0.59340  0.84470  Biso   1.000  H
  H140     1.0000 0.88930  0.09340  0.65530  Biso   1.000  H
  C105     1.0000 0.95940  0.55670  0.14440  Biso   1.000  C
  C106     1.0000 0.04060  0.05670  0.35560  Biso   1.000  C
  C107     1.0000 0.04060  0.44330  0.85560  Biso   1.000  C
  C108     1.0000 0.95940  0.94330  0.64440  Biso   1.000  C
  H141     1.0000 0.99330  0.48850  0.15140  Biso   1.000  H
  H142     1.0000 0.00670  0.98850  0.34860  Biso   1.000  H
  H143     1.0000 0.00670  0.51150  0.84860  Biso   1.000  H
  H144     1.0000 0.99330  0.01150  0.65140  Biso   1.000  H
  C109     1.0000 0.97300  0.70320  0.13214  Biso   1.000  C
  C110     1.0000 0.02700  0.20320  0.36786  Biso   1.000  C
  C111     1.0000 0.02700  0.29680  0.86786  Biso   1.000  C
  C112     1.0000 0.97300  0.79680  0.63214  Biso   1.000  C
  C113     1.0000 0.92120  0.80080  0.12410  Biso   1.000  C
  C114     1.0000 0.07880  0.30080  0.37590  Biso   1.000  C
  C115     1.0000 0.07880  0.19920  0.87590  Biso   1.000  C
  C116     1.0000 0.92120  0.69920  0.62410  Biso   1.000  C
  H145     1.0000 0.92780  0.90560  0.11690  Biso   1.000  H
  H146     1.0000 0.07220  0.40560  0.38310  Biso   1.000  H
  H147     1.0000 0.07220  0.09440  0.88310  Biso   1.000  H
  H148     1.0000 0.92780  0.59440  0.61690  Biso   1.000  H
  C117     1.0000 0.85900  0.74510  0.12660  Biso   1.000  C
  C118     1.0000 0.14100  0.24510  0.37340  Biso   1.000  C
  C119     1.0000 0.14100  0.25490  0.87340  Biso   1.000  C
  C120     1.0000 0.85900  0.75490  0.62660  Biso   1.000  C
  H149     1.0000 0.82460  0.81440  0.12060  Biso   1.000  H
  H150     1.0000 0.17540  0.31440  0.37940  Biso   1.000  H
  H151     1.0000 0.17540  0.18560  0.87940  Biso   1.000  H
  H152     1.0000 0.82460  0.68560  0.62060  Biso   1.000  H
  C121     1.0000 0.21380  0.00540  0.06177  Biso   1.000  C
  C122     1.0000 0.78620  0.50540  0.43823  Biso   1.000  C
  C123     1.0000 0.78620  0.99460  0.93823  Biso   1.000  C
  C124     1.0000 0.21380  0.49460  0.56177  Biso   1.000  C
  H153     1.0000 0.17560  0.03500  0.06970  Biso   1.000  H
  H154     1.0000 0.82440  0.53500  0.43030  Biso   1.000  H
  H155     1.0000 0.82440  0.96500  0.93030  Biso   1.000  H
  H156     1.0000 0.17560  0.46500  0.56970  Biso   1.000  H
  C125     1.0000 0.21750  0.02320  0.03206  Biso   1.000  C
  C126     1.0000 0.78250  0.52320  0.46794  Biso   1.000  C
  C127     1.0000 0.78250  0.97680  0.96794  Biso   1.000  C
  C128     1.0000 0.21750  0.47680  0.53206  Biso   1.000  C
  H157     1.0000 0.18210  0.06550  0.02060  Biso   1.000  H
  H158     1.0000 0.81790  0.56550  0.47940  Biso   1.000  H
  H159     1.0000 0.81790  0.93450  0.97940  Biso   1.000  H
  H160     1.0000 0.18210  0.43450  0.52060  Biso   1.000  H
  C129     1.0000 0.27310  0.97920  0.01898  Biso   1.000  C
  C130     1.0000 0.72690  0.47920  0.48102  Biso   1.000  C
  C131     1.0000 0.72690  0.02080  0.98102  Biso   1.000  C
  C132     1.0000 0.27310  0.52080  0.51898  Biso   1.000  C
  C133     1.0000 0.32300  0.92120  0.03739  Biso   1.000  C
  C134     1.0000 0.67700  0.42120  0.46261  Biso   1.000  C
  C135     1.0000 0.67700  0.07880  0.96261  Biso   1.000  C
  C136     1.0000 0.32300  0.57880  0.53739  Biso   1.000  C
  H161     1.0000 0.36150  0.89030  0.02990  Biso   1.000  H
  H162     1.0000 0.63850  0.39030  0.47010  Biso   1.000  H
  H163     1.0000 0.63850  0.10970  0.97010  Biso   1.000  H
  H164     1.0000 0.36150  0.60970  0.52990  Biso   1.000  H
  C137     1.0000 0.31720  0.90760  0.06713  Biso   1.000  C
  C138     1.0000 0.68280  0.40760  0.43287  Biso   1.000  C
  C139     1.0000 0.68280  0.09240  0.93287  Biso   1.000  C
  C140     1.0000 0.31720  0.59240  0.56713  Biso   1.000  C
  H165     1.0000 0.35260  0.86910  0.07910  Biso   1.000  H
  H166     1.0000 0.64740  0.36910  0.42090  Biso   1.000  H
  H167     1.0000 0.64740  0.13090  0.92090  Biso   1.000  H
  H168     1.0000 0.35260  0.63090  0.57910  Biso   1.000  H
  C141     1.0000 0.23490  0.02410  0.93720  Biso   1.000  C
  C142     1.0000 0.76510  0.52410  0.56280  Biso   1.000  C
  C143     1.0000 0.76510  0.97590  0.06280  Biso   1.000  C
  C144     1.0000 0.23490  0.47590  0.43720  Biso   1.000  C
  H169     1.0000 0.19800  0.02550  0.92410  Biso   1.000  H
  H170     1.0000 0.80200  0.52550  0.57590  Biso   1.000  H
  H171     1.0000 0.80200  0.97450  0.07590  Biso   1.000  H
  H172     1.0000 0.19800  0.47450  0.42410  Biso   1.000  H
  C145     1.0000 0.22600  0.01330  0.96760  Biso   1.000  C
  C146     1.0000 0.77400  0.51330  0.53240  Biso   1.000  C
  C147     1.0000 0.77400  0.98670  0.03240  Biso   1.000  C
  C148     1.0000 0.22600  0.48670  0.46760  Biso   1.000  C
  H173     1.0000 0.18450  0.01670  0.97400  Biso   1.000  H
  H174     1.0000 0.81550  0.51670  0.52600  Biso   1.000  H
  H175     1.0000 0.81550  0.98330  0.02600  Biso   1.000  H
  H176     1.0000 0.18450  0.48330  0.47400  Biso   1.000  H
  C149     1.0000 0.27810  0.99830  0.98710  Biso   1.000  C
  C150     1.0000 0.72190  0.49830  0.51290  Biso   1.000  C
  C151     1.0000 0.72190  0.00170  0.01290  Biso   1.000  C
  C152     1.0000 0.27810  0.50170  0.48710  Biso   1.000  C
  C153     1.0000 0.33700  0.99670  0.97460  Biso   1.000  C
  C154     1.0000 0.66300  0.49670  0.52540  Biso   1.000  C
  C155     1.0000 0.66300  0.00330  0.02540  Biso   1.000  C
  C156     1.0000 0.33700  0.50330  0.47460  Biso   1.000  C
  H177     1.0000 0.37520  0.98180  0.98650  Biso   1.000  H
  H178     1.0000 0.62480  0.48180  0.51350  Biso   1.000  H
  H179     1.0000 0.62480  0.01820  0.01350  Biso   1.000  H
  H180     1.0000 0.37520  0.51820  0.48650  Biso   1.000  H
  C157     1.0000 0.33960  0.01650  0.94530  Biso   1.000  C
  C158     1.0000 0.66040  0.51650  0.55470  Biso   1.000  C
  C159     1.0000 0.66040  0.98350  0.05470  Biso   1.000  C
  C160     1.0000 0.33960  0.48350  0.44530  Biso   1.000  C
  H181     1.0000 0.38050  0.01880  0.93830  Biso   1.000  H
  H182     1.0000 0.61950  0.51880  0.56170  Biso   1.000  H
  H183     1.0000 0.61950  0.98120  0.06170  Biso   1.000  H
  H184     1.0000 0.38050  0.48120  0.43830  Biso   1.000  H
  C161     1.0000 0.79200  0.46610  0.07382  Biso   1.000  C
  C162     1.0000 0.20800  0.96610  0.42618  Biso   1.000  C
  C163     1.0000 0.20800  0.53390  0.92618  Biso   1.000  C
  C164     1.0000 0.79200  0.03390  0.57382  Biso   1.000  C
  H185     1.0000 0.83150  0.43270  0.08320  Biso   1.000  H
  H186     1.0000 0.16850  0.93270  0.41680  Biso   1.000  H
  H187     1.0000 0.16850  0.56730  0.91680  Biso   1.000  H
  H188     1.0000 0.83150  0.06730  0.58320  Biso   1.000  H
  C165     1.0000 0.78480  0.46360  0.04388  Biso   1.000  C
  C166     1.0000 0.21520  0.96360  0.45612  Biso   1.000  C
  C167     1.0000 0.21520  0.53640  0.95612  Biso   1.000  C
  C168     1.0000 0.78480  0.03640  0.54388  Biso   1.000  C
  H189     1.0000 0.81900  0.43020  0.03340  Biso   1.000  H
  H190     1.0000 0.18100  0.93020  0.46660  Biso   1.000  H
  H191     1.0000 0.18100  0.56980  0.96660  Biso   1.000  H
  H192     1.0000 0.81900  0.06980  0.53340  Biso   1.000  H
  C169     1.0000 0.72600  0.51100  0.02899  Biso   1.000  C
  C170     1.0000 0.27400  0.01100  0.47101  Biso   1.000  C
  C171     1.0000 0.27400  0.48900  0.97101  Biso   1.000  C
  C172     1.0000 0.72600  0.98900  0.52899  Biso   1.000  C
  C173     1.0000 0.67810  0.56200  0.04604  Biso   1.000  C
  C174     1.0000 0.32190  0.06200  0.45396  Biso   1.000  C
  C175     1.0000 0.32190  0.43800  0.95396  Biso   1.000  C
  C176     1.0000 0.67810  0.93800  0.54604  Biso   1.000  C
  H193     1.0000 0.63820  0.59640  0.03720  Biso   1.000  H
  H194     1.0000 0.36180  0.09640  0.46280  Biso   1.000  H
  H195     1.0000 0.36180  0.40360  0.96280  Biso   1.000  H
  H196     1.0000 0.63820  0.90360  0.53720  Biso   1.000  H
  C177     1.0000 0.68900  0.56220  0.07598  Biso   1.000  C
  C178     1.0000 0.31100  0.06220  0.42402  Biso   1.000  C
  C179     1.0000 0.31100  0.43780  0.92402  Biso   1.000  C
  C180     1.0000 0.68900  0.93780  0.57598  Biso   1.000  C
  H197     1.0000 0.65570  0.59750  0.08680  Biso   1.000  H
  H198     1.0000 0.34430  0.09750  0.41320  Biso   1.000  H
  H199     1.0000 0.34430  0.40250  0.91320  Biso   1.000  H
  H200     1.0000 0.65570  0.90250  0.58680  Biso   1.000  H
  C181     1.0000 0.64870  0.51180  0.95120  Biso   1.000  C
  C182     1.0000 0.35130  0.01180  0.54880  Biso   1.000  C
  C183     1.0000 0.35130  0.48820  0.04880  Biso   1.000  C
  C184     1.0000 0.64870  0.98820  0.45120  Biso   1.000  C
  H201     1.0000 0.60720  0.51990  0.94170  Biso   1.000  H
  H202     1.0000 0.39280  0.01990  0.55830  Biso   1.000  H
  H203     1.0000 0.39280  0.48010  0.05830  Biso   1.000  H
  H204     1.0000 0.60720  0.98010  0.44170  Biso   1.000  H
  C185     1.0000 0.65510  0.51910  0.98190  Biso   1.000  C
  C186     1.0000 0.34490  0.01910  0.51810  Biso   1.000  C
  C187     1.0000 0.34490  0.48090  0.01810  Biso   1.000  C
  C188     1.0000 0.65510  0.98090  0.48190  Biso   1.000  C
  H205     1.0000 0.61870  0.53030  0.99230  Biso   1.000  H
  H206     1.0000 0.38130  0.03030  0.50770  Biso   1.000  H
  H207     1.0000 0.38130  0.46970  0.00770  Biso   1.000  H
  H208     1.0000 0.61870  0.96970  0.49230  Biso   1.000  H
  C189     1.0000 0.71650  0.50920  0.99642  Biso   1.000  C
  C190     1.0000 0.28350  0.00920  0.50358  Biso   1.000  C
  C191     1.0000 0.28350  0.49080  0.00358  Biso   1.000  C
  C192     1.0000 0.71650  0.99080  0.49642  Biso   1.000  C
  C193     1.0000 0.76690  0.49710  0.97900  Biso   1.000  C
  C194     1.0000 0.23310  0.99710  0.52100  Biso   1.000  C
  C195     1.0000 0.23310  0.50290  0.02100  Biso   1.000  C
  C196     1.0000 0.76690  0.00290  0.47900  Biso   1.000  C
  H209     1.0000 0.80950  0.49660  0.98740  Biso   1.000  H
  H210     1.0000 0.19050  0.99660  0.51260  Biso   1.000  H
  H211     1.0000 0.19050  0.50340  0.01260  Biso   1.000  H
  H212     1.0000 0.80950  0.00340  0.48740  Biso   1.000  H
  C197     1.0000 0.75410  0.48540  0.94860  Biso   1.000  C
  C198     1.0000 0.24590  0.98540  0.55140  Biso   1.000  C
  C199     1.0000 0.24590  0.51460  0.05140  Biso   1.000  C
  C200     1.0000 0.75410  0.01460  0.44860  Biso   1.000  C
  H213     1.0000 0.78910  0.47000  0.93750  Biso   1.000  H
  H214     1.0000 0.21090  0.97000  0.56250  Biso   1.000  H
  H215     1.0000 0.21090  0.53000  0.06250  Biso   1.000  H
  H216     1.0000 0.78910  0.03000  0.43750  Biso   1.000  H
  C201     1.0000 0.93720  0.11000  0.17410  Biso   1.000  C
  C202     1.0000 0.06280  0.61000  0.32590  Biso   1.000  C
  C203     1.0000 0.06280  0.89000  0.82590  Biso   1.000  C
  C204     1.0000 0.93720  0.39000  0.67410  Biso   1.000  C
  H217     1.0000 0.95080  0.16200  0.15760  Biso   1.000  H
  H218     1.0000 0.04920  0.66200  0.34240  Biso   1.000  H
  H219     1.0000 0.04920  0.83800  0.84240  Biso   1.000  H
  H220     1.0000 0.95080  0.33800  0.65760  Biso   1.000  H
  C205     1.0000 0.98260  0.04400  0.19490  Biso   1.000  C
  C206     1.0000 0.01740  0.54400  0.30510  Biso   1.000  C
  C207     1.0000 0.01740  0.95600  0.80510  Biso   1.000  C
  C208     1.0000 0.98260  0.45600  0.69490  Biso   1.000  C
  H221     1.0000 0.02670  0.05110  0.19230  Biso   1.000  H
  H222     1.0000 0.97330  0.55110  0.30770  Biso   1.000  H
  H223     1.0000 0.97330  0.94890  0.80770  Biso   1.000  H
  H224     1.0000 0.02670  0.44890  0.69230  Biso   1.000  H
  C209     1.0000 0.96230  0.96700  0.21960  Biso   1.000  C
  C210     1.0000 0.03770  0.46700  0.28040  Biso   1.000  C
  C211     1.0000 0.03770  0.03300  0.78040  Biso   1.000  C
  C212     1.0000 0.96230  0.53300  0.71960  Biso   1.000  C
  C213     1.0000 0.89650  0.95600  0.22340  Biso   1.000  C
  C214     1.0000 0.10350  0.45600  0.27660  Biso   1.000  C
  C215     1.0000 0.10350  0.04400  0.77660  Biso   1.000  C
  C216     1.0000 0.89650  0.54400  0.72340  Biso   1.000  C
  H225     1.0000 0.88290  0.90500  0.23990  Biso   1.000  H
  H226     1.0000 0.11710  0.40500  0.26010  Biso   1.000  H
  H227     1.0000 0.11710  0.09500  0.76010  Biso   1.000  H
  H228     1.0000 0.88290  0.59500  0.73990  Biso   1.000  H
  C217     1.0000 0.85100  0.02300  0.20260  Biso   1.000  C
  C218     1.0000 0.14900  0.52300  0.29740  Biso   1.000  C
  C219     1.0000 0.14900  0.97700  0.79740  Biso   1.000  C
  C220     1.0000 0.85100  0.47700  0.70260  Biso   1.000  C
  H229     1.0000 0.80700  0.01590  0.20520  Biso   1.000  H
  H230     1.0000 0.19300  0.51590  0.29480  Biso   1.000  H
  H231     1.0000 0.19300  0.98410  0.79480  Biso   1.000  H
  H232     1.0000 0.80700  0.48410  0.70520  Biso   1.000  H
  C221     1.0000 0.10950  0.72000  0.25060  Biso   1.000  C
  C222     1.0000 0.89050  0.22000  0.24940  Biso   1.000  C
  C223     1.0000 0.89050  0.28000  0.74940  Biso   1.000  C
  C224     1.0000 0.10950  0.78000  0.75060  Biso   1.000  C
  H233     1.0000 0.14440  0.66240  0.24430  Biso   1.000  H
  H234     1.0000 0.85560  0.16240  0.25570  Biso   1.000  H
  H235     1.0000 0.85560  0.33760  0.75570  Biso   1.000  H
  H236     1.0000 0.14440  0.83760  0.74430  Biso   1.000  H
  C225     1.0000 0.06810  0.80600  0.23060  Biso   1.000  C
  C226     1.0000 0.93190  0.30600  0.26940  Biso   1.000  C
  C227     1.0000 0.93190  0.19400  0.76940  Biso   1.000  C
  C228     1.0000 0.06810  0.69400  0.73060  Biso   1.000  C
  H237     1.0000 0.07530  0.80610  0.21090  Biso   1.000  H
  H238     1.0000 0.92470  0.30610  0.28910  Biso   1.000  H
  H239     1.0000 0.92470  0.19390  0.78910  Biso   1.000  H
  H240     1.0000 0.07530  0.69390  0.71090  Biso   1.000  H
  C229     1.0000 0.01600  0.89300  0.24010  Biso   1.000  C
  C230     1.0000 0.98400  0.39300  0.25990  Biso   1.000  C
  C231     1.0000 0.98400  0.10700  0.75990  Biso   1.000  C
  C232     1.0000 0.01600  0.60700  0.74010  Biso   1.000  C
  C233     1.0000 0.00530  0.89400  0.26970  Biso   1.000  C
  C234     1.0000 0.99470  0.39400  0.23030  Biso   1.000  C
  C235     1.0000 0.99470  0.10600  0.73030  Biso   1.000  C
  C236     1.0000 0.00530  0.60600  0.76970  Biso   1.000  C
  H241     1.0000 0.97040  0.95180  0.27600  Biso   1.000  H
  H242     1.0000 0.02960  0.45180  0.22400  Biso   1.000  H
  H243     1.0000 0.02960  0.04820  0.72400  Biso   1.000  H
  H244     1.0000 0.97040  0.54820  0.77600  Biso   1.000  H
  C237     1.0000 0.04670  0.80800  0.28970  Biso   1.000  C
  C238     1.0000 0.95330  0.30800  0.21030  Biso   1.000  C
  C239     1.0000 0.95330  0.19200  0.71030  Biso   1.000  C
  C240     1.0000 0.04670  0.69200  0.78970  Biso   1.000  C
  H245     1.0000 0.03950  0.80810  0.30940  Biso   1.000  H
  H246     1.0000 0.96050  0.30810  0.19060  Biso   1.000  H
  H247     1.0000 0.96050  0.19190  0.69060  Biso   1.000  H
  H248     1.0000 0.03950  0.69190  0.80940  Biso   1.000  H
  C241     1.0000 0.04130  0.22100  0.50320  Biso   1.000  C
  C242     1.0000 0.95870  0.72100  0.99680  Biso   1.000  C
  C243     1.0000 0.95870  0.77900  0.49680  Biso   1.000  C
  C244     1.0000 0.04130  0.27900  0.00320  Biso   1.000  C
  H249     1.0000 0.01370  0.22290  0.51820  Biso   1.000  H
  H250     1.0000 0.98630  0.72290  0.98180  Biso   1.000  H
  H251     1.0000 0.98630  0.77710  0.48180  Biso   1.000  H
  H252     1.0000 0.01370  0.27710  0.01820  Biso   1.000  H
  C245     1.0000 0.05440  0.21700  0.45490  Biso   1.000  C
  C246     1.0000 0.94560  0.71700  0.04510  Biso   1.000  C
  C247     1.0000 0.94560  0.78300  0.54510  Biso   1.000  C
  C248     1.0000 0.05440  0.28300  0.95490  Biso   1.000  C
  H253     1.0000 0.09580  0.17920  0.46340  Biso   1.000  H
  H254     1.0000 0.90420  0.67920  0.03660  Biso   1.000  H
  H255     1.0000 0.90420  0.82080  0.53660  Biso   1.000  H
  H256     1.0000 0.09580  0.32080  0.96340  Biso   1.000  H
  H257     1.0000 0.05960  0.32170  0.44570  Biso   1.000  H
  H258     1.0000 0.94040  0.82170  0.05430  Biso   1.000  H
  H259     1.0000 0.94040  0.67830  0.55430  Biso   1.000  H
  H260     1.0000 0.05960  0.17830  0.94570  Biso   1.000  H
  H261     1.0000 0.03720  0.13930  0.44050  Biso   1.000  H
  H262     1.0000 0.96280  0.63930  0.05950  Biso   1.000  H
  H263     1.0000 0.96280  0.86070  0.55950  Biso   1.000  H
  H264     1.0000 0.03720  0.36070  0.94050  Biso   1.000  H
  C249     1.0000 0.94280  0.25800  0.46960  Biso   1.000  C
  C250     1.0000 0.05720  0.75800  0.03040  Biso   1.000  C
  C251     1.0000 0.05720  0.74200  0.53040  Biso   1.000  C
  C252     1.0000 0.94280  0.24200  0.96960  Biso   1.000  C
  H265     1.0000 0.91900  0.16520  0.47580  Biso   1.000  H
  H266     1.0000 0.08100  0.66520  0.02420  Biso   1.000  H
  H267     1.0000 0.08100  0.83480  0.52420  Biso   1.000  H
  H268     1.0000 0.91900  0.33480  0.97580  Biso   1.000  H
  H269     1.0000 0.93470  0.27140  0.44880  Biso   1.000  H
  H270     1.0000 0.06530  0.77140  0.05120  Biso   1.000  H
  H271     1.0000 0.06530  0.72860  0.55120  Biso   1.000  H
  H272     1.0000 0.93470  0.22860  0.94880  Biso   1.000  H
  H273     1.0000 0.92900  0.35530  0.47920  Biso   1.000  H
  H274     1.0000 0.07100  0.85530  0.02080  Biso   1.000  H
  H275     1.0000 0.07100  0.64470  0.52080  Biso   1.000  H
  H276     1.0000 0.92900  0.14470  0.97920  Biso   1.000  H
  C253     1.0000 0.42150  0.58900  0.18830  Biso   1.000  C
  C254     1.0000 0.57850  0.08900  0.31170  Biso   1.000  C
  C255     1.0000 0.57850  0.41100  0.81170  Biso   1.000  C
  C256     1.0000 0.42150  0.91100  0.68830  Biso   1.000  C
  H277     1.0000 0.43930  0.69300  0.18660  Biso   1.000  H
  H278     1.0000 0.56070  0.19300  0.31340  Biso   1.000  H
  H279     1.0000 0.56070  0.30700  0.81340  Biso   1.000  H
  H280     1.0000 0.43930  0.80700  0.68660  Biso   1.000  H
  C257     1.0000 0.42720  0.31000  0.20880  Biso   1.000  C
  C258     1.0000 0.57280  0.81000  0.29120  Biso   1.000  C
  C259     1.0000 0.57280  0.69000  0.79120  Biso   1.000  C
  C260     1.0000 0.42720  0.19000  0.70880  Biso   1.000  C
  H281     1.0000 0.39910  0.29740  0.22430  Biso   1.000  H
  H282     1.0000 0.60090  0.79740  0.27570  Biso   1.000  H
  H283     1.0000 0.60090  0.70260  0.77570  Biso   1.000  H
  H284     1.0000 0.39910  0.20260  0.72430  Biso   1.000  H
  H285     1.0000 0.46470  0.24150  0.21260  Biso   1.000  H
  H286     1.0000 0.53530  0.74150  0.28740  Biso   1.000  H
  H287     1.0000 0.53530  0.75850  0.78740  Biso   1.000  H
  H288     1.0000 0.46470  0.25850  0.71260  Biso   1.000  H
  H289     1.0000 0.40440  0.27930  0.19050  Biso   1.000  H
  H290     1.0000 0.59560  0.77930  0.30950  Biso   1.000  H
  H291     1.0000 0.59560  0.72070  0.80950  Biso   1.000  H
  H292     1.0000 0.40440  0.22070  0.69050  Biso   1.000  H
  C261     1.0000 0.50870  0.51100  0.22580  Biso   1.000  C
  C262     1.0000 0.49130  0.01100  0.27420  Biso   1.000  C
  C263     1.0000 0.49130  0.48900  0.77420  Biso   1.000  C
  C264     1.0000 0.50870  0.98900  0.72580  Biso   1.000  C
  H293     1.0000 0.53040  0.60610  0.21910  Biso   1.000  H
  H294     1.0000 0.46960  0.10610  0.28090  Biso   1.000  H
  H295     1.0000 0.46960  0.39390  0.78090  Biso   1.000  H
  H296     1.0000 0.53040  0.89390  0.71910  Biso   1.000  H
  H297     1.0000 0.53620  0.41650  0.22460  Biso   1.000  H
  H298     1.0000 0.46380  0.91650  0.27540  Biso   1.000  H
  H299     1.0000 0.46380  0.58350  0.77540  Biso   1.000  H
  H300     1.0000 0.53620  0.08350  0.72460  Biso   1.000  H
  H301     1.0000 0.49920  0.52700  0.24570  Biso   1.000  H
  H302     1.0000 0.50080  0.02700  0.25430  Biso   1.000  H
  H303     1.0000 0.50080  0.47300  0.75430  Biso   1.000  H
  H304     1.0000 0.49920  0.97300  0.74570  Biso   1.000  H
  H305     1.0000 0.51320  0.69420  0.47760  Biso   1.000  H
  H306     1.0000 0.48680  0.19420  0.02240  Biso   1.000  H
  H307     1.0000 0.48680  0.30580  0.52240  Biso   1.000  H
  H308     1.0000 0.51320  0.80580  0.97760  Biso   1.000  H
