data_image0
_cell_length_a       22.878
_cell_length_b       22.878
_cell_length_c       15.853
_cell_angle_alpha    90
_cell_angle_beta     90
_cell_angle_gamma    90

_symmetry_space_group_name_H-M    "P 1"
_symmetry_int_tables_number       1

loop_
  _symmetry_equiv_pos_as_xyz
  'x, y, z'

loop_
  _atom_site_label
  _atom_site_occupancy
  _atom_site_fract_x
  _atom_site_fract_y
  _atom_site_fract_z
  _atom_site_thermal_displace_type
  _atom_site_B_iso_or_equiv
  _atom_site_type_symbol
  Cu1      1.0000 0.00000  0.25000  0.12500  Biso   1.000  Cu
  Cu2      1.0000 0.50000  0.25000  0.37500  Biso   1.000  Cu
  Cu3      1.0000 0.50000  0.75000  0.62500  Biso   1.000  Cu
  Cu4      1.0000 0.00000  0.75000  0.87500  Biso   1.000  Cu
  Mo1      1.0000 0.93677  0.15429  0.47619  Biso   1.000  Mo
  Mo2      1.0000 0.59571  0.18677  0.72619  Biso   1.000  Mo
  Mo3      1.0000 0.56323  0.84571  0.97619  Biso   1.000  Mo
  Mo4      1.0000 0.90429  0.81323  0.22619  Biso   1.000  Mo
  Mo5      1.0000 0.43677  0.65429  0.97619  Biso   1.000  Mo
  Mo6      1.0000 0.09571  0.68677  0.22619  Biso   1.000  Mo
  Mo7      1.0000 0.06323  0.34571  0.47619  Biso   1.000  Mo
  Mo8      1.0000 0.40429  0.31323  0.72619  Biso   1.000  Mo
  Mo9      1.0000 0.06323  0.84571  0.52381  Biso   1.000  Mo
  Mo10     1.0000 0.90429  0.31323  0.77381  Biso   1.000  Mo
  Mo11     1.0000 0.43677  0.15429  0.02381  Biso   1.000  Mo
  Mo12     1.0000 0.59571  0.68677  0.27381  Biso   1.000  Mo
  Mo13     1.0000 0.56323  0.34571  0.02381  Biso   1.000  Mo
  Mo14     1.0000 0.40429  0.81323  0.27381  Biso   1.000  Mo
  Mo15     1.0000 0.93677  0.65429  0.52381  Biso   1.000  Mo
  Mo16     1.0000 0.09571  0.18677  0.77381  Biso   1.000  Mo
  Mo17     1.0000 0.89899  0.30651  0.47473  Biso   1.000  Mo
  Mo18     1.0000 0.44349  0.14899  0.72473  Biso   1.000  Mo
  Mo19     1.0000 0.60101  0.69349  0.97473  Biso   1.000  Mo
  Mo20     1.0000 0.05651  0.85101  0.22473  Biso   1.000  Mo
  Mo21     1.0000 0.39899  0.80651  0.97473  Biso   1.000  Mo
  Mo22     1.0000 0.94349  0.64899  0.22473  Biso   1.000  Mo
  Mo23     1.0000 0.10101  0.19349  0.47473  Biso   1.000  Mo
  Mo24     1.0000 0.55651  0.35101  0.72473  Biso   1.000  Mo
  Mo25     1.0000 0.10101  0.69349  0.52527  Biso   1.000  Mo
  Mo26     1.0000 0.05651  0.35101  0.77527  Biso   1.000  Mo
  Mo27     1.0000 0.39899  0.30651  0.02527  Biso   1.000  Mo
  Mo28     1.0000 0.44349  0.64899  0.27527  Biso   1.000  Mo
  Mo29     1.0000 0.60101  0.19349  0.02527  Biso   1.000  Mo
  Mo30     1.0000 0.55651  0.85101  0.27527  Biso   1.000  Mo
  Mo31     1.0000 0.89899  0.80651  0.52527  Biso   1.000  Mo
  Mo32     1.0000 0.94349  0.14899  0.77527  Biso   1.000  Mo
  Mo33     1.0000 0.15300  0.28722  0.62037  Biso   1.000  Mo
  Mo34     1.0000 0.46278  0.40300  0.87037  Biso   1.000  Mo
  Mo35     1.0000 0.34700  0.71278  0.12037  Biso   1.000  Mo
  Mo36     1.0000 0.03722  0.59700  0.37037  Biso   1.000  Mo
  Mo37     1.0000 0.65300  0.78722  0.12037  Biso   1.000  Mo
  Mo38     1.0000 0.96278  0.90300  0.37037  Biso   1.000  Mo
  Mo39     1.0000 0.84700  0.21278  0.62037  Biso   1.000  Mo
  Mo40     1.0000 0.53722  0.09700  0.87037  Biso   1.000  Mo
  Mo41     1.0000 0.84700  0.71278  0.37963  Biso   1.000  Mo
  Mo42     1.0000 0.03722  0.09700  0.62963  Biso   1.000  Mo
  Mo43     1.0000 0.65300  0.28722  0.87963  Biso   1.000  Mo
  Mo44     1.0000 0.46278  0.90300  0.12963  Biso   1.000  Mo
  Mo45     1.0000 0.34700  0.21278  0.87963  Biso   1.000  Mo
  Mo46     1.0000 0.53722  0.59700  0.12963  Biso   1.000  Mo
  Mo47     1.0000 0.15300  0.78722  0.37963  Biso   1.000  Mo
  Mo48     1.0000 0.96278  0.40300  0.62963  Biso   1.000  Mo
  V1       1.0000 0.00000  0.25000  0.37426  Biso   1.000  V
  V2       1.0000 0.50000  0.25000  0.62426  Biso   1.000  V
  V3       1.0000 0.50000  0.75000  0.87426  Biso   1.000  V
  V4       1.0000 0.00000  0.75000  0.12426  Biso   1.000  V
  V5       1.0000 0.00000  0.75000  0.62574  Biso   1.000  V
  V6       1.0000 0.00000  0.25000  0.87574  Biso   1.000  V
  V7       1.0000 0.50000  0.25000  0.12574  Biso   1.000  V
  V8       1.0000 0.50000  0.75000  0.37574  Biso   1.000  V
  P1       1.0000 0.00000  0.25000  0.62500  Biso   1.000  P
  P2       1.0000 0.50000  0.25000  0.87500  Biso   1.000  P
  P3       1.0000 0.50000  0.75000  0.12500  Biso   1.000  P
  P4       1.0000 0.00000  0.75000  0.37500  Biso   1.000  P
  O1       1.0000 0.00000  0.25000  0.27340  Biso   1.000  O
  O2       1.0000 0.50000  0.25000  0.52340  Biso   1.000  O
  O3       1.0000 0.50000  0.75000  0.77340  Biso   1.000  O
  O4       1.0000 0.00000  0.75000  0.02340  Biso   1.000  O
  O5       1.0000 0.00000  0.75000  0.72660  Biso   1.000  O
  O6       1.0000 0.00000  0.25000  0.97660  Biso   1.000  O
  O7       1.0000 0.50000  0.25000  0.22660  Biso   1.000  O
  O8       1.0000 0.50000  0.75000  0.47660  Biso   1.000  O
  O9       1.0000 0.91360  0.36270  0.55170  Biso   1.000  O
  O10      1.0000 0.38730  0.16360  0.80170  Biso   1.000  O
  O11      1.0000 0.58640  0.63730  0.05170  Biso   1.000  O
  O12      1.0000 0.11270  0.83640  0.30170  Biso   1.000  O
  O13      1.0000 0.41360  0.86270  0.05170  Biso   1.000  O
  O14      1.0000 0.88730  0.66360  0.30170  Biso   1.000  O
  O15      1.0000 0.08640  0.13730  0.55170  Biso   1.000  O
  O16      1.0000 0.61270  0.33640  0.80170  Biso   1.000  O
  O17      1.0000 0.08640  0.63730  0.44830  Biso   1.000  O
  O18      1.0000 0.11270  0.33640  0.69830  Biso   1.000  O
  O19      1.0000 0.41360  0.36270  0.94830  Biso   1.000  O
  O20      1.0000 0.38730  0.66360  0.19830  Biso   1.000  O
  O21      1.0000 0.58640  0.13730  0.94830  Biso   1.000  O
  O22      1.0000 0.61270  0.83640  0.19830  Biso   1.000  O
  O23      1.0000 0.91360  0.86270  0.44830  Biso   1.000  O
  O24      1.0000 0.88730  0.16360  0.69830  Biso   1.000  O
  O25      1.0000 0.94660  0.23620  0.56950  Biso   1.000  O
  O26      1.0000 0.51380  0.19660  0.81950  Biso   1.000  O
  O27      1.0000 0.55340  0.76380  0.06950  Biso   1.000  O
  O28      1.0000 0.98620  0.80340  0.31950  Biso   1.000  O
  O29      1.0000 0.44660  0.73620  0.06950  Biso   1.000  O
  O30      1.0000 0.01380  0.69660  0.31950  Biso   1.000  O
  O31      1.0000 0.05340  0.26380  0.56950  Biso   1.000  O
  O32      1.0000 0.48620  0.30340  0.81950  Biso   1.000  O
  O33      1.0000 0.05340  0.76380  0.43050  Biso   1.000  O
  O34      1.0000 0.98620  0.30340  0.68050  Biso   1.000  O
  O35      1.0000 0.44660  0.23620  0.93050  Biso   1.000  O
  O36      1.0000 0.51380  0.69660  0.18050  Biso   1.000  O
  O37      1.0000 0.55340  0.26380  0.93050  Biso   1.000  O
  O38      1.0000 0.48620  0.80340  0.18050  Biso   1.000  O
  O39      1.0000 0.94660  0.73620  0.43050  Biso   1.000  O
  O40      1.0000 0.01380  0.19660  0.68050  Biso   1.000  O
  O41      1.0000 0.97460  0.10980  0.55170  Biso   1.000  O
  O42      1.0000 0.64020  0.22460  0.80170  Biso   1.000  O
  O43      1.0000 0.52540  0.89020  0.05170  Biso   1.000  O
  O44      1.0000 0.85980  0.77540  0.30170  Biso   1.000  O
  O45      1.0000 0.47460  0.60980  0.05170  Biso   1.000  O
  O46      1.0000 0.14020  0.72460  0.30170  Biso   1.000  O
  O47      1.0000 0.02540  0.39020  0.55170  Biso   1.000  O
  O48      1.0000 0.35980  0.27540  0.80170  Biso   1.000  O
  O49      1.0000 0.02540  0.89020  0.44830  Biso   1.000  O
  O50      1.0000 0.85980  0.27540  0.69830  Biso   1.000  O
  O51      1.0000 0.47460  0.10980  0.94830  Biso   1.000  O
  O52      1.0000 0.64020  0.72460  0.19830  Biso   1.000  O
  O53      1.0000 0.52540  0.39020  0.94830  Biso   1.000  O
  O54      1.0000 0.35980  0.77540  0.19830  Biso   1.000  O
  O55      1.0000 0.97460  0.60980  0.44830  Biso   1.000  O
  O56      1.0000 0.14020  0.22460  0.69830  Biso   1.000  O
  O57      1.0000 0.84060  0.26980  0.53010  Biso   1.000  O
  O58      1.0000 0.48020  0.09060  0.78010  Biso   1.000  O
  O59      1.0000 0.65940  0.73020  0.03010  Biso   1.000  O
  O60      1.0000 0.01980  0.90940  0.28010  Biso   1.000  O
  O61      1.0000 0.34060  0.76980  0.03010  Biso   1.000  O
  O62      1.0000 0.98020  0.59060  0.28010  Biso   1.000  O
  O63      1.0000 0.15940  0.23020  0.53010  Biso   1.000  O
  O64      1.0000 0.51980  0.40940  0.78010  Biso   1.000  O
  O65      1.0000 0.15940  0.73020  0.46990  Biso   1.000  O
  O66      1.0000 0.01980  0.40940  0.71990  Biso   1.000  O
  O67      1.0000 0.34060  0.26980  0.96990  Biso   1.000  O
  O68      1.0000 0.48020  0.59060  0.21990  Biso   1.000  O
  O69      1.0000 0.65940  0.23020  0.96990  Biso   1.000  O
  O70      1.0000 0.51980  0.90940  0.21990  Biso   1.000  O
  O71      1.0000 0.84060  0.76980  0.46990  Biso   1.000  O
  O72      1.0000 0.98020  0.09060  0.71990  Biso   1.000  O
  O73      1.0000 0.86660  0.15860  0.52910  Biso   1.000  O
  O74      1.0000 0.59140  0.11660  0.77910  Biso   1.000  O
  O75      1.0000 0.63340  0.84140  0.02910  Biso   1.000  O
  O76      1.0000 0.90860  0.88340  0.27910  Biso   1.000  O
  O77      1.0000 0.36660  0.65860  0.02910  Biso   1.000  O
  O78      1.0000 0.09140  0.61660  0.27910  Biso   1.000  O
  O79      1.0000 0.13340  0.34140  0.52910  Biso   1.000  O
  O80      1.0000 0.40860  0.38340  0.77910  Biso   1.000  O
  O81      1.0000 0.13340  0.84140  0.47090  Biso   1.000  O
  O82      1.0000 0.90860  0.38340  0.72090  Biso   1.000  O
  O83      1.0000 0.36660  0.15860  0.97090  Biso   1.000  O
  O84      1.0000 0.59140  0.61660  0.22090  Biso   1.000  O
  O85      1.0000 0.63340  0.34140  0.97090  Biso   1.000  O
  O86      1.0000 0.40860  0.88340  0.22090  Biso   1.000  O
  O87      1.0000 0.86660  0.65860  0.47090  Biso   1.000  O
  O88      1.0000 0.09140  0.11660  0.72090  Biso   1.000  O
  O89      1.0000 0.86320  0.34100  0.39670  Biso   1.000  O
  O90      1.0000 0.40900  0.11320  0.64670  Biso   1.000  O
  O91      1.0000 0.63680  0.65900  0.89670  Biso   1.000  O
  O92      1.0000 0.09100  0.88680  0.14670  Biso   1.000  O
  O93      1.0000 0.36320  0.84100  0.89670  Biso   1.000  O
  O94      1.0000 0.90900  0.61320  0.14670  Biso   1.000  O
  O95      1.0000 0.13680  0.15900  0.39670  Biso   1.000  O
  O96      1.0000 0.59100  0.38680  0.64670  Biso   1.000  O
  O97      1.0000 0.13680  0.65900  0.60330  Biso   1.000  O
  O98      1.0000 0.09100  0.38680  0.85330  Biso   1.000  O
  O99      1.0000 0.36320  0.34100  0.10330  Biso   1.000  O
  O100     1.0000 0.40900  0.61320  0.35330  Biso   1.000  O
  O101     1.0000 0.63680  0.15900  0.10330  Biso   1.000  O
  O102     1.0000 0.59100  0.88680  0.35330  Biso   1.000  O
  O103     1.0000 0.86320  0.84100  0.60330  Biso   1.000  O
  O104     1.0000 0.90900  0.11320  0.85330  Biso   1.000  O
  O105     1.0000 0.92180  0.10870  0.39470  Biso   1.000  O
  O106     1.0000 0.64130  0.17180  0.64470  Biso   1.000  O
  O107     1.0000 0.57820  0.89130  0.89470  Biso   1.000  O
  O108     1.0000 0.85870  0.82820  0.14470  Biso   1.000  O
  O109     1.0000 0.42180  0.60870  0.89470  Biso   1.000  O
  O110     1.0000 0.14130  0.67180  0.14470  Biso   1.000  O
  O111     1.0000 0.07820  0.39130  0.39470  Biso   1.000  O
  O112     1.0000 0.35870  0.32820  0.64470  Biso   1.000  O
  O113     1.0000 0.07820  0.89130  0.60530  Biso   1.000  O
  O114     1.0000 0.85870  0.32820  0.85530  Biso   1.000  O
  O115     1.0000 0.42180  0.10870  0.10530  Biso   1.000  O
  O116     1.0000 0.64130  0.67180  0.35530  Biso   1.000  O
  O117     1.0000 0.57820  0.39130  0.10530  Biso   1.000  O
  O118     1.0000 0.35870  0.82820  0.35530  Biso   1.000  O
  O119     1.0000 0.92180  0.60870  0.60530  Biso   1.000  O
  O120     1.0000 0.14130  0.17180  0.85530  Biso   1.000  O
  O121     1.0000 0.91990  0.23080  0.41240  Biso   1.000  O
  O122     1.0000 0.51920  0.16990  0.66240  Biso   1.000  O
  O123     1.0000 0.58010  0.76920  0.91240  Biso   1.000  O
  O124     1.0000 0.98080  0.83010  0.16240  Biso   1.000  O
  O125     1.0000 0.41990  0.73080  0.91240  Biso   1.000  O
  O126     1.0000 0.01920  0.66990  0.16240  Biso   1.000  O
  O127     1.0000 0.08010  0.26920  0.41240  Biso   1.000  O
  O128     1.0000 0.48080  0.33010  0.66240  Biso   1.000  O
  O129     1.0000 0.08010  0.76920  0.58760  Biso   1.000  O
  O130     1.0000 0.98080  0.33010  0.83760  Biso   1.000  O
  O131     1.0000 0.41990  0.23080  0.08760  Biso   1.000  O
  O132     1.0000 0.51920  0.66990  0.33760  Biso   1.000  O
  O133     1.0000 0.58010  0.26920  0.08760  Biso   1.000  O
  O134     1.0000 0.48080  0.83010  0.33760  Biso   1.000  O
  O135     1.0000 0.91990  0.73080  0.58760  Biso   1.000  O
  O136     1.0000 0.01920  0.16990  0.83760  Biso   1.000  O
  O137     1.0000 0.98290  0.32010  0.43370  Biso   1.000  O
  O138     1.0000 0.42990  0.23290  0.68370  Biso   1.000  O
  O139     1.0000 0.51710  0.67990  0.93370  Biso   1.000  O
  O140     1.0000 0.07010  0.76710  0.18370  Biso   1.000  O
  O141     1.0000 0.48290  0.82010  0.93370  Biso   1.000  O
  O142     1.0000 0.92990  0.73290  0.18370  Biso   1.000  O
  O143     1.0000 0.01710  0.17990  0.43370  Biso   1.000  O
  O144     1.0000 0.57010  0.26710  0.68370  Biso   1.000  O
  O145     1.0000 0.01710  0.67990  0.56630  Biso   1.000  O
  O146     1.0000 0.07010  0.26710  0.81630  Biso   1.000  O
  O147     1.0000 0.48290  0.32010  0.06630  Biso   1.000  O
  O148     1.0000 0.42990  0.73290  0.31630  Biso   1.000  O
  O149     1.0000 0.51710  0.17990  0.06630  Biso   1.000  O
  O150     1.0000 0.57010  0.76710  0.31630  Biso   1.000  O
  O151     1.0000 0.98290  0.82010  0.56630  Biso   1.000  O
  O152     1.0000 0.92990  0.23290  0.81630  Biso   1.000  O
  O153     1.0000 0.94530  0.47000  0.61230  Biso   1.000  O
  O154     1.0000 0.28000  0.19530  0.86230  Biso   1.000  O
  O155     1.0000 0.55470  0.53000  0.11230  Biso   1.000  O
  O156     1.0000 0.22000  0.80470  0.36230  Biso   1.000  O
  O157     1.0000 0.44530  0.97000  0.11230  Biso   1.000  O
  O158     1.0000 0.78000  0.69530  0.36230  Biso   1.000  O
  O159     1.0000 0.05470  0.03000  0.61230  Biso   1.000  O
  O160     1.0000 0.72000  0.30470  0.86230  Biso   1.000  O
  O161     1.0000 0.05470  0.53000  0.38770  Biso   1.000  O
  O162     1.0000 0.22000  0.30470  0.63770  Biso   1.000  O
  O163     1.0000 0.44530  0.47000  0.88770  Biso   1.000  O
  O164     1.0000 0.28000  0.69530  0.13770  Biso   1.000  O
  O165     1.0000 0.55470  0.03000  0.88770  Biso   1.000  O
  O166     1.0000 0.72000  0.80470  0.13770  Biso   1.000  O
  O167     1.0000 0.94530  0.97000  0.38770  Biso   1.000  O
  O168     1.0000 0.78000  0.19530  0.63770  Biso   1.000  O
  N1       1.0000 0.07690  0.20520  0.12720  Biso   1.000  N
  N2       1.0000 0.54480  0.32690  0.37720  Biso   1.000  N
  N3       1.0000 0.42310  0.79480  0.62720  Biso   1.000  N
  N4       1.0000 0.95520  0.67310  0.87720  Biso   1.000  N
  N5       1.0000 0.57690  0.70520  0.62720  Biso   1.000  N
  N6       1.0000 0.04480  0.82690  0.87720  Biso   1.000  N
  N7       1.0000 0.92310  0.29480  0.12720  Biso   1.000  N
  N8       1.0000 0.45520  0.17310  0.37720  Biso   1.000  N
  N9       1.0000 0.92310  0.79480  0.87280  Biso   1.000  N
  N10      1.0000 0.95520  0.17310  0.12280  Biso   1.000  N
  N11      1.0000 0.57690  0.20520  0.37280  Biso   1.000  N
  N12      1.0000 0.54480  0.82690  0.62280  Biso   1.000  N
  N13      1.0000 0.42310  0.29480  0.37280  Biso   1.000  N
  N14      1.0000 0.45520  0.67310  0.62280  Biso   1.000  N
  N15      1.0000 0.07690  0.70520  0.87280  Biso   1.000  N
  N16      1.0000 0.04480  0.32690  0.12280  Biso   1.000  N
  N17      1.0000 0.24140  0.85600  0.09230  Biso   1.000  N
  N18      1.0000 0.89400  0.49140  0.34230  Biso   1.000  N
  N19      1.0000 0.25860  0.14400  0.59230  Biso   1.000  N
  N20      1.0000 0.60600  0.50860  0.84230  Biso   1.000  N
  N21      1.0000 0.74140  0.35600  0.59230  Biso   1.000  N
  N22      1.0000 0.39400  0.99140  0.84230  Biso   1.000  N
  N23      1.0000 0.75860  0.64400  0.09230  Biso   1.000  N
  N24      1.0000 0.10600  0.00860  0.34230  Biso   1.000  N
  N25      1.0000 0.75860  0.14400  0.90770  Biso   1.000  N
  N26      1.0000 0.60600  0.00860  0.15770  Biso   1.000  N
  N27      1.0000 0.74140  0.85600  0.40770  Biso   1.000  N
  N28      1.0000 0.89400  0.99140  0.65770  Biso   1.000  N
  N29      1.0000 0.25860  0.64400  0.40770  Biso   1.000  N
  N30      1.0000 0.10600  0.50860  0.65770  Biso   1.000  N
  N31      1.0000 0.24140  0.35600  0.90770  Biso   1.000  N
  N32      1.0000 0.39400  0.49140  0.15770  Biso   1.000  N
  N33      1.0000 0.15880  0.16160  0.08770  Biso   1.000  N
  N34      1.0000 0.58840  0.40880  0.33770  Biso   1.000  N
  N35      1.0000 0.34120  0.83840  0.58770  Biso   1.000  N
  N36      1.0000 0.91160  0.59120  0.83770  Biso   1.000  N
  N37      1.0000 0.65880  0.66160  0.58770  Biso   1.000  N
  N38      1.0000 0.08840  0.90880  0.83770  Biso   1.000  N
  N39      1.0000 0.84120  0.33840  0.08770  Biso   1.000  N
  N40      1.0000 0.41160  0.09120  0.33770  Biso   1.000  N
  N41      1.0000 0.84120  0.83840  0.91230  Biso   1.000  N
  N42      1.0000 0.91160  0.09120  0.16230  Biso   1.000  N
  N43      1.0000 0.65880  0.16160  0.41230  Biso   1.000  N
  N44      1.0000 0.58840  0.90880  0.66230  Biso   1.000  N
  N45      1.0000 0.34120  0.33840  0.41230  Biso   1.000  N
  N46      1.0000 0.41160  0.59120  0.66230  Biso   1.000  N
  N47      1.0000 0.15880  0.66160  0.91230  Biso   1.000  N
  N48      1.0000 0.08840  0.40880  0.16230  Biso   1.000  N
  N49      1.0000 0.18600  0.78130  0.08200  Biso   1.000  N
  N50      1.0000 0.96870  0.43600  0.33200  Biso   1.000  N
  N51      1.0000 0.31400  0.21870  0.58200  Biso   1.000  N
  N52      1.0000 0.53130  0.56400  0.83200  Biso   1.000  N
  N53      1.0000 0.68600  0.28130  0.58200  Biso   1.000  N
  N54      1.0000 0.46870  0.93600  0.83200  Biso   1.000  N
  N55      1.0000 0.81400  0.71870  0.08200  Biso   1.000  N
  N56      1.0000 0.03130  0.06400  0.33200  Biso   1.000  N
  N57      1.0000 0.81400  0.21870  0.91800  Biso   1.000  N
  N58      1.0000 0.53130  0.06400  0.16800  Biso   1.000  N
  N59      1.0000 0.68600  0.78130  0.41800  Biso   1.000  N
  N60      1.0000 0.96870  0.93600  0.66800  Biso   1.000  N
  N61      1.0000 0.31400  0.71870  0.41800  Biso   1.000  N
  N62      1.0000 0.03130  0.56400  0.66800  Biso   1.000  N
  N63      1.0000 0.18600  0.28130  0.91800  Biso   1.000  N
  N64      1.0000 0.46870  0.43600  0.16800  Biso   1.000  N
  C1       1.0000 0.25800  0.96360  0.10240  Biso   1.000  C
  C2       1.0000 0.78640  0.50800  0.35240  Biso   1.000  C
  C3       1.0000 0.24200  0.03640  0.60240  Biso   1.000  C
  C4       1.0000 0.71360  0.49200  0.85240  Biso   1.000  C
  C5       1.0000 0.75800  0.46360  0.60240  Biso   1.000  C
  C6       1.0000 0.28640  0.00800  0.85240  Biso   1.000  C
  C7       1.0000 0.74200  0.53640  0.10240  Biso   1.000  C
  C8       1.0000 0.21360  0.99200  0.35240  Biso   1.000  C
  C9       1.0000 0.74200  0.03640  0.89760  Biso   1.000  C
  C10      1.0000 0.71360  0.99200  0.14760  Biso   1.000  C
  C11      1.0000 0.75800  0.96360  0.39760  Biso   1.000  C
  C12      1.0000 0.78640  0.00800  0.64760  Biso   1.000  C
  C13      1.0000 0.24200  0.53640  0.39760  Biso   1.000  C
  C14      1.0000 0.21360  0.49200  0.64760  Biso   1.000  C
  C15      1.0000 0.25800  0.46360  0.89760  Biso   1.000  C
  C16      1.0000 0.28640  0.50800  0.14760  Biso   1.000  C
  C17      1.0000 0.27820  0.90220  0.12770  Biso   1.000  C
  C18      1.0000 0.84780  0.52820  0.37770  Biso   1.000  C
  C19      1.0000 0.22180  0.09780  0.62770  Biso   1.000  C
  C20      1.0000 0.65220  0.47180  0.87770  Biso   1.000  C
  C21      1.0000 0.77820  0.40220  0.62770  Biso   1.000  C
  C22      1.0000 0.34780  0.02820  0.87770  Biso   1.000  C
  C23      1.0000 0.72180  0.59780  0.12770  Biso   1.000  C
  C24      1.0000 0.15220  0.97180  0.37770  Biso   1.000  C
  C25      1.0000 0.72180  0.09780  0.87230  Biso   1.000  C
  C26      1.0000 0.65220  0.97180  0.12230  Biso   1.000  C
  C27      1.0000 0.77820  0.90220  0.37230  Biso   1.000  C
  C28      1.0000 0.84780  0.02820  0.62230  Biso   1.000  C
  C29      1.0000 0.22180  0.59780  0.37230  Biso   1.000  C
  C30      1.0000 0.15220  0.47180  0.62230  Biso   1.000  C
  C31      1.0000 0.27820  0.40220  0.87230  Biso   1.000  C
  C32      1.0000 0.34780  0.52820  0.12230  Biso   1.000  C
  H1       1.0000 0.31810  0.89650  0.10870  Biso   1.000  H
  H2       1.0000 0.85350  0.56810  0.35870  Biso   1.000  H
  H3       1.0000 0.18190  0.10350  0.60870  Biso   1.000  H
  H4       1.0000 0.64650  0.43190  0.85870  Biso   1.000  H
  H5       1.0000 0.81810  0.39650  0.60870  Biso   1.000  H
  H6       1.0000 0.35350  0.06810  0.85870  Biso   1.000  H
  H7       1.0000 0.68190  0.60350  0.10870  Biso   1.000  H
  H8       1.0000 0.14650  0.93190  0.35870  Biso   1.000  H
  H9       1.0000 0.68190  0.10350  0.89130  Biso   1.000  H
  H10      1.0000 0.64650  0.93190  0.14130  Biso   1.000  H
  H11      1.0000 0.81810  0.89650  0.39130  Biso   1.000  H
  H12      1.0000 0.85350  0.06810  0.64130  Biso   1.000  H
  H13      1.0000 0.18190  0.60350  0.39130  Biso   1.000  H
  H14      1.0000 0.14650  0.43190  0.64130  Biso   1.000  H
  H15      1.0000 0.31810  0.39650  0.89130  Biso   1.000  H
  H16      1.0000 0.35350  0.56810  0.14130  Biso   1.000  H
  H17      1.0000 0.27790  0.89910  0.18870  Biso   1.000  H
  H18      1.0000 0.85090  0.52790  0.43870  Biso   1.000  H
  H19      1.0000 0.22210  0.10090  0.68870  Biso   1.000  H
  H20      1.0000 0.64910  0.47210  0.93870  Biso   1.000  H
  H21      1.0000 0.77790  0.39910  0.68870  Biso   1.000  H
  H22      1.0000 0.35090  0.02790  0.93870  Biso   1.000  H
  H23      1.0000 0.72210  0.60090  0.18870  Biso   1.000  H
  H24      1.0000 0.14910  0.97210  0.43870  Biso   1.000  H
  H25      1.0000 0.72210  0.10090  0.81130  Biso   1.000  H
  H26      1.0000 0.64910  0.97210  0.06130  Biso   1.000  H
  H27      1.0000 0.77790  0.89910  0.31130  Biso   1.000  H
  H28      1.0000 0.85090  0.02790  0.56130  Biso   1.000  H
  H29      1.0000 0.22210  0.60090  0.31130  Biso   1.000  H
  H30      1.0000 0.14910  0.47210  0.56130  Biso   1.000  H
  H31      1.0000 0.27790  0.39910  0.81130  Biso   1.000  H
  H32      1.0000 0.35090  0.52790  0.06130  Biso   1.000  H
  C33      1.0000 0.21480  0.81370  0.13530  Biso   1.000  C
  C34      1.0000 0.93630  0.46480  0.38530  Biso   1.000  C
  C35      1.0000 0.28520  0.18630  0.63530  Biso   1.000  C
  C36      1.0000 0.56370  0.53520  0.88530  Biso   1.000  C
  C37      1.0000 0.71480  0.31370  0.63530  Biso   1.000  C
  C38      1.0000 0.43630  0.96480  0.88530  Biso   1.000  C
  C39      1.0000 0.78520  0.68630  0.13530  Biso   1.000  C
  C40      1.0000 0.06370  0.03520  0.38530  Biso   1.000  C
  C41      1.0000 0.78520  0.18630  0.86470  Biso   1.000  C
  C42      1.0000 0.56370  0.03520  0.11470  Biso   1.000  C
  C43      1.0000 0.71480  0.81370  0.36470  Biso   1.000  C
  C44      1.0000 0.93630  0.96480  0.61470  Biso   1.000  C
  C45      1.0000 0.28520  0.68630  0.36470  Biso   1.000  C
  C46      1.0000 0.06370  0.53520  0.61470  Biso   1.000  C
  C47      1.0000 0.21480  0.31370  0.86470  Biso   1.000  C
  C48      1.0000 0.43630  0.46480  0.11470  Biso   1.000  C
  H33      1.0000 0.21660  0.80820  0.19330  Biso   1.000  H
  H34      1.0000 0.94180  0.46660  0.44330  Biso   1.000  H
  H35      1.0000 0.28340  0.19180  0.69330  Biso   1.000  H
  H36      1.0000 0.55820  0.53340  0.94330  Biso   1.000  H
  H37      1.0000 0.71660  0.30820  0.69330  Biso   1.000  H
  H38      1.0000 0.44180  0.96660  0.94330  Biso   1.000  H
  H39      1.0000 0.78340  0.69180  0.19330  Biso   1.000  H
  H40      1.0000 0.05820  0.03340  0.44330  Biso   1.000  H
  H41      1.0000 0.78340  0.19180  0.80670  Biso   1.000  H
  H42      1.0000 0.55820  0.03340  0.05670  Biso   1.000  H
  H43      1.0000 0.71660  0.80820  0.30670  Biso   1.000  H
  H44      1.0000 0.94180  0.96660  0.55670  Biso   1.000  H
  H45      1.0000 0.28340  0.69180  0.30670  Biso   1.000  H
  H46      1.0000 0.05820  0.53340  0.55670  Biso   1.000  H
  H47      1.0000 0.21660  0.30820  0.80670  Biso   1.000  H
  H48      1.0000 0.44180  0.46660  0.05670  Biso   1.000  H
  C49      1.0000 0.11290  0.19880  0.19650  Biso   1.000  C
  C50      1.0000 0.55120  0.36290  0.44650  Biso   1.000  C
  C51      1.0000 0.38710  0.80120  0.69650  Biso   1.000  C
  C52      1.0000 0.94880  0.63710  0.94650  Biso   1.000  C
  C53      1.0000 0.61290  0.69880  0.69650  Biso   1.000  C
  C54      1.0000 0.05120  0.86290  0.94650  Biso   1.000  C
  C55      1.0000 0.88710  0.30120  0.19650  Biso   1.000  C
  C56      1.0000 0.44880  0.13710  0.44650  Biso   1.000  C
  C57      1.0000 0.88710  0.80120  0.80350  Biso   1.000  C
  C58      1.0000 0.94880  0.13710  0.05350  Biso   1.000  C
  C59      1.0000 0.61290  0.19880  0.30350  Biso   1.000  C
  C60      1.0000 0.55120  0.86290  0.55350  Biso   1.000  C
  C61      1.0000 0.38710  0.30120  0.30350  Biso   1.000  C
  C62      1.0000 0.44880  0.63710  0.55350  Biso   1.000  C
  C63      1.0000 0.11290  0.69880  0.80350  Biso   1.000  C
  C64      1.0000 0.05120  0.36290  0.05350  Biso   1.000  C
  H49      1.0000 0.10450  0.21100  0.25120  Biso   1.000  H
  H50      1.0000 0.53900  0.35450  0.50120  Biso   1.000  H
  H51      1.0000 0.39550  0.78900  0.75120  Biso   1.000  H
  H52      1.0000 0.96100  0.64550  0.00120  Biso   1.000  H
  H53      1.0000 0.60450  0.71100  0.75120  Biso   1.000  H
  H54      1.0000 0.03900  0.85450  0.00120  Biso   1.000  H
  H55      1.0000 0.89550  0.28900  0.25120  Biso   1.000  H
  H56      1.0000 0.46100  0.14550  0.50120  Biso   1.000  H
  H57      1.0000 0.89550  0.78900  0.74880  Biso   1.000  H
  H58      1.0000 0.96100  0.14550  0.99880  Biso   1.000  H
  H59      1.0000 0.60450  0.21100  0.24880  Biso   1.000  H
  H60      1.0000 0.53900  0.85450  0.49880  Biso   1.000  H
  H61      1.0000 0.39550  0.28900  0.24880  Biso   1.000  H
  H62      1.0000 0.46100  0.64550  0.49880  Biso   1.000  H
  H63      1.0000 0.10450  0.71100  0.74880  Biso   1.000  H
  H64      1.0000 0.03900  0.35450  0.99880  Biso   1.000  H
  C65      1.0000 0.10680  0.18230  0.06330  Biso   1.000  C
  C66      1.0000 0.56770  0.35680  0.31330  Biso   1.000  C
  C67      1.0000 0.39320  0.81770  0.56330  Biso   1.000  C
  C68      1.0000 0.93230  0.64320  0.81330  Biso   1.000  C
  C69      1.0000 0.60680  0.68230  0.56330  Biso   1.000  C
  C70      1.0000 0.06770  0.85680  0.81330  Biso   1.000  C
  C71      1.0000 0.89320  0.31770  0.06330  Biso   1.000  C
  C72      1.0000 0.43230  0.14320  0.31330  Biso   1.000  C
  C73      1.0000 0.89320  0.81770  0.93670  Biso   1.000  C
  C74      1.0000 0.93230  0.14320  0.18670  Biso   1.000  C
  C75      1.0000 0.60680  0.18230  0.43670  Biso   1.000  C
  C76      1.0000 0.56770  0.85680  0.68670  Biso   1.000  C
  C77      1.0000 0.39320  0.31770  0.43670  Biso   1.000  C
  C78      1.0000 0.43230  0.64320  0.68670  Biso   1.000  C
  C79      1.0000 0.10680  0.68230  0.93670  Biso   1.000  C
  C80      1.0000 0.06770  0.35680  0.18670  Biso   1.000  C
  H65      1.0000 0.09320  0.18090  0.00810  Biso   1.000  H
  H66      1.0000 0.56910  0.34320  0.25810  Biso   1.000  H
  H67      1.0000 0.40680  0.81910  0.50810  Biso   1.000  H
  H68      1.0000 0.93090  0.65680  0.75810  Biso   1.000  H
  H69      1.0000 0.59320  0.68090  0.50810  Biso   1.000  H
  H70      1.0000 0.06910  0.84320  0.75810  Biso   1.000  H
  H71      1.0000 0.90680  0.31910  0.00810  Biso   1.000  H
  H72      1.0000 0.43090  0.15680  0.25810  Biso   1.000  H
  H73      1.0000 0.90680  0.81910  0.99190  Biso   1.000  H
  H74      1.0000 0.93090  0.15680  0.24190  Biso   1.000  H
  H75      1.0000 0.59320  0.18090  0.49190  Biso   1.000  H
  H76      1.0000 0.56910  0.84320  0.74190  Biso   1.000  H
  H77      1.0000 0.40680  0.31910  0.49190  Biso   1.000  H
  H78      1.0000 0.43090  0.65680  0.74190  Biso   1.000  H
  H79      1.0000 0.09320  0.68090  0.99190  Biso   1.000  H
  H80      1.0000 0.06910  0.34320  0.24190  Biso   1.000  H
  C81      1.0000 0.19510  0.80140  0.00240  Biso   1.000  C
  C82      1.0000 0.94860  0.44510  0.25240  Biso   1.000  C
  C83      1.0000 0.30490  0.19860  0.50240  Biso   1.000  C
  C84      1.0000 0.55140  0.55490  0.75240  Biso   1.000  C
  C85      1.0000 0.69510  0.30140  0.50240  Biso   1.000  C
  C86      1.0000 0.44860  0.94510  0.75240  Biso   1.000  C
  C87      1.0000 0.80490  0.69860  0.00240  Biso   1.000  C
  C88      1.0000 0.05140  0.05490  0.25240  Biso   1.000  C
  C89      1.0000 0.80490  0.19860  0.99760  Biso   1.000  C
  C90      1.0000 0.55140  0.05490  0.24760  Biso   1.000  C
  C91      1.0000 0.69510  0.80140  0.49760  Biso   1.000  C
  C92      1.0000 0.94860  0.94510  0.74760  Biso   1.000  C
  C93      1.0000 0.30490  0.69860  0.49760  Biso   1.000  C
  C94      1.0000 0.05140  0.55490  0.74760  Biso   1.000  C
  C95      1.0000 0.19510  0.30140  0.99760  Biso   1.000  C
  C96      1.0000 0.44860  0.44510  0.24760  Biso   1.000  C
  H81      1.0000 0.18000  0.78550  0.95300  Biso   1.000  H
  H82      1.0000 0.96450  0.43000  0.20300  Biso   1.000  H
  H83      1.0000 0.32000  0.21450  0.45300  Biso   1.000  H
  H84      1.0000 0.53550  0.57000  0.70300  Biso   1.000  H
  H85      1.0000 0.68000  0.28550  0.45300  Biso   1.000  H
  H86      1.0000 0.46450  0.93000  0.70300  Biso   1.000  H
  H87      1.0000 0.82000  0.71450  0.95300  Biso   1.000  H
  H88      1.0000 0.03550  0.07000  0.20300  Biso   1.000  H
  H89      1.0000 0.82000  0.21450  0.04700  Biso   1.000  H
  H90      1.0000 0.53550  0.07000  0.29700  Biso   1.000  H
  H91      1.0000 0.68000  0.78550  0.54700  Biso   1.000  H
  H92      1.0000 0.96450  0.93000  0.79700  Biso   1.000  H
  H93      1.0000 0.32000  0.71450  0.54700  Biso   1.000  H
  H94      1.0000 0.03550  0.57000  0.79700  Biso   1.000  H
  H95      1.0000 0.18000  0.28550  0.04700  Biso   1.000  H
  H96      1.0000 0.46450  0.43000  0.29700  Biso   1.000  H
  C97      1.0000 0.19970  0.97500  0.08650  Biso   1.000  C
  C98      1.0000 0.77500  0.44970  0.33650  Biso   1.000  C
  C99      1.0000 0.30030  0.02500  0.58650  Biso   1.000  C
  C100     1.0000 0.72500  0.55030  0.83650  Biso   1.000  C
  C101     1.0000 0.69970  0.47500  0.58650  Biso   1.000  C
  C102     1.0000 0.27500  0.94970  0.83650  Biso   1.000  C
  C103     1.0000 0.80030  0.52500  0.08650  Biso   1.000  C
  C104     1.0000 0.22500  0.05030  0.33650  Biso   1.000  C
  C105     1.0000 0.80030  0.02500  0.91350  Biso   1.000  C
  C106     1.0000 0.72500  0.05030  0.16350  Biso   1.000  C
  C107     1.0000 0.69970  0.97500  0.41350  Biso   1.000  C
  C108     1.0000 0.77500  0.94970  0.66350  Biso   1.000  C
  C109     1.0000 0.30030  0.52500  0.41350  Biso   1.000  C
  C110     1.0000 0.22500  0.55030  0.66350  Biso   1.000  C
  C111     1.0000 0.19970  0.47500  0.91350  Biso   1.000  C
  C112     1.0000 0.27500  0.44970  0.16350  Biso   1.000  C
  H97      1.0000 0.17210  0.94530  0.09090  Biso   1.000  H
  H98      1.0000 0.80470  0.42210  0.34090  Biso   1.000  H
  H99      1.0000 0.32790  0.05470  0.59090  Biso   1.000  H
  H100     1.0000 0.69530  0.57790  0.84090  Biso   1.000  H
  H101     1.0000 0.67210  0.44530  0.59090  Biso   1.000  H
  H102     1.0000 0.30470  0.92210  0.84090  Biso   1.000  H
  H103     1.0000 0.82790  0.55470  0.09090  Biso   1.000  H
  H104     1.0000 0.19530  0.07790  0.34090  Biso   1.000  H
  H105     1.0000 0.82790  0.05470  0.90910  Biso   1.000  H
  H106     1.0000 0.69530  0.07790  0.15910  Biso   1.000  H
  H107     1.0000 0.67210  0.94530  0.40910  Biso   1.000  H
  H108     1.0000 0.80470  0.92210  0.65910  Biso   1.000  H
  H109     1.0000 0.32790  0.55470  0.40910  Biso   1.000  H
  H110     1.0000 0.19530  0.57790  0.65910  Biso   1.000  H
  H111     1.0000 0.17210  0.44530  0.90910  Biso   1.000  H
  H112     1.0000 0.30470  0.42210  0.15910  Biso   1.000  H
  C113     1.0000 0.29790  0.00810  0.09850  Biso   1.000  C
  C114     1.0000 0.74190  0.54790  0.34850  Biso   1.000  C
  C115     1.0000 0.20210  0.99190  0.59850  Biso   1.000  C
  C116     1.0000 0.75810  0.45210  0.84850  Biso   1.000  C
  C117     1.0000 0.79790  0.50810  0.59850  Biso   1.000  C
  C118     1.0000 0.24190  0.04790  0.84850  Biso   1.000  C
  C119     1.0000 0.70210  0.49190  0.09850  Biso   1.000  C
  C120     1.0000 0.25810  0.95210  0.34850  Biso   1.000  C
  C121     1.0000 0.70210  0.99190  0.90150  Biso   1.000  C
  C122     1.0000 0.75810  0.95210  0.15150  Biso   1.000  C
  C123     1.0000 0.79790  0.00810  0.40150  Biso   1.000  C
  C124     1.0000 0.74190  0.04790  0.65150  Biso   1.000  C
  C125     1.0000 0.20210  0.49190  0.40150  Biso   1.000  C
  C126     1.0000 0.25810  0.45210  0.65150  Biso   1.000  C
  C127     1.0000 0.29790  0.50810  0.90150  Biso   1.000  C
  C128     1.0000 0.24190  0.54790  0.15150  Biso   1.000  C
  H113     1.0000 0.33710  0.00040  0.10960  Biso   1.000  H
  H114     1.0000 0.74960  0.58710  0.35960  Biso   1.000  H
  H115     1.0000 0.16290  0.99960  0.60960  Biso   1.000  H
  H116     1.0000 0.75040  0.41290  0.85960  Biso   1.000  H
  H117     1.0000 0.83710  0.50040  0.60960  Biso   1.000  H
  H118     1.0000 0.24960  0.08710  0.85960  Biso   1.000  H
  H119     1.0000 0.66290  0.49960  0.10960  Biso   1.000  H
  H120     1.0000 0.25040  0.91290  0.35960  Biso   1.000  H
  H121     1.0000 0.66290  0.99960  0.89040  Biso   1.000  H
  H122     1.0000 0.75040  0.91290  0.14040  Biso   1.000  H
  H123     1.0000 0.83710  0.00040  0.39040  Biso   1.000  H
  H124     1.0000 0.74960  0.08710  0.64040  Biso   1.000  H
  H125     1.0000 0.16290  0.49960  0.39040  Biso   1.000  H
  H126     1.0000 0.25040  0.41290  0.64040  Biso   1.000  H
  H127     1.0000 0.33710  0.50040  0.89040  Biso   1.000  H
  H128     1.0000 0.24960  0.58710  0.14040  Biso   1.000  H
  C129     1.0000 0.16320  0.17150  0.17100  Biso   1.000  C
  C130     1.0000 0.57850  0.41320  0.42100  Biso   1.000  C
  C131     1.0000 0.33680  0.82850  0.67100  Biso   1.000  C
  C132     1.0000 0.92150  0.58680  0.92100  Biso   1.000  C
  C133     1.0000 0.66320  0.67150  0.67100  Biso   1.000  C
  C134     1.0000 0.07850  0.91320  0.92100  Biso   1.000  C
  C135     1.0000 0.83680  0.32850  0.17100  Biso   1.000  C
  C136     1.0000 0.42150  0.08680  0.42100  Biso   1.000  C
  C137     1.0000 0.83680  0.82850  0.82900  Biso   1.000  C
  C138     1.0000 0.92150  0.08680  0.07900  Biso   1.000  C
  C139     1.0000 0.66320  0.17150  0.32900  Biso   1.000  C
  C140     1.0000 0.57850  0.91320  0.57900  Biso   1.000  C
  C141     1.0000 0.33680  0.32850  0.32900  Biso   1.000  C
  C142     1.0000 0.42150  0.58680  0.57900  Biso   1.000  C
  C143     1.0000 0.16320  0.67150  0.82900  Biso   1.000  C
  C144     1.0000 0.07850  0.41320  0.07900  Biso   1.000  C
  H129     1.0000 0.19470  0.16170  0.20520  Biso   1.000  H
  H130     1.0000 0.58830  0.44470  0.45520  Biso   1.000  H
  H131     1.0000 0.30530  0.83830  0.70520  Biso   1.000  H
  H132     1.0000 0.91170  0.55530  0.95520  Biso   1.000  H
  H133     1.0000 0.69470  0.66170  0.70520  Biso   1.000  H
  H134     1.0000 0.08830  0.94470  0.95520  Biso   1.000  H
  H135     1.0000 0.80530  0.33830  0.20520  Biso   1.000  H
  H136     1.0000 0.41170  0.05530  0.45520  Biso   1.000  H
  H137     1.0000 0.80530  0.83830  0.79480  Biso   1.000  H
  H138     1.0000 0.91170  0.05530  0.04480  Biso   1.000  H
  H139     1.0000 0.69470  0.16170  0.29480  Biso   1.000  H
  H140     1.0000 0.58830  0.94470  0.54480  Biso   1.000  H
  H141     1.0000 0.30530  0.33830  0.29480  Biso   1.000  H
  H142     1.0000 0.41170  0.55530  0.54480  Biso   1.000  H
  H143     1.0000 0.19470  0.66170  0.79480  Biso   1.000  H
  H144     1.0000 0.08830  0.44470  0.04480  Biso   1.000  H
  C145     1.0000 0.28080  0.06370  0.07840  Biso   1.000  C
  C146     1.0000 0.68630  0.53080  0.32840  Biso   1.000  C
  C147     1.0000 0.21920  0.93630  0.57840  Biso   1.000  C
  C148     1.0000 0.81370  0.46920  0.82840  Biso   1.000  C
  C149     1.0000 0.78080  0.56370  0.57840  Biso   1.000  C
  C150     1.0000 0.18630  0.03080  0.82840  Biso   1.000  C
  C151     1.0000 0.71920  0.43630  0.07840  Biso   1.000  C
  C152     1.0000 0.31370  0.96920  0.32840  Biso   1.000  C
  C153     1.0000 0.71920  0.93630  0.92160  Biso   1.000  C
  C154     1.0000 0.81370  0.96920  0.17160  Biso   1.000  C
  C155     1.0000 0.78080  0.06370  0.42160  Biso   1.000  C
  C156     1.0000 0.68630  0.03080  0.67160  Biso   1.000  C
  C157     1.0000 0.21920  0.43630  0.42160  Biso   1.000  C
  C158     1.0000 0.31370  0.46920  0.67160  Biso   1.000  C
  C159     1.0000 0.28080  0.56370  0.92160  Biso   1.000  C
  C160     1.0000 0.18630  0.53080  0.17160  Biso   1.000  C
  H145     1.0000 0.30830  0.09360  0.07630  Biso   1.000  H
  H146     1.0000 0.65640  0.55830  0.32630  Biso   1.000  H
  H147     1.0000 0.19170  0.90640  0.57630  Biso   1.000  H
  H148     1.0000 0.84360  0.44170  0.82630  Biso   1.000  H
  H149     1.0000 0.80830  0.59360  0.57630  Biso   1.000  H
  H150     1.0000 0.15640  0.05830  0.82630  Biso   1.000  H
  H151     1.0000 0.69170  0.40640  0.07630  Biso   1.000  H
  H152     1.0000 0.34360  0.94170  0.32630  Biso   1.000  H
  H153     1.0000 0.69170  0.90640  0.92370  Biso   1.000  H
  H154     1.0000 0.84360  0.94170  0.17370  Biso   1.000  H
  H155     1.0000 0.80830  0.09360  0.42370  Biso   1.000  H
  H156     1.0000 0.65640  0.05830  0.67370  Biso   1.000  H
  H157     1.0000 0.19170  0.40640  0.42370  Biso   1.000  H
  H158     1.0000 0.34360  0.44170  0.67370  Biso   1.000  H
  H159     1.0000 0.30830  0.59360  0.92370  Biso   1.000  H
  H160     1.0000 0.15640  0.55830  0.17370  Biso   1.000  H
  C161     1.0000 0.22950  0.84790  0.00830  Biso   1.000  C
  C162     1.0000 0.90210  0.47950  0.25830  Biso   1.000  C
  C163     1.0000 0.27050  0.15210  0.50830  Biso   1.000  C
  C164     1.0000 0.59790  0.52050  0.75830  Biso   1.000  C
  C165     1.0000 0.72950  0.34790  0.50830  Biso   1.000  C
  C166     1.0000 0.40210  0.97950  0.75830  Biso   1.000  C
  C167     1.0000 0.77050  0.65210  0.00830  Biso   1.000  C
  C168     1.0000 0.09790  0.02050  0.25830  Biso   1.000  C
  C169     1.0000 0.77050  0.15210  0.99170  Biso   1.000  C
  C170     1.0000 0.59790  0.02050  0.24170  Biso   1.000  C
  C171     1.0000 0.72950  0.84790  0.49170  Biso   1.000  C
  C172     1.0000 0.90210  0.97950  0.74170  Biso   1.000  C
  C173     1.0000 0.27050  0.65210  0.49170  Biso   1.000  C
  C174     1.0000 0.09790  0.52050  0.74170  Biso   1.000  C
  C175     1.0000 0.22950  0.34790  0.99170  Biso   1.000  C
  C176     1.0000 0.40210  0.47950  0.24170  Biso   1.000  C
  H161     1.0000 0.24300  0.87080  0.96390  Biso   1.000  H
  H162     1.0000 0.87920  0.49300  0.21390  Biso   1.000  H
  H163     1.0000 0.25700  0.12920  0.46390  Biso   1.000  H
  H164     1.0000 0.62080  0.50700  0.71390  Biso   1.000  H
  H165     1.0000 0.74300  0.37080  0.46390  Biso   1.000  H
  H166     1.0000 0.37920  0.99300  0.71390  Biso   1.000  H
  H167     1.0000 0.75700  0.62920  0.96390  Biso   1.000  H
  H168     1.0000 0.12080  0.00700  0.21390  Biso   1.000  H
  H169     1.0000 0.75700  0.12920  0.03610  Biso   1.000  H
  H170     1.0000 0.62080  0.00700  0.28610  Biso   1.000  H
  H171     1.0000 0.74300  0.87080  0.53610  Biso   1.000  H
  H172     1.0000 0.87920  0.99300  0.78610  Biso   1.000  H
  H173     1.0000 0.25700  0.62920  0.53610  Biso   1.000  H
  H174     1.0000 0.12080  0.50700  0.78610  Biso   1.000  H
  H175     1.0000 0.24300  0.37080  0.03610  Biso   1.000  H
  H176     1.0000 0.37920  0.49300  0.28610  Biso   1.000  H
  C177     1.0000 0.18260  0.03110  0.06400  Biso   1.000  C
  C178     1.0000 0.71890  0.43260  0.31400  Biso   1.000  C
  C179     1.0000 0.31740  0.96890  0.56400  Biso   1.000  C
  C180     1.0000 0.78110  0.56740  0.81400  Biso   1.000  C
  C181     1.0000 0.68260  0.53110  0.56400  Biso   1.000  C
  C182     1.0000 0.21890  0.93260  0.81400  Biso   1.000  C
  C183     1.0000 0.81740  0.46890  0.06400  Biso   1.000  C
  C184     1.0000 0.28110  0.06740  0.31400  Biso   1.000  C
  C185     1.0000 0.81740  0.96890  0.93600  Biso   1.000  C
  C186     1.0000 0.78110  0.06740  0.18600  Biso   1.000  C
  C187     1.0000 0.68260  0.03110  0.43600  Biso   1.000  C
  C188     1.0000 0.71890  0.93260  0.68600  Biso   1.000  C
  C189     1.0000 0.31740  0.46890  0.43600  Biso   1.000  C
  C190     1.0000 0.28110  0.56740  0.68600  Biso   1.000  C
  C191     1.0000 0.18260  0.53110  0.93600  Biso   1.000  C
  C192     1.0000 0.21890  0.43260  0.18600  Biso   1.000  C
  H177     1.0000 0.14360  0.03840  0.05080  Biso   1.000  H
  H178     1.0000 0.71160  0.39360  0.30080  Biso   1.000  H
  H179     1.0000 0.35640  0.96160  0.55080  Biso   1.000  H
  H180     1.0000 0.78840  0.60640  0.80080  Biso   1.000  H
  H181     1.0000 0.64360  0.53840  0.55080  Biso   1.000  H
  H182     1.0000 0.21160  0.89360  0.80080  Biso   1.000  H
  H183     1.0000 0.85640  0.46160  0.05080  Biso   1.000  H
  H184     1.0000 0.28840  0.10640  0.30080  Biso   1.000  H
  H185     1.0000 0.85640  0.96160  0.94920  Biso   1.000  H
  H186     1.0000 0.78840  0.10640  0.19920  Biso   1.000  H
  H187     1.0000 0.64360  0.03840  0.44920  Biso   1.000  H
  H188     1.0000 0.71160  0.89360  0.69920  Biso   1.000  H
  H189     1.0000 0.35640  0.46160  0.44920  Biso   1.000  H
  H190     1.0000 0.28840  0.60640  0.69920  Biso   1.000  H
  H191     1.0000 0.14360  0.53840  0.94920  Biso   1.000  H
  H192     1.0000 0.21160  0.39360  0.19920  Biso   1.000  H
  C193     1.0000 0.22220  0.07590  0.06090  Biso   1.000  C
  C194     1.0000 0.67410  0.47220  0.31090  Biso   1.000  C
  C195     1.0000 0.27780  0.92410  0.56090  Biso   1.000  C
  C196     1.0000 0.82590  0.52780  0.81090  Biso   1.000  C
  C197     1.0000 0.72220  0.57590  0.56090  Biso   1.000  C
  C198     1.0000 0.17410  0.97220  0.81090  Biso   1.000  C
  C199     1.0000 0.77780  0.42410  0.06090  Biso   1.000  C
  C200     1.0000 0.32590  0.02780  0.31090  Biso   1.000  C
  C201     1.0000 0.77780  0.92410  0.93910  Biso   1.000  C
  C202     1.0000 0.82590  0.02780  0.18910  Biso   1.000  C
  C203     1.0000 0.72220  0.07590  0.43910  Biso   1.000  C
  C204     1.0000 0.67410  0.97220  0.68910  Biso   1.000  C
  C205     1.0000 0.27780  0.42410  0.43910  Biso   1.000  C
  C206     1.0000 0.32590  0.52780  0.68910  Biso   1.000  C
  C207     1.0000 0.22220  0.57590  0.93910  Biso   1.000  C
  C208     1.0000 0.17410  0.47220  0.18910  Biso   1.000  C
  C209     1.0000 0.20380  0.13690  0.03380  Biso   1.000  C
  C210     1.0000 0.61310  0.45380  0.28380  Biso   1.000  C
  C211     1.0000 0.29620  0.86310  0.53380  Biso   1.000  C
  C212     1.0000 0.88690  0.54620  0.78380  Biso   1.000  C
  C213     1.0000 0.70380  0.63690  0.53380  Biso   1.000  C
  C214     1.0000 0.11310  0.95380  0.78380  Biso   1.000  C
  C215     1.0000 0.79620  0.36310  0.03380  Biso   1.000  C
  C216     1.0000 0.38690  0.04620  0.28380  Biso   1.000  C
  C217     1.0000 0.79620  0.86310  0.96620  Biso   1.000  C
  C218     1.0000 0.88690  0.04620  0.21620  Biso   1.000  C
  C219     1.0000 0.70380  0.13690  0.46620  Biso   1.000  C
  C220     1.0000 0.61310  0.95380  0.71620  Biso   1.000  C
  C221     1.0000 0.29620  0.36310  0.46620  Biso   1.000  C
  C222     1.0000 0.38690  0.54620  0.71620  Biso   1.000  C
  C223     1.0000 0.20380  0.63690  0.96620  Biso   1.000  C
  C224     1.0000 0.11310  0.45380  0.21620  Biso   1.000  C
  H193     1.0000 0.23770  0.16240  0.03450  Biso   1.000  H
  H194     1.0000 0.58760  0.48770  0.28450  Biso   1.000  H
  H195     1.0000 0.26230  0.83760  0.53450  Biso   1.000  H
  H196     1.0000 0.91240  0.51230  0.78450  Biso   1.000  H
  H197     1.0000 0.73770  0.66240  0.53450  Biso   1.000  H
  H198     1.0000 0.08760  0.98770  0.78450  Biso   1.000  H
  H199     1.0000 0.76230  0.33760  0.03450  Biso   1.000  H
  H200     1.0000 0.41240  0.01230  0.28450  Biso   1.000  H
  H201     1.0000 0.76230  0.83760  0.96550  Biso   1.000  H
  H202     1.0000 0.91240  0.01230  0.21550  Biso   1.000  H
  H203     1.0000 0.73770  0.16240  0.46550  Biso   1.000  H
  H204     1.0000 0.58760  0.98770  0.71550  Biso   1.000  H
  H205     1.0000 0.26230  0.33760  0.46550  Biso   1.000  H
  H206     1.0000 0.41240  0.51230  0.71550  Biso   1.000  H
  H207     1.0000 0.23770  0.66240  0.96550  Biso   1.000  H
  H208     1.0000 0.08760  0.48770  0.21550  Biso   1.000  H
  H209     1.0000 0.18940  0.13530  0.97630  Biso   1.000  H
  H210     1.0000 0.61470  0.43940  0.22630  Biso   1.000  H
  H211     1.0000 0.31060  0.86470  0.47630  Biso   1.000  H
  H212     1.0000 0.88530  0.56060  0.72630  Biso   1.000  H
  H213     1.0000 0.68940  0.63530  0.47630  Biso   1.000  H
  H214     1.0000 0.11470  0.93940  0.72630  Biso   1.000  H
  H215     1.0000 0.81060  0.36470  0.97630  Biso   1.000  H
  H216     1.0000 0.38530  0.06060  0.22630  Biso   1.000  H
  H217     1.0000 0.81060  0.86470  0.02370  Biso   1.000  H
  H218     1.0000 0.88530  0.06060  0.27370  Biso   1.000  H
  H219     1.0000 0.68940  0.13530  0.52370  Biso   1.000  H
  H220     1.0000 0.61470  0.93940  0.77370  Biso   1.000  H
  H221     1.0000 0.31060  0.36470  0.52370  Biso   1.000  H
  H222     1.0000 0.38530  0.56060  0.77370  Biso   1.000  H
  H223     1.0000 0.18940  0.63530  0.02370  Biso   1.000  H
  H224     1.0000 0.11470  0.43940  0.27370  Biso   1.000  H
  O169     1.0000 0.30960  0.20380  0.17610  Biso   1.000  O
  O170     1.0000 0.54620  0.55960  0.42610  Biso   1.000  O
  O171     1.0000 0.19040  0.79620  0.67610  Biso   1.000  O
  O172     1.0000 0.95380  0.44040  0.92610  Biso   1.000  O
  O173     1.0000 0.80960  0.70380  0.67610  Biso   1.000  O
  O174     1.0000 0.04620  0.05960  0.92610  Biso   1.000  O
  O175     1.0000 0.69040  0.29620  0.17610  Biso   1.000  O
  O176     1.0000 0.45380  0.94040  0.42610  Biso   1.000  O
  O177     1.0000 0.69040  0.79620  0.82390  Biso   1.000  O
  O178     1.0000 0.95380  0.94040  0.07390  Biso   1.000  O
  O179     1.0000 0.80960  0.20380  0.32390  Biso   1.000  O
  O180     1.0000 0.54620  0.05960  0.57390  Biso   1.000  O
  O181     1.0000 0.19040  0.29620  0.32390  Biso   1.000  O
  O182     1.0000 0.45380  0.44040  0.57390  Biso   1.000  O
  O183     1.0000 0.30960  0.70380  0.82390  Biso   1.000  O
  O184     1.0000 0.04620  0.55960  0.07390  Biso   1.000  O
  O185     1.0000 0.23900  0.28340  0.17600  Biso   1.000  O
  O186     1.0000 0.46660  0.48900  0.42600  Biso   1.000  O
  O187     1.0000 0.26100  0.71660  0.67600  Biso   1.000  O
  O188     1.0000 0.03340  0.51100  0.92600  Biso   1.000  O
  O189     1.0000 0.73900  0.78340  0.67600  Biso   1.000  O
  O190     1.0000 0.96660  0.98900  0.92600  Biso   1.000  O
  O191     1.0000 0.76100  0.21660  0.17600  Biso   1.000  O
  O192     1.0000 0.53340  0.01100  0.42600  Biso   1.000  O
  O193     1.0000 0.76100  0.71660  0.82400  Biso   1.000  O
  O194     1.0000 0.03340  0.01100  0.07400  Biso   1.000  O
  O195     1.0000 0.73900  0.28340  0.32400  Biso   1.000  O
  O196     1.0000 0.46660  0.98900  0.57400  Biso   1.000  O
  O197     1.0000 0.26100  0.21660  0.32400  Biso   1.000  O
  O198     1.0000 0.53340  0.51100  0.57400  Biso   1.000  O
  O199     1.0000 0.23900  0.78340  0.82400  Biso   1.000  O
  O200     1.0000 0.96660  0.48900  0.07400  Biso   1.000  O
