data_image0
_cell_length_a       18.51
_cell_length_b       18.51
_cell_length_c       30.287
_cell_angle_alpha    90
_cell_angle_beta     90
_cell_angle_gamma    120

_symmetry_space_group_name_H-M    "P 1"
_symmetry_int_tables_number       1

loop_
  _symmetry_equiv_pos_as_xyz
  'x, y, z'

loop_
  _atom_site_label
  _atom_site_occupancy
  _atom_site_fract_x
  _atom_site_fract_y
  _atom_site_fract_z
  _atom_site_thermal_displace_type
  _atom_site_B_iso_or_equiv
  _atom_site_type_symbol
  Cu1      1.0000 0.52526  0.47474  0.46325  Biso   1.000  Cu
  Cu2      1.0000 0.05052  0.52526  0.96325  Biso   1.000  Cu
  Cu3      1.0000 0.52526  0.05052  0.46325  Biso   1.000  Cu
  Cu4      1.0000 0.47474  0.52526  0.96325  Biso   1.000  Cu
  Cu5      1.0000 0.94948  0.47474  0.46325  Biso   1.000  Cu
  Cu6      1.0000 0.47474  0.94948  0.96325  Biso   1.000  Cu
  Cu7      1.0000 0.52526  0.47474  0.03675  Biso   1.000  Cu
  Cu8      1.0000 0.05052  0.52526  0.53675  Biso   1.000  Cu
  Cu9      1.0000 0.52526  0.05052  0.03675  Biso   1.000  Cu
  Cu10     1.0000 0.47474  0.52526  0.53675  Biso   1.000  Cu
  Cu11     1.0000 0.94948  0.47474  0.03675  Biso   1.000  Cu
  Cu12     1.0000 0.47474  0.94948  0.53675  Biso   1.000  Cu
  Cu13     1.0000 0.66489  0.75721  0.25000  Biso   1.000  Cu
  Cu14     1.0000 0.90768  0.66489  0.75000  Biso   1.000  Cu
  Cu15     1.0000 0.24279  0.90768  0.25000  Biso   1.000  Cu
  Cu16     1.0000 0.33511  0.24279  0.75000  Biso   1.000  Cu
  Cu17     1.0000 0.09232  0.33511  0.25000  Biso   1.000  Cu
  Cu18     1.0000 0.75721  0.09232  0.75000  Biso   1.000  Cu
  Cu19     1.0000 0.24279  0.33511  0.25000  Biso   1.000  Cu
  Cu20     1.0000 0.90768  0.24279  0.75000  Biso   1.000  Cu
  Cu21     1.0000 0.66489  0.90768  0.25000  Biso   1.000  Cu
  Cu22     1.0000 0.75721  0.66489  0.75000  Biso   1.000  Cu
  Cu23     1.0000 0.09232  0.75721  0.25000  Biso   1.000  Cu
  Cu24     1.0000 0.33511  0.09232  0.75000  Biso   1.000  Cu
  O1       1.0000 0.51840  0.62830  0.50290  Biso   1.000  O
  O2       1.0000 0.89010  0.51840  0.00290  Biso   1.000  O
  O3       1.0000 0.37170  0.89010  0.50290  Biso   1.000  O
  O4       1.0000 0.48160  0.37170  0.00290  Biso   1.000  O
  O5       1.0000 0.10990  0.48160  0.50290  Biso   1.000  O
  O6       1.0000 0.62830  0.10990  0.00290  Biso   1.000  O
  O7       1.0000 0.37170  0.48160  0.99710  Biso   1.000  O
  O8       1.0000 0.89010  0.37170  0.49710  Biso   1.000  O
  O9       1.0000 0.51840  0.89010  0.99710  Biso   1.000  O
  O10      1.0000 0.62830  0.51840  0.49710  Biso   1.000  O
  O11      1.0000 0.10990  0.62830  0.99710  Biso   1.000  O
  O12      1.0000 0.48160  0.10990  0.49710  Biso   1.000  O
  O13      1.0000 0.48160  0.37170  0.49710  Biso   1.000  O
  O14      1.0000 0.10990  0.48160  0.99710  Biso   1.000  O
  O15      1.0000 0.62830  0.10990  0.49710  Biso   1.000  O
  O16      1.0000 0.51840  0.62830  0.99710  Biso   1.000  O
  O17      1.0000 0.89010  0.51840  0.49710  Biso   1.000  O
  O18      1.0000 0.37170  0.89010  0.99710  Biso   1.000  O
  O19      1.0000 0.62830  0.51840  0.00290  Biso   1.000  O
  O20      1.0000 0.10990  0.62830  0.50290  Biso   1.000  O
  O21      1.0000 0.48160  0.10990  0.00290  Biso   1.000  O
  O22      1.0000 0.37170  0.48160  0.50290  Biso   1.000  O
  O23      1.0000 0.89010  0.37170  0.00290  Biso   1.000  O
  O24      1.0000 0.51840  0.89010  0.50290  Biso   1.000  O
  O25      1.0000 0.66820  0.64530  0.25000  Biso   1.000  O
  O26      1.0000 0.02290  0.66820  0.75000  Biso   1.000  O
  O27      1.0000 0.35470  0.02290  0.25000  Biso   1.000  O
  O28      1.0000 0.33180  0.35470  0.75000  Biso   1.000  O
  O29      1.0000 0.97710  0.33180  0.25000  Biso   1.000  O
  O30      1.0000 0.64530  0.97710  0.75000  Biso   1.000  O
  O31      1.0000 0.35470  0.33180  0.25000  Biso   1.000  O
  O32      1.0000 0.02290  0.35470  0.75000  Biso   1.000  O
  O33      1.0000 0.66820  0.02290  0.25000  Biso   1.000  O
  O34      1.0000 0.64530  0.66820  0.75000  Biso   1.000  O
  O35      1.0000 0.97710  0.64530  0.25000  Biso   1.000  O
  O36      1.0000 0.33180  0.97710  0.75000  Biso   1.000  O
  O37      1.0000 0.65690  0.76750  0.31260  Biso   1.000  O
  O38      1.0000 0.88940  0.65690  0.81260  Biso   1.000  O
  O39      1.0000 0.23250  0.88940  0.31260  Biso   1.000  O
  O40      1.0000 0.34310  0.23250  0.81260  Biso   1.000  O
  O41      1.0000 0.11060  0.34310  0.31260  Biso   1.000  O
  O42      1.0000 0.76750  0.11060  0.81260  Biso   1.000  O
  O43      1.0000 0.23250  0.34310  0.18740  Biso   1.000  O
  O44      1.0000 0.88940  0.23250  0.68740  Biso   1.000  O
  O45      1.0000 0.65690  0.88940  0.18740  Biso   1.000  O
  O46      1.0000 0.76750  0.65690  0.68740  Biso   1.000  O
  O47      1.0000 0.11060  0.76750  0.18740  Biso   1.000  O
  O48      1.0000 0.34310  0.11060  0.68740  Biso   1.000  O
  O49      1.0000 0.34310  0.23250  0.68740  Biso   1.000  O
  O50      1.0000 0.11060  0.34310  0.18740  Biso   1.000  O
  O51      1.0000 0.76750  0.11060  0.68740  Biso   1.000  O
  O52      1.0000 0.65690  0.76750  0.18740  Biso   1.000  O
  O53      1.0000 0.88940  0.65690  0.68740  Biso   1.000  O
  O54      1.0000 0.23250  0.88940  0.18740  Biso   1.000  O
  O55      1.0000 0.76750  0.65690  0.81260  Biso   1.000  O
  O56      1.0000 0.11060  0.76750  0.31260  Biso   1.000  O
  O57      1.0000 0.34310  0.11060  0.81260  Biso   1.000  O
  O58      1.0000 0.23250  0.34310  0.31260  Biso   1.000  O
  O59      1.0000 0.88940  0.23250  0.81260  Biso   1.000  O
  O60      1.0000 0.65690  0.88940  0.31260  Biso   1.000  O
  O61      1.0000 0.56160  0.58880  0.44230  Biso   1.000  O
  O62      1.0000 0.97280  0.56160  0.94230  Biso   1.000  O
  O63      1.0000 0.41120  0.97280  0.44230  Biso   1.000  O
  O64      1.0000 0.43840  0.41120  0.94230  Biso   1.000  O
  O65      1.0000 0.02720  0.43840  0.44230  Biso   1.000  O
  O66      1.0000 0.58880  0.02720  0.94230  Biso   1.000  O
  O67      1.0000 0.41120  0.43840  0.05770  Biso   1.000  O
  O68      1.0000 0.97280  0.41120  0.55770  Biso   1.000  O
  O69      1.0000 0.56160  0.97280  0.05770  Biso   1.000  O
  O70      1.0000 0.58880  0.56160  0.55770  Biso   1.000  O
  O71      1.0000 0.02720  0.58880  0.05770  Biso   1.000  O
  O72      1.0000 0.43840  0.02720  0.55770  Biso   1.000  O
  O73      1.0000 0.43840  0.41120  0.55770  Biso   1.000  O
  O74      1.0000 0.02720  0.43840  0.05770  Biso   1.000  O
  O75      1.0000 0.58880  0.02720  0.55770  Biso   1.000  O
  O76      1.0000 0.56160  0.58880  0.05770  Biso   1.000  O
  O77      1.0000 0.97280  0.56160  0.55770  Biso   1.000  O
  O78      1.0000 0.41120  0.97280  0.05770  Biso   1.000  O
  O79      1.0000 0.58880  0.56160  0.94230  Biso   1.000  O
  O80      1.0000 0.02720  0.58880  0.44230  Biso   1.000  O
  O81      1.0000 0.43840  0.02720  0.94230  Biso   1.000  O
  O82      1.0000 0.41120  0.43840  0.44230  Biso   1.000  O
  O83      1.0000 0.97280  0.41120  0.94230  Biso   1.000  O
  O84      1.0000 0.56160  0.97280  0.44230  Biso   1.000  O
  O85      1.0000 0.78400  0.83140  0.25000  Biso   1.000  O
  O86      1.0000 0.95260  0.78400  0.75000  Biso   1.000  O
  O87      1.0000 0.16860  0.95260  0.25000  Biso   1.000  O
  O88      1.0000 0.21600  0.16860  0.75000  Biso   1.000  O
  O89      1.0000 0.04740  0.21600  0.25000  Biso   1.000  O
  O90      1.0000 0.83140  0.04740  0.75000  Biso   1.000  O
  O91      1.0000 0.16860  0.21600  0.25000  Biso   1.000  O
  O92      1.0000 0.95260  0.16860  0.75000  Biso   1.000  O
  O93      1.0000 0.78400  0.95260  0.25000  Biso   1.000  O
  O94      1.0000 0.83140  0.78400  0.75000  Biso   1.000  O
  O95      1.0000 0.04740  0.83140  0.25000  Biso   1.000  O
  O96      1.0000 0.21600  0.04740  0.75000  Biso   1.000  O
  O97      1.0000 0.54510  0.70600  0.25000  Biso   1.000  O
  O98      1.0000 0.83910  0.54510  0.75000  Biso   1.000  O
  O99      1.0000 0.29400  0.83910  0.25000  Biso   1.000  O
  O100     1.0000 0.45490  0.29400  0.75000  Biso   1.000  O
  O101     1.0000 0.16090  0.45490  0.25000  Biso   1.000  O
  O102     1.0000 0.70600  0.16090  0.75000  Biso   1.000  O
  O103     1.0000 0.29400  0.45490  0.25000  Biso   1.000  O
  O104     1.0000 0.83910  0.29400  0.75000  Biso   1.000  O
  O105     1.0000 0.54510  0.83910  0.25000  Biso   1.000  O
  O106     1.0000 0.70600  0.54510  0.75000  Biso   1.000  O
  O107     1.0000 0.16090  0.70600  0.25000  Biso   1.000  O
  O108     1.0000 0.45490  0.16090  0.75000  Biso   1.000  O
  C1       1.0000 0.81920  0.90960  0.25000  Biso   1.000  C
  C2       1.0000 0.90960  0.81920  0.75000  Biso   1.000  C
  C3       1.0000 0.09040  0.90960  0.25000  Biso   1.000  C
  C4       1.0000 0.18080  0.09040  0.75000  Biso   1.000  C
  C5       1.0000 0.09040  0.18080  0.25000  Biso   1.000  C
  C6       1.0000 0.90960  0.09040  0.75000  Biso   1.000  C
  C7       1.0000 0.95790  0.91580  0.25000  Biso   1.000  C
  C8       1.0000 0.04210  0.95790  0.75000  Biso   1.000  C
  C9       1.0000 0.08420  0.04210  0.25000  Biso   1.000  C
  C10      1.0000 0.04210  0.08420  0.75000  Biso   1.000  C
  C11      1.0000 0.95790  0.04210  0.25000  Biso   1.000  C
  C12      1.0000 0.91580  0.95790  0.75000  Biso   1.000  C
  H1       1.0000 0.92830  0.85660  0.25000  Biso   1.000  H
  H2       1.0000 0.07170  0.92830  0.75000  Biso   1.000  H
  H3       1.0000 0.14340  0.07170  0.25000  Biso   1.000  H
  H4       1.0000 0.07170  0.14340  0.75000  Biso   1.000  H
  H5       1.0000 0.92830  0.07170  0.25000  Biso   1.000  H
  H6       1.0000 0.85660  0.92830  0.75000  Biso   1.000  H
  C13      1.0000 0.51100  0.75550  0.25000  Biso   1.000  C
  C14      1.0000 0.75550  0.51100  0.75000  Biso   1.000  C
  C15      1.0000 0.24450  0.75550  0.25000  Biso   1.000  C
  C16      1.0000 0.48900  0.24450  0.75000  Biso   1.000  C
  C17      1.0000 0.24450  0.48900  0.25000  Biso   1.000  C
  C18      1.0000 0.75550  0.24450  0.75000  Biso   1.000  C
  C19      1.0000 0.54710  0.63910  0.46510  Biso   1.000  C
  C20      1.0000 0.90800  0.54710  0.96510  Biso   1.000  C
  C21      1.0000 0.36090  0.90800  0.46510  Biso   1.000  C
  C22      1.0000 0.45290  0.36090  0.96510  Biso   1.000  C
  C23      1.0000 0.09200  0.45290  0.46510  Biso   1.000  C
  C24      1.0000 0.63910  0.09200  0.96510  Biso   1.000  C
  C25      1.0000 0.36090  0.45290  0.03490  Biso   1.000  C
  C26      1.0000 0.90800  0.36090  0.53490  Biso   1.000  C
  C27      1.0000 0.54710  0.90800  0.03490  Biso   1.000  C
  C28      1.0000 0.63910  0.54710  0.53490  Biso   1.000  C
  C29      1.0000 0.09200  0.63910  0.03490  Biso   1.000  C
  C30      1.0000 0.45290  0.09200  0.53490  Biso   1.000  C
  C31      1.0000 0.45290  0.36090  0.53490  Biso   1.000  C
  C32      1.0000 0.09200  0.45290  0.03490  Biso   1.000  C
  C33      1.0000 0.63910  0.09200  0.53490  Biso   1.000  C
  C34      1.0000 0.54710  0.63910  0.03490  Biso   1.000  C
  C35      1.0000 0.90800  0.54710  0.53490  Biso   1.000  C
  C36      1.0000 0.36090  0.90800  0.03490  Biso   1.000  C
  C37      1.0000 0.63910  0.54710  0.96510  Biso   1.000  C
  C38      1.0000 0.09200  0.63910  0.46510  Biso   1.000  C
  C39      1.0000 0.45290  0.09200  0.96510  Biso   1.000  C
  C40      1.0000 0.36090  0.45290  0.46510  Biso   1.000  C
  C41      1.0000 0.90800  0.36090  0.96510  Biso   1.000  C
  C42      1.0000 0.54710  0.90800  0.46510  Biso   1.000  C
  C43      1.0000 0.91090  0.95540  0.25000  Biso   1.000  C
  C44      1.0000 0.95550  0.91090  0.75000  Biso   1.000  C
  C45      1.0000 0.04460  0.95550  0.25000  Biso   1.000  C
  C46      1.0000 0.08910  0.04460  0.75000  Biso   1.000  C
  C47      1.0000 0.04450  0.08910  0.25000  Biso   1.000  C
  C48      1.0000 0.95540  0.04450  0.75000  Biso   1.000  C
  C49      1.0000 0.55660  0.77830  0.46350  Biso   1.000  C
  C50      1.0000 0.77830  0.55660  0.96350  Biso   1.000  C
  C51      1.0000 0.22170  0.77830  0.46350  Biso   1.000  C
  C52      1.0000 0.44340  0.22170  0.96350  Biso   1.000  C
  C53      1.0000 0.22170  0.44340  0.46350  Biso   1.000  C
  C54      1.0000 0.77830  0.22170  0.96350  Biso   1.000  C
  C55      1.0000 0.22170  0.44340  0.03650  Biso   1.000  C
  C56      1.0000 0.77830  0.22170  0.53650  Biso   1.000  C
  C57      1.0000 0.55660  0.77830  0.03650  Biso   1.000  C
  C58      1.0000 0.77830  0.55660  0.53650  Biso   1.000  C
  C59      1.0000 0.22170  0.77830  0.03650  Biso   1.000  C
  C60      1.0000 0.44340  0.22170  0.53650  Biso   1.000  C
  H7       1.0000 0.53670  0.76840  0.49300  Biso   1.000  H
  H8       1.0000 0.76830  0.53670  0.99300  Biso   1.000  H
  H9       1.0000 0.23160  0.76830  0.49300  Biso   1.000  H
  H10      1.0000 0.46330  0.23160  0.99300  Biso   1.000  H
  H11      1.0000 0.23170  0.46330  0.49300  Biso   1.000  H
  H12      1.0000 0.76840  0.23170  0.99300  Biso   1.000  H
  H13      1.0000 0.23160  0.46330  0.00700  Biso   1.000  H
  H14      1.0000 0.76830  0.23160  0.50700  Biso   1.000  H
  H15      1.0000 0.53670  0.76830  0.00700  Biso   1.000  H
  H16      1.0000 0.76840  0.53670  0.50700  Biso   1.000  H
  H17      1.0000 0.23170  0.76840  0.00700  Biso   1.000  H
  H18      1.0000 0.46330  0.23170  0.50700  Biso   1.000  H
  C61      1.0000 0.60230  0.73460  0.40030  Biso   1.000  C
  C62      1.0000 0.86770  0.60230  0.90030  Biso   1.000  C
  C63      1.0000 0.26540  0.86770  0.40030  Biso   1.000  C
  C64      1.0000 0.39770  0.26540  0.90030  Biso   1.000  C
  C65      1.0000 0.13230  0.39770  0.40030  Biso   1.000  C
  C66      1.0000 0.73460  0.13230  0.90030  Biso   1.000  C
  C67      1.0000 0.26540  0.39770  0.09970  Biso   1.000  C
  C68      1.0000 0.86770  0.26540  0.59970  Biso   1.000  C
  C69      1.0000 0.60230  0.86770  0.09970  Biso   1.000  C
  C70      1.0000 0.73460  0.60230  0.59970  Biso   1.000  C
  C71      1.0000 0.13230  0.73460  0.09970  Biso   1.000  C
  C72      1.0000 0.39770  0.13230  0.59970  Biso   1.000  C
  C73      1.0000 0.39770  0.26540  0.59970  Biso   1.000  C
  C74      1.0000 0.13230  0.39770  0.09970  Biso   1.000  C
  C75      1.0000 0.73460  0.13230  0.59970  Biso   1.000  C
  C76      1.0000 0.60230  0.73460  0.09970  Biso   1.000  C
  C77      1.0000 0.86770  0.60230  0.59970  Biso   1.000  C
  C78      1.0000 0.26540  0.86770  0.09970  Biso   1.000  C
  C79      1.0000 0.73460  0.60230  0.90030  Biso   1.000  C
  C80      1.0000 0.13230  0.73460  0.40030  Biso   1.000  C
  C81      1.0000 0.39770  0.13230  0.90030  Biso   1.000  C
  C82      1.0000 0.26540  0.39770  0.40030  Biso   1.000  C
  C83      1.0000 0.86770  0.26540  0.90030  Biso   1.000  C
  C84      1.0000 0.60230  0.86770  0.40030  Biso   1.000  C
  H19      1.0000 0.61350  0.69570  0.38580  Biso   1.000  H
  H20      1.0000 0.91780  0.61350  0.88580  Biso   1.000  H
  H21      1.0000 0.30430  0.91780  0.38580  Biso   1.000  H
  H22      1.0000 0.38650  0.30430  0.88580  Biso   1.000  H
  H23      1.0000 0.08220  0.38650  0.38580  Biso   1.000  H
  H24      1.0000 0.69570  0.08220  0.88580  Biso   1.000  H
  H25      1.0000 0.30430  0.38650  0.11420  Biso   1.000  H
  H26      1.0000 0.91780  0.30430  0.61420  Biso   1.000  H
  H27      1.0000 0.61350  0.91780  0.11420  Biso   1.000  H
  H28      1.0000 0.69570  0.61350  0.61420  Biso   1.000  H
  H29      1.0000 0.08220  0.69570  0.11420  Biso   1.000  H
  H30      1.0000 0.38650  0.08220  0.61420  Biso   1.000  H
  H31      1.0000 0.38650  0.30430  0.61420  Biso   1.000  H
  H32      1.0000 0.08220  0.38650  0.11420  Biso   1.000  H
  H33      1.0000 0.69570  0.08220  0.61420  Biso   1.000  H
  H34      1.0000 0.61350  0.69570  0.11420  Biso   1.000  H
  H35      1.0000 0.91780  0.61350  0.61420  Biso   1.000  H
  H36      1.0000 0.30430  0.91780  0.11420  Biso   1.000  H
  H37      1.0000 0.69570  0.61350  0.88580  Biso   1.000  H
  H38      1.0000 0.08220  0.69570  0.38580  Biso   1.000  H
  H39      1.0000 0.38650  0.08220  0.88580  Biso   1.000  H
  H40      1.0000 0.30430  0.38650  0.38580  Biso   1.000  H
  H41      1.0000 0.91780  0.30430  0.88580  Biso   1.000  H
  H42      1.0000 0.61350  0.91780  0.38580  Biso   1.000  H
  C85      1.0000 0.41900  0.70960  0.25000  Biso   1.000  C
  C86      1.0000 0.70940  0.41900  0.75000  Biso   1.000  C
  C87      1.0000 0.29040  0.70940  0.25000  Biso   1.000  C
  C88      1.0000 0.58100  0.29040  0.75000  Biso   1.000  C
  C89      1.0000 0.29060  0.58100  0.25000  Biso   1.000  C
  C90      1.0000 0.70960  0.29060  0.75000  Biso   1.000  C
  C91      1.0000 0.37390  0.74800  0.25000  Biso   1.000  C
  C92      1.0000 0.62590  0.37390  0.75000  Biso   1.000  C
  C93      1.0000 0.25200  0.62590  0.25000  Biso   1.000  C
  C94      1.0000 0.62610  0.25200  0.75000  Biso   1.000  C
  C95      1.0000 0.37410  0.62610  0.25000  Biso   1.000  C
  C96      1.0000 0.74800  0.37410  0.75000  Biso   1.000  C
  H43      1.0000 0.40350  0.80700  0.25000  Biso   1.000  H
  H44      1.0000 0.59650  0.40350  0.75000  Biso   1.000  H
  H45      1.0000 0.19300  0.59650  0.25000  Biso   1.000  H
  H46      1.0000 0.59650  0.19300  0.75000  Biso   1.000  H
  H47      1.0000 0.40350  0.59650  0.25000  Biso   1.000  H
  H48      1.0000 0.80700  0.40350  0.75000  Biso   1.000  H
  O109     1.0000 0.56610  0.43390  0.40850  Biso   1.000  O
  O110     1.0000 0.13220  0.56610  0.90850  Biso   1.000  O
  O111     1.0000 0.56610  0.13220  0.40850  Biso   1.000  O
  O112     1.0000 0.43390  0.56610  0.90850  Biso   1.000  O
  O113     1.0000 0.86780  0.43390  0.40850  Biso   1.000  O
  O114     1.0000 0.43390  0.86780  0.90850  Biso   1.000  O
  O115     1.0000 0.56610  0.43390  0.09150  Biso   1.000  O
  O116     1.0000 0.13220  0.56610  0.59150  Biso   1.000  O
  O117     1.0000 0.56610  0.13220  0.09150  Biso   1.000  O
  O118     1.0000 0.43390  0.56610  0.59150  Biso   1.000  O
  O119     1.0000 0.86780  0.43390  0.09150  Biso   1.000  O
  O120     1.0000 0.43390  0.86780  0.59150  Biso   1.000  O
  C97      1.0000 0.61780  0.80890  0.37890  Biso   1.000  C
  C98      1.0000 0.80890  0.61780  0.87890  Biso   1.000  C
  C99      1.0000 0.19110  0.80890  0.37890  Biso   1.000  C
  C100     1.0000 0.38220  0.19110  0.87890  Biso   1.000  C
  C101     1.0000 0.19110  0.38220  0.37890  Biso   1.000  C
  C102     1.0000 0.80890  0.19110  0.87890  Biso   1.000  C
  C103     1.0000 0.19110  0.38220  0.12110  Biso   1.000  C
  C104     1.0000 0.80890  0.19110  0.62110  Biso   1.000  C
  C105     1.0000 0.61780  0.80890  0.12110  Biso   1.000  C
  C106     1.0000 0.80890  0.61780  0.62110  Biso   1.000  C
  C107     1.0000 0.19110  0.80890  0.12110  Biso   1.000  C
  C108     1.0000 0.38220  0.19110  0.62110  Biso   1.000  C
  C109     1.0000 0.57110  0.72020  0.44200  Biso   1.000  C
  C110     1.0000 0.85090  0.57110  0.94200  Biso   1.000  C
  C111     1.0000 0.27980  0.85090  0.44200  Biso   1.000  C
  C112     1.0000 0.42890  0.27980  0.94200  Biso   1.000  C
  C113     1.0000 0.14910  0.42890  0.44200  Biso   1.000  C
  C114     1.0000 0.72020  0.14910  0.94200  Biso   1.000  C
  C115     1.0000 0.27980  0.42890  0.05800  Biso   1.000  C
  C116     1.0000 0.85090  0.27980  0.55800  Biso   1.000  C
  C117     1.0000 0.57110  0.85090  0.05800  Biso   1.000  C
  C118     1.0000 0.72020  0.57110  0.55800  Biso   1.000  C
  C119     1.0000 0.14910  0.72020  0.05800  Biso   1.000  C
  C120     1.0000 0.42890  0.14910  0.55800  Biso   1.000  C
  C121     1.0000 0.42890  0.27980  0.55800  Biso   1.000  C
  C122     1.0000 0.14910  0.42890  0.05800  Biso   1.000  C
  C123     1.0000 0.72020  0.14910  0.55800  Biso   1.000  C
  C124     1.0000 0.57110  0.72020  0.05800  Biso   1.000  C
  C125     1.0000 0.85090  0.57110  0.55800  Biso   1.000  C
  C126     1.0000 0.27980  0.85090  0.05800  Biso   1.000  C
  C127     1.0000 0.72020  0.57110  0.94200  Biso   1.000  C
  C128     1.0000 0.14910  0.72020  0.44200  Biso   1.000  C
  C129     1.0000 0.42890  0.14910  0.94200  Biso   1.000  C
  C130     1.0000 0.27980  0.42890  0.44200  Biso   1.000  C
  C131     1.0000 0.85090  0.27980  0.94200  Biso   1.000  C
  C132     1.0000 0.57110  0.85090  0.44200  Biso   1.000  C
  C133     1.0000 0.64660  0.82330  0.33040  Biso   1.000  C
  C134     1.0000 0.82330  0.64660  0.83040  Biso   1.000  C
  C135     1.0000 0.17670  0.82330  0.33040  Biso   1.000  C
  C136     1.0000 0.35340  0.17670  0.83040  Biso   1.000  C
  C137     1.0000 0.17670  0.35340  0.33040  Biso   1.000  C
  C138     1.0000 0.82330  0.17670  0.83040  Biso   1.000  C
  C139     1.0000 0.17670  0.35340  0.16960  Biso   1.000  C
  C140     1.0000 0.82330  0.17670  0.66960  Biso   1.000  C
  C141     1.0000 0.64660  0.82330  0.16960  Biso   1.000  C
  C142     1.0000 0.82330  0.64660  0.66960  Biso   1.000  C
  C143     1.0000 0.17670  0.82330  0.16960  Biso   1.000  C
  C144     1.0000 0.35340  0.17670  0.66960  Biso   1.000  C
  Fe1      1.0000 0.00000  0.00000  0.50000  Biso   1.000  Fe
  Fe2      1.0000 0.00000  0.00000  0.00000  Biso   1.000  Fe
  S1       1.0000 0.74020  0.48050  0.35190  Biso   1.000  S
  S2       1.0000 0.25970  0.74020  0.85190  Biso   1.000  S
  S3       1.0000 0.51950  0.25970  0.35190  Biso   1.000  S
  S4       1.0000 0.25980  0.51950  0.85190  Biso   1.000  S
  S5       1.0000 0.74030  0.25980  0.35190  Biso   1.000  S
  S6       1.0000 0.48050  0.74030  0.85190  Biso   1.000  S
  S7       1.0000 0.51950  0.25980  0.14810  Biso   1.000  S
  S8       1.0000 0.25970  0.51950  0.64810  Biso   1.000  S
  S9       1.0000 0.74020  0.25970  0.14810  Biso   1.000  S
  S10      1.0000 0.48050  0.74020  0.64810  Biso   1.000  S
  S11      1.0000 0.74030  0.48050  0.14810  Biso   1.000  S
  S12      1.0000 0.25980  0.74030  0.64810  Biso   1.000  S
  N1       1.0000 0.00000  0.89150  0.50000  Biso   1.000  N
  N2       1.0000 0.10850  0.00000  0.00000  Biso   1.000  N
  N3       1.0000 0.10850  0.10850  0.50000  Biso   1.000  N
  N4       1.0000 0.00000  0.10850  0.00000  Biso   1.000  N
  N5       1.0000 0.89150  0.00000  0.50000  Biso   1.000  N
  N6       1.0000 0.89150  0.89150  0.00000  Biso   1.000  N
  N7       1.0000 0.00000  0.10850  0.50000  Biso   1.000  N
  N8       1.0000 0.89150  0.00000  0.00000  Biso   1.000  N
  N9       1.0000 0.89150  0.89150  0.50000  Biso   1.000  N
  N10      1.0000 0.00000  0.89150  0.00000  Biso   1.000  N
  N11      1.0000 0.10850  0.00000  0.50000  Biso   1.000  N
  N12      1.0000 0.10850  0.10850  0.00000  Biso   1.000  N
  N13      1.0000 0.93500  0.96800  0.44310  Biso   1.000  N
  N14      1.0000 0.96700  0.93500  0.94310  Biso   1.000  N
  N15      1.0000 0.03200  0.96700  0.44310  Biso   1.000  N
  N16      1.0000 0.06500  0.03200  0.94310  Biso   1.000  N
  N17      1.0000 0.03300  0.06500  0.44310  Biso   1.000  N
  N18      1.0000 0.96800  0.03300  0.94310  Biso   1.000  N
  N19      1.0000 0.03200  0.06500  0.05690  Biso   1.000  N
  N20      1.0000 0.96700  0.03200  0.55690  Biso   1.000  N
  N21      1.0000 0.93500  0.96700  0.05690  Biso   1.000  N
  N22      1.0000 0.96800  0.93500  0.55690  Biso   1.000  N
  N23      1.0000 0.03300  0.96800  0.05690  Biso   1.000  N
  N24      1.0000 0.06500  0.03300  0.55690  Biso   1.000  N
  C145     1.0000 0.89740  0.88880  0.42360  Biso   1.000  C
  C146     1.0000 0.00860  0.89740  0.92360  Biso   1.000  C
  C147     1.0000 0.11120  0.00860  0.42360  Biso   1.000  C
  C148     1.0000 0.10260  0.11120  0.92360  Biso   1.000  C
  C149     1.0000 0.99140  0.10260  0.42360  Biso   1.000  C
  C150     1.0000 0.88880  0.99140  0.92360  Biso   1.000  C
  C151     1.0000 0.11120  0.10260  0.07640  Biso   1.000  C
  C152     1.0000 0.00860  0.11120  0.57640  Biso   1.000  C
  C153     1.0000 0.89740  0.00860  0.07640  Biso   1.000  C
  C154     1.0000 0.88880  0.89740  0.57640  Biso   1.000  C
  C155     1.0000 0.99140  0.88880  0.07640  Biso   1.000  C
  C156     1.0000 0.10260  0.99140  0.57640  Biso   1.000  C
  C157     1.0000 0.10260  0.11120  0.57640  Biso   1.000  C
  C158     1.0000 0.99140  0.10260  0.07640  Biso   1.000  C
  C159     1.0000 0.88880  0.99140  0.57640  Biso   1.000  C
  C160     1.0000 0.89740  0.88880  0.07640  Biso   1.000  C
  C161     1.0000 0.00860  0.89740  0.57640  Biso   1.000  C
  C162     1.0000 0.11120  0.00860  0.07640  Biso   1.000  C
  C163     1.0000 0.88880  0.89740  0.92360  Biso   1.000  C
  C164     1.0000 0.99140  0.88880  0.42360  Biso   1.000  C
  C165     1.0000 0.10260  0.99140  0.92360  Biso   1.000  C
  C166     1.0000 0.11120  0.10260  0.42360  Biso   1.000  C
  C167     1.0000 0.00860  0.11120  0.92360  Biso   1.000  C
  C168     1.0000 0.89740  0.00860  0.42360  Biso   1.000  C
  C169     1.0000 0.91150  0.82300  0.43370  Biso   1.000  C
  C170     1.0000 0.08850  0.91150  0.93370  Biso   1.000  C
  C171     1.0000 0.17700  0.08850  0.43370  Biso   1.000  C
  C172     1.0000 0.08850  0.17700  0.93370  Biso   1.000  C
  C173     1.0000 0.91150  0.08850  0.43370  Biso   1.000  C
  C174     1.0000 0.82300  0.91150  0.93370  Biso   1.000  C
  C175     1.0000 0.17700  0.08850  0.06630  Biso   1.000  C
  C176     1.0000 0.08850  0.17700  0.56630  Biso   1.000  C
  C177     1.0000 0.91150  0.08850  0.06630  Biso   1.000  C
  C178     1.0000 0.82300  0.91150  0.56630  Biso   1.000  C
  C179     1.0000 0.91150  0.82300  0.06630  Biso   1.000  C
  C180     1.0000 0.08850  0.91150  0.56630  Biso   1.000  C
  C181     1.0000 0.97800  0.76100  0.48110  Biso   1.000  C
  C182     1.0000 0.21700  0.97800  0.98110  Biso   1.000  C
  C183     1.0000 0.23900  0.21700  0.48110  Biso   1.000  C
  C184     1.0000 0.02200  0.23900  0.98110  Biso   1.000  C
  C185     1.0000 0.78300  0.02200  0.48110  Biso   1.000  C
  C186     1.0000 0.76100  0.78300  0.98110  Biso   1.000  C
  C187     1.0000 0.23900  0.02200  0.01890  Biso   1.000  C
  C188     1.0000 0.21700  0.23900  0.51890  Biso   1.000  C
  C189     1.0000 0.97800  0.21700  0.01890  Biso   1.000  C
  C190     1.0000 0.76100  0.97800  0.51890  Biso   1.000  C
  C191     1.0000 0.78300  0.76100  0.01890  Biso   1.000  C
  C192     1.0000 0.02200  0.78300  0.51890  Biso   1.000  C
  C193     1.0000 0.02200  0.23900  0.51890  Biso   1.000  C
  C194     1.0000 0.78300  0.02200  0.01890  Biso   1.000  C
  C195     1.0000 0.76100  0.78300  0.51890  Biso   1.000  C
  C196     1.0000 0.97800  0.76100  0.01890  Biso   1.000  C
  C197     1.0000 0.21700  0.97800  0.51890  Biso   1.000  C
  C198     1.0000 0.23900  0.21700  0.01890  Biso   1.000  C
  C199     1.0000 0.76100  0.97800  0.98110  Biso   1.000  C
  C200     1.0000 0.78300  0.76100  0.48110  Biso   1.000  C
  C201     1.0000 0.02200  0.78300  0.98110  Biso   1.000  C
  C202     1.0000 0.23900  0.02200  0.48110  Biso   1.000  C
  C203     1.0000 0.21700  0.23900  0.98110  Biso   1.000  C
  C204     1.0000 0.97800  0.21700  0.48110  Biso   1.000  C
  H49      1.0000 0.96040  0.71120  0.46500  Biso   1.000  H
  H50      1.0000 0.24920  0.96040  0.96500  Biso   1.000  H
  H51      1.0000 0.28880  0.24920  0.46500  Biso   1.000  H
  H52      1.0000 0.03960  0.28880  0.96500  Biso   1.000  H
  H53      1.0000 0.75080  0.03960  0.46500  Biso   1.000  H
  H54      1.0000 0.71120  0.75080  0.96500  Biso   1.000  H
  H55      1.0000 0.28880  0.03960  0.03500  Biso   1.000  H
  H56      1.0000 0.24920  0.28880  0.53500  Biso   1.000  H
  H57      1.0000 0.96040  0.24920  0.03500  Biso   1.000  H
  H58      1.0000 0.71120  0.96040  0.53500  Biso   1.000  H
  H59      1.0000 0.75080  0.71120  0.03500  Biso   1.000  H
  H60      1.0000 0.03960  0.75080  0.53500  Biso   1.000  H
  H61      1.0000 0.03960  0.28880  0.53500  Biso   1.000  H
  H62      1.0000 0.75080  0.03960  0.03500  Biso   1.000  H
  H63      1.0000 0.71120  0.75080  0.53500  Biso   1.000  H
  H64      1.0000 0.96040  0.71120  0.03500  Biso   1.000  H
  H65      1.0000 0.24920  0.96040  0.53500  Biso   1.000  H
  H66      1.0000 0.28880  0.24920  0.03500  Biso   1.000  H
  H67      1.0000 0.71120  0.96040  0.96500  Biso   1.000  H
  H68      1.0000 0.75080  0.71120  0.46500  Biso   1.000  H
  H69      1.0000 0.03960  0.75080  0.96500  Biso   1.000  H
  H70      1.0000 0.28880  0.03960  0.46500  Biso   1.000  H
  H71      1.0000 0.24920  0.28880  0.96500  Biso   1.000  H
  H72      1.0000 0.96040  0.24920  0.46500  Biso   1.000  H
  C205     1.0000 0.96090  0.82600  0.46960  Biso   1.000  C
  C206     1.0000 0.13490  0.96090  0.96960  Biso   1.000  C
  C207     1.0000 0.17400  0.13490  0.46960  Biso   1.000  C
  C208     1.0000 0.03910  0.17400  0.96960  Biso   1.000  C
  C209     1.0000 0.86510  0.03910  0.46960  Biso   1.000  C
  C210     1.0000 0.82600  0.86510  0.96960  Biso   1.000  C
  C211     1.0000 0.17400  0.03910  0.03040  Biso   1.000  C
  C212     1.0000 0.13490  0.17400  0.53040  Biso   1.000  C
  C213     1.0000 0.96090  0.13490  0.03040  Biso   1.000  C
  C214     1.0000 0.82600  0.96090  0.53040  Biso   1.000  C
  C215     1.0000 0.86510  0.82600  0.03040  Biso   1.000  C
  C216     1.0000 0.03910  0.86510  0.53040  Biso   1.000  C
  C217     1.0000 0.03910  0.17400  0.53040  Biso   1.000  C
  C218     1.0000 0.86510  0.03910  0.03040  Biso   1.000  C
  C219     1.0000 0.82600  0.86510  0.53040  Biso   1.000  C
  C220     1.0000 0.96090  0.82600  0.03040  Biso   1.000  C
  C221     1.0000 0.13490  0.96090  0.53040  Biso   1.000  C
  C222     1.0000 0.17400  0.13490  0.03040  Biso   1.000  C
  C223     1.0000 0.82600  0.96090  0.96960  Biso   1.000  C
  C224     1.0000 0.86510  0.82600  0.46960  Biso   1.000  C
  C225     1.0000 0.03910  0.86510  0.96960  Biso   1.000  C
  C226     1.0000 0.17400  0.03910  0.46960  Biso   1.000  C
  C227     1.0000 0.13490  0.17400  0.96960  Biso   1.000  C
  C228     1.0000 0.96090  0.13490  0.46960  Biso   1.000  C
  C229     1.0000 0.86880  0.73760  0.41300  Biso   1.000  C
  C230     1.0000 0.13120  0.86880  0.91300  Biso   1.000  C
  C231     1.0000 0.26240  0.13120  0.41300  Biso   1.000  C
  C232     1.0000 0.13120  0.26240  0.91300  Biso   1.000  C
  C233     1.0000 0.86880  0.13120  0.41300  Biso   1.000  C
  C234     1.0000 0.73760  0.86880  0.91300  Biso   1.000  C
  C235     1.0000 0.26240  0.13120  0.08700  Biso   1.000  C
  C236     1.0000 0.13120  0.26240  0.58700  Biso   1.000  C
  C237     1.0000 0.86880  0.13120  0.08700  Biso   1.000  C
  C238     1.0000 0.73760  0.86880  0.58700  Biso   1.000  C
  C239     1.0000 0.86880  0.73760  0.08700  Biso   1.000  C
  C240     1.0000 0.13120  0.86880  0.58700  Biso   1.000  C
  C241     1.0000 0.90390  0.72000  0.37720  Biso   1.000  C
  C242     1.0000 0.18390  0.90390  0.87720  Biso   1.000  C
  C243     1.0000 0.28000  0.18390  0.37720  Biso   1.000  C
  C244     1.0000 0.09610  0.28000  0.87720  Biso   1.000  C
  C245     1.0000 0.81610  0.09610  0.37720  Biso   1.000  C
  C246     1.0000 0.72000  0.81610  0.87720  Biso   1.000  C
  C247     1.0000 0.28000  0.09610  0.12280  Biso   1.000  C
  C248     1.0000 0.18390  0.28000  0.62280  Biso   1.000  C
  C249     1.0000 0.90390  0.18390  0.12280  Biso   1.000  C
  C250     1.0000 0.72000  0.90390  0.62280  Biso   1.000  C
  C251     1.0000 0.81610  0.72000  0.12280  Biso   1.000  C
  C252     1.0000 0.09610  0.81610  0.62280  Biso   1.000  C
  C253     1.0000 0.09610  0.28000  0.62280  Biso   1.000  C
  C254     1.0000 0.81610  0.09610  0.12280  Biso   1.000  C
  C255     1.0000 0.72000  0.81610  0.62280  Biso   1.000  C
  C256     1.0000 0.90390  0.72000  0.12280  Biso   1.000  C
  C257     1.0000 0.18390  0.90390  0.62280  Biso   1.000  C
  C258     1.0000 0.28000  0.18390  0.12280  Biso   1.000  C
  C259     1.0000 0.72000  0.90390  0.87720  Biso   1.000  C
  C260     1.0000 0.81610  0.72000  0.37720  Biso   1.000  C
  C261     1.0000 0.09610  0.81610  0.87720  Biso   1.000  C
  C262     1.0000 0.28000  0.09610  0.37720  Biso   1.000  C
  C263     1.0000 0.18390  0.28000  0.87720  Biso   1.000  C
  C264     1.0000 0.90390  0.18390  0.37720  Biso   1.000  C
  H73      1.0000 0.95530  0.76260  0.36540  Biso   1.000  H
  H74      1.0000 0.19270  0.95530  0.86540  Biso   1.000  H
  H75      1.0000 0.23740  0.19270  0.36540  Biso   1.000  H
  H76      1.0000 0.04470  0.23740  0.86540  Biso   1.000  H
  H77      1.0000 0.80730  0.04470  0.36540  Biso   1.000  H
  H78      1.0000 0.76260  0.80730  0.86540  Biso   1.000  H
  H79      1.0000 0.23740  0.04470  0.13460  Biso   1.000  H
  H80      1.0000 0.19270  0.23740  0.63460  Biso   1.000  H
  H81      1.0000 0.95530  0.19270  0.13460  Biso   1.000  H
  H82      1.0000 0.76260  0.95530  0.63460  Biso   1.000  H
  H83      1.0000 0.80730  0.76260  0.13460  Biso   1.000  H
  H84      1.0000 0.04470  0.80730  0.63460  Biso   1.000  H
  H85      1.0000 0.04470  0.23740  0.63460  Biso   1.000  H
  H86      1.0000 0.80730  0.04470  0.13460  Biso   1.000  H
  H87      1.0000 0.76260  0.80730  0.63460  Biso   1.000  H
  H88      1.0000 0.95530  0.76260  0.13460  Biso   1.000  H
  H89      1.0000 0.19270  0.95530  0.63460  Biso   1.000  H
  H90      1.0000 0.23740  0.19270  0.13460  Biso   1.000  H
  H91      1.0000 0.76260  0.95530  0.86540  Biso   1.000  H
  H92      1.0000 0.80730  0.76260  0.36540  Biso   1.000  H
  H93      1.0000 0.04470  0.80730  0.86540  Biso   1.000  H
  H94      1.0000 0.23740  0.04470  0.36540  Biso   1.000  H
  H95      1.0000 0.19270  0.23740  0.86540  Biso   1.000  H
  H96      1.0000 0.95530  0.19270  0.36540  Biso   1.000  H
  C265     1.0000 0.86460  0.64200  0.35850  Biso   1.000  C
  C266     1.0000 0.22260  0.86460  0.85850  Biso   1.000  C
  C267     1.0000 0.35800  0.22260  0.35850  Biso   1.000  C
  C268     1.0000 0.13540  0.35800  0.85850  Biso   1.000  C
  C269     1.0000 0.77740  0.13540  0.35850  Biso   1.000  C
  C270     1.0000 0.64200  0.77740  0.85850  Biso   1.000  C
  C271     1.0000 0.35800  0.13540  0.14150  Biso   1.000  C
  C272     1.0000 0.22260  0.35800  0.64150  Biso   1.000  C
  C273     1.0000 0.86460  0.22260  0.14150  Biso   1.000  C
  C274     1.0000 0.64200  0.86460  0.64150  Biso   1.000  C
  C275     1.0000 0.77740  0.64200  0.14150  Biso   1.000  C
  C276     1.0000 0.13540  0.77740  0.64150  Biso   1.000  C
  C277     1.0000 0.13540  0.35800  0.64150  Biso   1.000  C
  C278     1.0000 0.77740  0.13540  0.14150  Biso   1.000  C
  C279     1.0000 0.64200  0.77740  0.64150  Biso   1.000  C
  C280     1.0000 0.86460  0.64200  0.14150  Biso   1.000  C
  C281     1.0000 0.22260  0.86460  0.64150  Biso   1.000  C
  C282     1.0000 0.35800  0.22260  0.14150  Biso   1.000  C
  C283     1.0000 0.64200  0.86460  0.85850  Biso   1.000  C
  C284     1.0000 0.77740  0.64200  0.35850  Biso   1.000  C
  C285     1.0000 0.13540  0.77740  0.85850  Biso   1.000  C
  C286     1.0000 0.35800  0.13540  0.35850  Biso   1.000  C
  C287     1.0000 0.22260  0.35800  0.85850  Biso   1.000  C
  C288     1.0000 0.86460  0.22260  0.35850  Biso   1.000  C
  H97      1.0000 0.88890  0.62990  0.33390  Biso   1.000  H
  H98      1.0000 0.25900  0.88890  0.83390  Biso   1.000  H
  H99      1.0000 0.37010  0.25900  0.33390  Biso   1.000  H
  H100     1.0000 0.11110  0.37010  0.83390  Biso   1.000  H
  H101     1.0000 0.74100  0.11110  0.33390  Biso   1.000  H
  H102     1.0000 0.62990  0.74100  0.83390  Biso   1.000  H
  H103     1.0000 0.37010  0.11110  0.16610  Biso   1.000  H
  H104     1.0000 0.25900  0.37010  0.66610  Biso   1.000  H
  H105     1.0000 0.88890  0.25900  0.16610  Biso   1.000  H
  H106     1.0000 0.62990  0.88890  0.66610  Biso   1.000  H
  H107     1.0000 0.74100  0.62990  0.16610  Biso   1.000  H
  H108     1.0000 0.11110  0.74100  0.66610  Biso   1.000  H
  H109     1.0000 0.11110  0.37010  0.66610  Biso   1.000  H
  H110     1.0000 0.74100  0.11110  0.16610  Biso   1.000  H
  H111     1.0000 0.62990  0.74100  0.66610  Biso   1.000  H
  H112     1.0000 0.88890  0.62990  0.16610  Biso   1.000  H
  H113     1.0000 0.25900  0.88890  0.66610  Biso   1.000  H
  H114     1.0000 0.37010  0.25900  0.16610  Biso   1.000  H
  H115     1.0000 0.62990  0.88890  0.83390  Biso   1.000  H
  H116     1.0000 0.74100  0.62990  0.33390  Biso   1.000  H
  H117     1.0000 0.11110  0.74100  0.83390  Biso   1.000  H
  H118     1.0000 0.37010  0.11110  0.33390  Biso   1.000  H
  H119     1.0000 0.25900  0.37010  0.83390  Biso   1.000  H
  H120     1.0000 0.88890  0.25900  0.33390  Biso   1.000  H
  C289     1.0000 0.79000  0.58010  0.37570  Biso   1.000  C
  C290     1.0000 0.20990  0.79000  0.87570  Biso   1.000  C
  C291     1.0000 0.41990  0.20990  0.37570  Biso   1.000  C
  C292     1.0000 0.21000  0.41990  0.87570  Biso   1.000  C
  C293     1.0000 0.79010  0.21000  0.37570  Biso   1.000  C
  C294     1.0000 0.58010  0.79010  0.87570  Biso   1.000  C
  C295     1.0000 0.41990  0.21000  0.12430  Biso   1.000  C
  C296     1.0000 0.20990  0.41990  0.62430  Biso   1.000  C
  C297     1.0000 0.79000  0.20990  0.12430  Biso   1.000  C
  C298     1.0000 0.58010  0.79000  0.62430  Biso   1.000  C
  C299     1.0000 0.79010  0.58010  0.12430  Biso   1.000  C
  C300     1.0000 0.21000  0.79010  0.62430  Biso   1.000  C
  C301     1.0000 0.75490  0.59740  0.41150  Biso   1.000  C
  C302     1.0000 0.15750  0.75490  0.91150  Biso   1.000  C
  C303     1.0000 0.40260  0.15750  0.41150  Biso   1.000  C
  C304     1.0000 0.24510  0.40260  0.91150  Biso   1.000  C
  C305     1.0000 0.84250  0.24510  0.41150  Biso   1.000  C
  C306     1.0000 0.59740  0.84250  0.91150  Biso   1.000  C
  C307     1.0000 0.40260  0.24510  0.08850  Biso   1.000  C
  C308     1.0000 0.15750  0.40260  0.58850  Biso   1.000  C
  C309     1.0000 0.75490  0.15750  0.08850  Biso   1.000  C
  C310     1.0000 0.59740  0.75490  0.58850  Biso   1.000  C
  C311     1.0000 0.84250  0.59740  0.08850  Biso   1.000  C
  C312     1.0000 0.24510  0.84250  0.58850  Biso   1.000  C
  C313     1.0000 0.24510  0.40260  0.58850  Biso   1.000  C
  C314     1.0000 0.84250  0.24510  0.08850  Biso   1.000  C
  C315     1.0000 0.59740  0.84250  0.58850  Biso   1.000  C
  C316     1.0000 0.75490  0.59740  0.08850  Biso   1.000  C
  C317     1.0000 0.15750  0.75490  0.58850  Biso   1.000  C
  C318     1.0000 0.40260  0.15750  0.08850  Biso   1.000  C
  C319     1.0000 0.59740  0.75490  0.91150  Biso   1.000  C
  C320     1.0000 0.84250  0.59740  0.41150  Biso   1.000  C
  C321     1.0000 0.24510  0.84250  0.91150  Biso   1.000  C
  C322     1.0000 0.40260  0.24510  0.41150  Biso   1.000  C
  C323     1.0000 0.15750  0.40260  0.91150  Biso   1.000  C
  C324     1.0000 0.75490  0.15750  0.41150  Biso   1.000  C
  H121     1.0000 0.70360  0.55500  0.42330  Biso   1.000  H
  H122     1.0000 0.14860  0.70360  0.92330  Biso   1.000  H
  H123     1.0000 0.44500  0.14860  0.42330  Biso   1.000  H
  H124     1.0000 0.29640  0.44500  0.92330  Biso   1.000  H
  H125     1.0000 0.85140  0.29640  0.42330  Biso   1.000  H
  H126     1.0000 0.55500  0.85140  0.92330  Biso   1.000  H
  H127     1.0000 0.44500  0.29640  0.07670  Biso   1.000  H
  H128     1.0000 0.14860  0.44500  0.57670  Biso   1.000  H
  H129     1.0000 0.70360  0.14860  0.07670  Biso   1.000  H
  H130     1.0000 0.55500  0.70360  0.57670  Biso   1.000  H
  H131     1.0000 0.85140  0.55500  0.07670  Biso   1.000  H
  H132     1.0000 0.29640  0.85140  0.57670  Biso   1.000  H
  H133     1.0000 0.29640  0.44500  0.57670  Biso   1.000  H
  H134     1.0000 0.85140  0.29640  0.07670  Biso   1.000  H
  H135     1.0000 0.55500  0.85140  0.57670  Biso   1.000  H
  H136     1.0000 0.70360  0.55500  0.07670  Biso   1.000  H
  H137     1.0000 0.14860  0.70360  0.57670  Biso   1.000  H
  H138     1.0000 0.44500  0.14860  0.07670  Biso   1.000  H
  H139     1.0000 0.55500  0.70360  0.92330  Biso   1.000  H
  H140     1.0000 0.85140  0.55500  0.42330  Biso   1.000  H
  H141     1.0000 0.29640  0.85140  0.92330  Biso   1.000  H
  H142     1.0000 0.44500  0.29640  0.42330  Biso   1.000  H
  H143     1.0000 0.14860  0.44500  0.92330  Biso   1.000  H
  H144     1.0000 0.70360  0.14860  0.42330  Biso   1.000  H
  C325     1.0000 0.79420  0.67600  0.43010  Biso   1.000  C
  C326     1.0000 0.11820  0.79420  0.93010  Biso   1.000  C
  C327     1.0000 0.32400  0.11820  0.43010  Biso   1.000  C
  C328     1.0000 0.20580  0.32400  0.93010  Biso   1.000  C
  C329     1.0000 0.88180  0.20580  0.43010  Biso   1.000  C
  C330     1.0000 0.67600  0.88180  0.93010  Biso   1.000  C
  C331     1.0000 0.32400  0.20580  0.06990  Biso   1.000  C
  C332     1.0000 0.11820  0.32400  0.56990  Biso   1.000  C
  C333     1.0000 0.79420  0.11820  0.06990  Biso   1.000  C
  C334     1.0000 0.67600  0.79420  0.56990  Biso   1.000  C
  C335     1.0000 0.88180  0.67600  0.06990  Biso   1.000  C
  C336     1.0000 0.20580  0.88180  0.56990  Biso   1.000  C
  C337     1.0000 0.20580  0.32400  0.56990  Biso   1.000  C
  C338     1.0000 0.88180  0.20580  0.06990  Biso   1.000  C
  C339     1.0000 0.67600  0.88180  0.56990  Biso   1.000  C
  C340     1.0000 0.79420  0.67600  0.06990  Biso   1.000  C
  C341     1.0000 0.11820  0.79420  0.56990  Biso   1.000  C
  C342     1.0000 0.32400  0.11820  0.06990  Biso   1.000  C
  C343     1.0000 0.67600  0.79420  0.93010  Biso   1.000  C
  C344     1.0000 0.88180  0.67600  0.43010  Biso   1.000  C
  C345     1.0000 0.20580  0.88180  0.93010  Biso   1.000  C
  C346     1.0000 0.32400  0.20580  0.43010  Biso   1.000  C
  C347     1.0000 0.11820  0.32400  0.93010  Biso   1.000  C
  C348     1.0000 0.79420  0.11820  0.43010  Biso   1.000  C
  H145     1.0000 0.76990  0.68770  0.45480  Biso   1.000  H
  H146     1.0000 0.08220  0.76990  0.95480  Biso   1.000  H
  H147     1.0000 0.31230  0.08220  0.45480  Biso   1.000  H
  H148     1.0000 0.23010  0.31230  0.95480  Biso   1.000  H
  H149     1.0000 0.91780  0.23010  0.45480  Biso   1.000  H
  H150     1.0000 0.68770  0.91780  0.95480  Biso   1.000  H
  H151     1.0000 0.31230  0.23010  0.04520  Biso   1.000  H
  H152     1.0000 0.08220  0.31230  0.54520  Biso   1.000  H
  H153     1.0000 0.76990  0.08220  0.04520  Biso   1.000  H
  H154     1.0000 0.68770  0.76990  0.54520  Biso   1.000  H
  H155     1.0000 0.91780  0.68770  0.04520  Biso   1.000  H
  H156     1.0000 0.23010  0.91780  0.54520  Biso   1.000  H
  H157     1.0000 0.23010  0.31230  0.54520  Biso   1.000  H
  H158     1.0000 0.91780  0.23010  0.04520  Biso   1.000  H
  H159     1.0000 0.68770  0.91780  0.54520  Biso   1.000  H
  H160     1.0000 0.76990  0.68770  0.04520  Biso   1.000  H
  H161     1.0000 0.08220  0.76990  0.54520  Biso   1.000  H
  H162     1.0000 0.31230  0.08220  0.04520  Biso   1.000  H
  H163     1.0000 0.68770  0.76990  0.95480  Biso   1.000  H
  H164     1.0000 0.91780  0.68770  0.45480  Biso   1.000  H
  H165     1.0000 0.23010  0.91780  0.95480  Biso   1.000  H
  H166     1.0000 0.31230  0.23010  0.45480  Biso   1.000  H
  H167     1.0000 0.08220  0.31230  0.95480  Biso   1.000  H
  H168     1.0000 0.76990  0.08220  0.45480  Biso   1.000  H
  C349     1.0000 0.84900  0.88770  0.38600  Biso   1.000  C
  C350     1.0000 0.96130  0.84900  0.88600  Biso   1.000  C
  C351     1.0000 0.11230  0.96130  0.38600  Biso   1.000  C
  C352     1.0000 0.15100  0.11230  0.88600  Biso   1.000  C
  C353     1.0000 0.03870  0.15100  0.38600  Biso   1.000  C
  C354     1.0000 0.88770  0.03870  0.88600  Biso   1.000  C
  C355     1.0000 0.11230  0.15100  0.11400  Biso   1.000  C
  C356     1.0000 0.96130  0.11230  0.61400  Biso   1.000  C
  C357     1.0000 0.84900  0.96130  0.11400  Biso   1.000  C
  C358     1.0000 0.88770  0.84900  0.61400  Biso   1.000  C
  C359     1.0000 0.03870  0.88770  0.11400  Biso   1.000  C
  C360     1.0000 0.15100  0.03870  0.61400  Biso   1.000  C
  C361     1.0000 0.15100  0.11230  0.61400  Biso   1.000  C
  C362     1.0000 0.03870  0.15100  0.11400  Biso   1.000  C
  C363     1.0000 0.88770  0.03870  0.61400  Biso   1.000  C
  C364     1.0000 0.84900  0.88770  0.11400  Biso   1.000  C
  C365     1.0000 0.96130  0.84900  0.61400  Biso   1.000  C
  C366     1.0000 0.11230  0.96130  0.11400  Biso   1.000  C
  C367     1.0000 0.88770  0.84900  0.88600  Biso   1.000  C
  C368     1.0000 0.03870  0.88770  0.38600  Biso   1.000  C
  C369     1.0000 0.15100  0.03870  0.88600  Biso   1.000  C
  C370     1.0000 0.11230  0.15100  0.38600  Biso   1.000  C
  C371     1.0000 0.96130  0.11230  0.88600  Biso   1.000  C
  C372     1.0000 0.84900  0.96130  0.38600  Biso   1.000  C
  H169     1.0000 0.82130  0.84370  0.36550  Biso   1.000  H
  H170     1.0000 0.97760  0.82130  0.86550  Biso   1.000  H
  H171     1.0000 0.15630  0.97760  0.36550  Biso   1.000  H
  H172     1.0000 0.17870  0.15630  0.86550  Biso   1.000  H
  H173     1.0000 0.02240  0.17870  0.36550  Biso   1.000  H
  H174     1.0000 0.84370  0.02240  0.86550  Biso   1.000  H
  H175     1.0000 0.15630  0.17870  0.13450  Biso   1.000  H
  H176     1.0000 0.97760  0.15630  0.63450  Biso   1.000  H
  H177     1.0000 0.82130  0.97760  0.13450  Biso   1.000  H
  H178     1.0000 0.84370  0.82130  0.63450  Biso   1.000  H
  H179     1.0000 0.02240  0.84370  0.13450  Biso   1.000  H
  H180     1.0000 0.17870  0.02240  0.63450  Biso   1.000  H
  H181     1.0000 0.17870  0.15630  0.63450  Biso   1.000  H
  H182     1.0000 0.02240  0.17870  0.13450  Biso   1.000  H
  H183     1.0000 0.84370  0.02240  0.63450  Biso   1.000  H
  H184     1.0000 0.82130  0.84370  0.13450  Biso   1.000  H
  H185     1.0000 0.97760  0.82130  0.63450  Biso   1.000  H
  H186     1.0000 0.15630  0.97760  0.13450  Biso   1.000  H
  H187     1.0000 0.84370  0.82130  0.86550  Biso   1.000  H
  H188     1.0000 0.02240  0.84370  0.36550  Biso   1.000  H
  H189     1.0000 0.17870  0.02240  0.86550  Biso   1.000  H
  H190     1.0000 0.15630  0.17870  0.36550  Biso   1.000  H
  H191     1.0000 0.97760  0.15630  0.86550  Biso   1.000  H
  H192     1.0000 0.82130  0.97760  0.36550  Biso   1.000  H
  O121     1.0000 0.70100  0.48400  0.30960  Biso   1.000  O
  O122     1.0000 0.21700  0.70100  0.80960  Biso   1.000  O
  O123     1.0000 0.51600  0.21700  0.30960  Biso   1.000  O
  O124     1.0000 0.29900  0.51600  0.80960  Biso   1.000  O
  O125     1.0000 0.78300  0.29900  0.30960  Biso   1.000  O
  O126     1.0000 0.48400  0.78300  0.80960  Biso   1.000  O
  O127     1.0000 0.51600  0.29900  0.19040  Biso   1.000  O
  O128     1.0000 0.21700  0.51600  0.69040  Biso   1.000  O
  O129     1.0000 0.70100  0.21700  0.19040  Biso   1.000  O
  O130     1.0000 0.48400  0.70100  0.69040  Biso   1.000  O
  O131     1.0000 0.78300  0.48400  0.19040  Biso   1.000  O
  O132     1.0000 0.29900  0.78300  0.69040  Biso   1.000  O
  O133     1.0000 0.29900  0.51600  0.69040  Biso   1.000  O
  O134     1.0000 0.78300  0.29900  0.19040  Biso   1.000  O
  O135     1.0000 0.48400  0.78300  0.69040  Biso   1.000  O
  O136     1.0000 0.70100  0.48400  0.19040  Biso   1.000  O
  O137     1.0000 0.21700  0.70100  0.69040  Biso   1.000  O
  O138     1.0000 0.51600  0.21700  0.19040  Biso   1.000  O
  O139     1.0000 0.48400  0.70100  0.80960  Biso   1.000  O
  O140     1.0000 0.78300  0.48400  0.30960  Biso   1.000  O
  O141     1.0000 0.29900  0.78300  0.80960  Biso   1.000  O
  O142     1.0000 0.51600  0.29900  0.30960  Biso   1.000  O
  O143     1.0000 0.21700  0.51600  0.80960  Biso   1.000  O
  O144     1.0000 0.70100  0.21700  0.30960  Biso   1.000  O
  O145     1.0000 0.80700  0.45800  0.34400  Biso   1.000  O
  O146     1.0000 0.34900  0.80700  0.84400  Biso   1.000  O
  O147     1.0000 0.54200  0.34900  0.34400  Biso   1.000  O
  O148     1.0000 0.19300  0.54200  0.84400  Biso   1.000  O
  O149     1.0000 0.65100  0.19300  0.34400  Biso   1.000  O
  O150     1.0000 0.45800  0.65100  0.84400  Biso   1.000  O
  O151     1.0000 0.54200  0.19300  0.15600  Biso   1.000  O
  O152     1.0000 0.34900  0.54200  0.65600  Biso   1.000  O
  O153     1.0000 0.80700  0.34900  0.15600  Biso   1.000  O
  O154     1.0000 0.45800  0.80700  0.65600  Biso   1.000  O
  O155     1.0000 0.65100  0.45800  0.15600  Biso   1.000  O
  O156     1.0000 0.19300  0.65100  0.65600  Biso   1.000  O
  O157     1.0000 0.19300  0.54200  0.65600  Biso   1.000  O
  O158     1.0000 0.65100  0.19300  0.15600  Biso   1.000  O
  O159     1.0000 0.45800  0.65100  0.65600  Biso   1.000  O
  O160     1.0000 0.80700  0.45800  0.15600  Biso   1.000  O
  O161     1.0000 0.34900  0.80700  0.65600  Biso   1.000  O
  O162     1.0000 0.54200  0.34900  0.15600  Biso   1.000  O
  O163     1.0000 0.45800  0.80700  0.84400  Biso   1.000  O
  O164     1.0000 0.65100  0.45800  0.34400  Biso   1.000  O
  O165     1.0000 0.19300  0.65100  0.84400  Biso   1.000  O
  O166     1.0000 0.54200  0.19300  0.34400  Biso   1.000  O
  O167     1.0000 0.34900  0.54200  0.84400  Biso   1.000  O
  O168     1.0000 0.80700  0.34900  0.34400  Biso   1.000  O
  O169     1.0000 0.67900  0.42000  0.38440  Biso   1.000  O
  O170     1.0000 0.25900  0.67900  0.88440  Biso   1.000  O
  O171     1.0000 0.58000  0.25900  0.38440  Biso   1.000  O
  O172     1.0000 0.32100  0.58000  0.88440  Biso   1.000  O
  O173     1.0000 0.74100  0.32100  0.38440  Biso   1.000  O
  O174     1.0000 0.42000  0.74100  0.88440  Biso   1.000  O
  O175     1.0000 0.58000  0.32100  0.11560  Biso   1.000  O
  O176     1.0000 0.25900  0.58000  0.61560  Biso   1.000  O
  O177     1.0000 0.67900  0.25900  0.11560  Biso   1.000  O
  O178     1.0000 0.42000  0.67900  0.61560  Biso   1.000  O
  O179     1.0000 0.74100  0.42000  0.11560  Biso   1.000  O
  O180     1.0000 0.32100  0.74100  0.61560  Biso   1.000  O
  O181     1.0000 0.32100  0.58000  0.61560  Biso   1.000  O
  O182     1.0000 0.74100  0.32100  0.11560  Biso   1.000  O
  O183     1.0000 0.42000  0.74100  0.61560  Biso   1.000  O
  O184     1.0000 0.67900  0.42000  0.11560  Biso   1.000  O
  O185     1.0000 0.25900  0.67900  0.61560  Biso   1.000  O
  O186     1.0000 0.58000  0.25900  0.11560  Biso   1.000  O
  O187     1.0000 0.42000  0.67900  0.88440  Biso   1.000  O
  O188     1.0000 0.74100  0.42000  0.38440  Biso   1.000  O
  O189     1.0000 0.32100  0.74100  0.88440  Biso   1.000  O
  O190     1.0000 0.58000  0.32100  0.38440  Biso   1.000  O
  O191     1.0000 0.25900  0.58000  0.88440  Biso   1.000  O
  O192     1.0000 0.67900  0.25900  0.38440  Biso   1.000  O
  O193     1.0000 0.33330  0.66670  0.51800  Biso   1.000  O
  O194     1.0000 0.66660  0.33330  0.01800  Biso   1.000  O
  O195     1.0000 0.33330  0.66670  0.98200  Biso   1.000  O
  O196     1.0000 0.66660  0.33330  0.48200  Biso   1.000  O
  O197     1.0000 0.45200  0.90300  0.16400  Biso   1.000  O
  O198     1.0000 0.54900  0.45200  0.66400  Biso   1.000  O
  O199     1.0000 0.09700  0.54900  0.16400  Biso   1.000  O
  O200     1.0000 0.54800  0.09700  0.66400  Biso   1.000  O
  O201     1.0000 0.45100  0.54800  0.16400  Biso   1.000  O
  O202     1.0000 0.90300  0.45100  0.66400  Biso   1.000  O
  O203     1.0000 0.09700  0.54800  0.33600  Biso   1.000  O
  O204     1.0000 0.54900  0.09700  0.83600  Biso   1.000  O
  O205     1.0000 0.45200  0.54900  0.33600  Biso   1.000  O
  O206     1.0000 0.90300  0.45200  0.83600  Biso   1.000  O
  O207     1.0000 0.45100  0.90300  0.33600  Biso   1.000  O
  O208     1.0000 0.54800  0.45100  0.83600  Biso   1.000  O
  O209     1.0000 0.33330  0.66670  0.38800  Biso   1.000  O
  O210     1.0000 0.66660  0.33330  0.88800  Biso   1.000  O
  O211     1.0000 0.33330  0.66670  0.11200  Biso   1.000  O
  O212     1.0000 0.66660  0.33330  0.61200  Biso   1.000  O
  O213     1.0000 0.86900  0.93400  0.37000  Biso   1.000  O
  O214     1.0000 0.93500  0.86900  0.87000  Biso   1.000  O
  O215     1.0000 0.06600  0.93500  0.37000  Biso   1.000  O
  O216     1.0000 0.13100  0.06600  0.87000  Biso   1.000  O
  O217     1.0000 0.06500  0.13100  0.37000  Biso   1.000  O
  O218     1.0000 0.93400  0.06500  0.87000  Biso   1.000  O
  O219     1.0000 0.06600  0.13100  0.13000  Biso   1.000  O
  O220     1.0000 0.93500  0.06600  0.63000  Biso   1.000  O
  O221     1.0000 0.86900  0.93500  0.13000  Biso   1.000  O
  O222     1.0000 0.93400  0.86900  0.63000  Biso   1.000  O
  O223     1.0000 0.06500  0.93400  0.13000  Biso   1.000  O
  O224     1.0000 0.13100  0.06500  0.63000  Biso   1.000  O
  O225     1.0000 0.13100  0.06600  0.63000  Biso   1.000  O
  O226     1.0000 0.06500  0.13100  0.13000  Biso   1.000  O
  O227     1.0000 0.93400  0.06500  0.63000  Biso   1.000  O
  O228     1.0000 0.86900  0.93400  0.13000  Biso   1.000  O
  O229     1.0000 0.93500  0.86900  0.63000  Biso   1.000  O
  O230     1.0000 0.06600  0.93500  0.13000  Biso   1.000  O
  O231     1.0000 0.93400  0.86900  0.87000  Biso   1.000  O
  O232     1.0000 0.06500  0.93400  0.37000  Biso   1.000  O
  O233     1.0000 0.13100  0.06500  0.87000  Biso   1.000  O
  O234     1.0000 0.06600  0.13100  0.37000  Biso   1.000  O
  O235     1.0000 0.93500  0.06600  0.87000  Biso   1.000  O
  O236     1.0000 0.86900  0.93500  0.37000  Biso   1.000  O
  O237     1.0000 0.90600  0.72000  0.33300  Biso   1.000  O
  O238     1.0000 0.18600  0.90600  0.83300  Biso   1.000  O
  O239     1.0000 0.28000  0.18600  0.33300  Biso   1.000  O
  O240     1.0000 0.09400  0.28000  0.83300  Biso   1.000  O
  O241     1.0000 0.81400  0.09400  0.33300  Biso   1.000  O
  O242     1.0000 0.72000  0.81400  0.83300  Biso   1.000  O
  O243     1.0000 0.28000  0.09400  0.16700  Biso   1.000  O
  O244     1.0000 0.18600  0.28000  0.66700  Biso   1.000  O
  O245     1.0000 0.90600  0.18600  0.16700  Biso   1.000  O
  O246     1.0000 0.72000  0.90600  0.66700  Biso   1.000  O
  O247     1.0000 0.81400  0.72000  0.16700  Biso   1.000  O
  O248     1.0000 0.09400  0.81400  0.66700  Biso   1.000  O
  O249     1.0000 0.09400  0.28000  0.66700  Biso   1.000  O
  O250     1.0000 0.81400  0.09400  0.16700  Biso   1.000  O
  O251     1.0000 0.72000  0.81400  0.66700  Biso   1.000  O
  O252     1.0000 0.90600  0.72000  0.16700  Biso   1.000  O
  O253     1.0000 0.18600  0.90600  0.66700  Biso   1.000  O
  O254     1.0000 0.28000  0.18600  0.16700  Biso   1.000  O
  O255     1.0000 0.72000  0.90600  0.83300  Biso   1.000  O
  O256     1.0000 0.81400  0.72000  0.33300  Biso   1.000  O
  O257     1.0000 0.09400  0.81400  0.83300  Biso   1.000  O
  O258     1.0000 0.28000  0.09400  0.33300  Biso   1.000  O
  O259     1.0000 0.18600  0.28000  0.83300  Biso   1.000  O
  O260     1.0000 0.90600  0.18600  0.33300  Biso   1.000  O
  O261     1.0000 0.93800  0.87500  0.36800  Biso   1.000  O
  O262     1.0000 0.06300  0.93800  0.86800  Biso   1.000  O
  O263     1.0000 0.12500  0.06300  0.36800  Biso   1.000  O
  O264     1.0000 0.06200  0.12500  0.86800  Biso   1.000  O
  O265     1.0000 0.93700  0.06200  0.36800  Biso   1.000  O
  O266     1.0000 0.87500  0.93700  0.86800  Biso   1.000  O
  O267     1.0000 0.12500  0.06200  0.13200  Biso   1.000  O
  O268     1.0000 0.06300  0.12500  0.63200  Biso   1.000  O
  O269     1.0000 0.93800  0.06300  0.13200  Biso   1.000  O
  O270     1.0000 0.87500  0.93800  0.63200  Biso   1.000  O
  O271     1.0000 0.93700  0.87500  0.13200  Biso   1.000  O
  O272     1.0000 0.06200  0.93700  0.63200  Biso   1.000  O
  O273     1.0000 0.78000  0.56000  0.29300  Biso   1.000  O
  O274     1.0000 0.22000  0.78000  0.79300  Biso   1.000  O
  O275     1.0000 0.44000  0.22000  0.29300  Biso   1.000  O
  O276     1.0000 0.22000  0.44000  0.79300  Biso   1.000  O
  O277     1.0000 0.78000  0.22000  0.29300  Biso   1.000  O
  O278     1.0000 0.56000  0.78000  0.79300  Biso   1.000  O
  O279     1.0000 0.44000  0.22000  0.20700  Biso   1.000  O
  O280     1.0000 0.22000  0.44000  0.70700  Biso   1.000  O
  O281     1.0000 0.78000  0.22000  0.20700  Biso   1.000  O
  O282     1.0000 0.56000  0.78000  0.70700  Biso   1.000  O
  O283     1.0000 0.78000  0.56000  0.20700  Biso   1.000  O
  O284     1.0000 0.22000  0.78000  0.70700  Biso   1.000  O
  O285     1.0000 0.60200  0.39800  0.25000  Biso   1.000  O
  O286     1.0000 0.20400  0.60200  0.75000  Biso   1.000  O
  O287     1.0000 0.60200  0.20400  0.25000  Biso   1.000  O
  O288     1.0000 0.39800  0.60200  0.75000  Biso   1.000  O
  O289     1.0000 0.79600  0.39800  0.25000  Biso   1.000  O
  O290     1.0000 0.39800  0.79600  0.75000  Biso   1.000  O
  O291     1.0000 0.72900  0.45900  0.31400  Biso   1.000  O
  O292     1.0000 0.27000  0.72900  0.81400  Biso   1.000  O
  O293     1.0000 0.54100  0.27000  0.31400  Biso   1.000  O
  O294     1.0000 0.27100  0.54100  0.81400  Biso   1.000  O
  O295     1.0000 0.73000  0.27100  0.31400  Biso   1.000  O
  O296     1.0000 0.45900  0.73000  0.81400  Biso   1.000  O
  O297     1.0000 0.54100  0.27100  0.18600  Biso   1.000  O
  O298     1.0000 0.27000  0.54100  0.68600  Biso   1.000  O
  O299     1.0000 0.72900  0.27000  0.18600  Biso   1.000  O
  O300     1.0000 0.45900  0.72900  0.68600  Biso   1.000  O
  O301     1.0000 0.73000  0.45900  0.18600  Biso   1.000  O
  O302     1.0000 0.27100  0.73000  0.68600  Biso   1.000  O
  O303     1.0000 0.27100  0.54100  0.68600  Biso   1.000  O
  O304     1.0000 0.73000  0.27100  0.18600  Biso   1.000  O
  O305     1.0000 0.45900  0.73000  0.68600  Biso   1.000  O
  O306     1.0000 0.72900  0.45900  0.18600  Biso   1.000  O
  O307     1.0000 0.27000  0.72900  0.68600  Biso   1.000  O
  O308     1.0000 0.54100  0.27000  0.18600  Biso   1.000  O
  O309     1.0000 0.45900  0.72900  0.81400  Biso   1.000  O
  O310     1.0000 0.73000  0.45900  0.31400  Biso   1.000  O
  O311     1.0000 0.27100  0.73000  0.81400  Biso   1.000  O
  O312     1.0000 0.54100  0.27100  0.31400  Biso   1.000  O
  O313     1.0000 0.27000  0.54100  0.81400  Biso   1.000  O
  O314     1.0000 0.72900  0.27000  0.31400  Biso   1.000  O
  O315     1.0000 0.69100  0.52500  0.31400  Biso   1.000  O
  O316     1.0000 0.16600  0.69100  0.81400  Biso   1.000  O
  O317     1.0000 0.47500  0.16600  0.31400  Biso   1.000  O
  O318     1.0000 0.30900  0.47500  0.81400  Biso   1.000  O
  O319     1.0000 0.83400  0.30900  0.31400  Biso   1.000  O
  O320     1.0000 0.52500  0.83400  0.81400  Biso   1.000  O
  O321     1.0000 0.47500  0.30900  0.18600  Biso   1.000  O
  O322     1.0000 0.16600  0.47500  0.68600  Biso   1.000  O
  O323     1.0000 0.69100  0.16600  0.18600  Biso   1.000  O
  O324     1.0000 0.52500  0.69100  0.68600  Biso   1.000  O
  O325     1.0000 0.83400  0.52500  0.18600  Biso   1.000  O
  O326     1.0000 0.30900  0.83400  0.68600  Biso   1.000  O
  O327     1.0000 0.30900  0.47500  0.68600  Biso   1.000  O
  O328     1.0000 0.83400  0.30900  0.18600  Biso   1.000  O
  O329     1.0000 0.52500  0.83400  0.68600  Biso   1.000  O
  O330     1.0000 0.69100  0.52500  0.18600  Biso   1.000  O
  O331     1.0000 0.16600  0.69100  0.68600  Biso   1.000  O
  O332     1.0000 0.47500  0.16600  0.18600  Biso   1.000  O
  O333     1.0000 0.52500  0.69100  0.81400  Biso   1.000  O
  O334     1.0000 0.83400  0.52500  0.31400  Biso   1.000  O
  O335     1.0000 0.30900  0.83400  0.81400  Biso   1.000  O
  O336     1.0000 0.47500  0.30900  0.31400  Biso   1.000  O
  O337     1.0000 0.16600  0.47500  0.81400  Biso   1.000  O
  O338     1.0000 0.69100  0.16600  0.31400  Biso   1.000  O
  O339     1.0000 0.00000  0.77300  0.50000  Biso   1.000  O
  O340     1.0000 0.22700  0.00000  0.00000  Biso   1.000  O
  O341     1.0000 0.22700  0.22700  0.50000  Biso   1.000  O
  O342     1.0000 0.00000  0.22700  0.00000  Biso   1.000  O
  O343     1.0000 0.77300  0.00000  0.50000  Biso   1.000  O
  O344     1.0000 0.77300  0.77300  0.00000  Biso   1.000  O
  O345     1.0000 0.00000  0.22700  0.50000  Biso   1.000  O
  O346     1.0000 0.77300  0.00000  0.00000  Biso   1.000  O
  O347     1.0000 0.77300  0.77300  0.50000  Biso   1.000  O
  O348     1.0000 0.00000  0.77300  0.00000  Biso   1.000  O
  O349     1.0000 0.22700  0.00000  0.50000  Biso   1.000  O
  O350     1.0000 0.22700  0.22700  0.00000  Biso   1.000  O
  O351     1.0000 0.89800  0.79500  0.39300  Biso   1.000  O
  O352     1.0000 0.10300  0.89800  0.89300  Biso   1.000  O
  O353     1.0000 0.20500  0.10300  0.39300  Biso   1.000  O
  O354     1.0000 0.10200  0.20500  0.89300  Biso   1.000  O
  O355     1.0000 0.89700  0.10200  0.39300  Biso   1.000  O
  O356     1.0000 0.79500  0.89700  0.89300  Biso   1.000  O
  O357     1.0000 0.20500  0.10200  0.10700  Biso   1.000  O
  O358     1.0000 0.10300  0.20500  0.60700  Biso   1.000  O
  O359     1.0000 0.89800  0.10300  0.10700  Biso   1.000  O
  O360     1.0000 0.79500  0.89800  0.60700  Biso   1.000  O
  O361     1.0000 0.89700  0.79500  0.10700  Biso   1.000  O
  O362     1.0000 0.10200  0.89700  0.60700  Biso   1.000  O
  O363     1.0000 0.10200  0.20500  0.60700  Biso   1.000  O
  O364     1.0000 0.89700  0.10200  0.10700  Biso   1.000  O
  O365     1.0000 0.79500  0.89700  0.60700  Biso   1.000  O
  O366     1.0000 0.89800  0.79500  0.10700  Biso   1.000  O
  O367     1.0000 0.10300  0.89800  0.60700  Biso   1.000  O
  O368     1.0000 0.20500  0.10300  0.10700  Biso   1.000  O
  O369     1.0000 0.79500  0.89800  0.89300  Biso   1.000  O
  O370     1.0000 0.89700  0.79500  0.39300  Biso   1.000  O
  O371     1.0000 0.10200  0.89700  0.89300  Biso   1.000  O
  O372     1.0000 0.20500  0.10200  0.39300  Biso   1.000  O
  O373     1.0000 0.10300  0.20500  0.89300  Biso   1.000  O
  O374     1.0000 0.89800  0.10300  0.39300  Biso   1.000  O
  O375     1.0000 0.48100  0.96200  0.20800  Biso   1.000  O
  O376     1.0000 0.51900  0.48100  0.70800  Biso   1.000  O
  O377     1.0000 0.03800  0.51900  0.20800  Biso   1.000  O
  O378     1.0000 0.51900  0.03800  0.70800  Biso   1.000  O
  O379     1.0000 0.48100  0.51900  0.20800  Biso   1.000  O
  O380     1.0000 0.96200  0.48100  0.70800  Biso   1.000  O
  O381     1.0000 0.03800  0.51900  0.29200  Biso   1.000  O
  O382     1.0000 0.51900  0.03800  0.79200  Biso   1.000  O
  O383     1.0000 0.48100  0.51900  0.29200  Biso   1.000  O
  O384     1.0000 0.96200  0.48100  0.79200  Biso   1.000  O
  O385     1.0000 0.48100  0.96200  0.29200  Biso   1.000  O
  O386     1.0000 0.51900  0.48100  0.79200  Biso   1.000  O
  O387     1.0000 0.53900  0.99900  0.17500  Biso   1.000  O
  O388     1.0000 0.54000  0.53900  0.67500  Biso   1.000  O
  O389     1.0000 0.00100  0.54000  0.17500  Biso   1.000  O
  O390     1.0000 0.46100  0.00100  0.67500  Biso   1.000  O
  O391     1.0000 0.46000  0.46100  0.17500  Biso   1.000  O
  O392     1.0000 0.99900  0.46000  0.67500  Biso   1.000  O
  O393     1.0000 0.00100  0.46100  0.32500  Biso   1.000  O
  O394     1.0000 0.54000  0.00100  0.82500  Biso   1.000  O
  O395     1.0000 0.53900  0.54000  0.32500  Biso   1.000  O
  O396     1.0000 0.99900  0.53900  0.82500  Biso   1.000  O
  O397     1.0000 0.46000  0.99900  0.32500  Biso   1.000  O
  O398     1.0000 0.46100  0.46000  0.82500  Biso   1.000  O
  O399     1.0000 0.46100  0.00100  0.82500  Biso   1.000  O
  O400     1.0000 0.46000  0.46100  0.32500  Biso   1.000  O
  O401     1.0000 0.99900  0.46000  0.82500  Biso   1.000  O
  O402     1.0000 0.53900  0.99900  0.32500  Biso   1.000  O
  O403     1.0000 0.54000  0.53900  0.82500  Biso   1.000  O
  O404     1.0000 0.00100  0.54000  0.32500  Biso   1.000  O
  O405     1.0000 0.99900  0.53900  0.67500  Biso   1.000  O
  O406     1.0000 0.46000  0.99900  0.17500  Biso   1.000  O
  O407     1.0000 0.46100  0.46000  0.67500  Biso   1.000  O
  O408     1.0000 0.00100  0.46100  0.17500  Biso   1.000  O
  O409     1.0000 0.54000  0.00100  0.67500  Biso   1.000  O
  O410     1.0000 0.53900  0.54000  0.17500  Biso   1.000  O
  O411     1.0000 0.42300  0.84600  0.17900  Biso   1.000  O
  O412     1.0000 0.57700  0.42300  0.67900  Biso   1.000  O
  O413     1.0000 0.15400  0.57700  0.17900  Biso   1.000  O
  O414     1.0000 0.57700  0.15400  0.67900  Biso   1.000  O
  O415     1.0000 0.42300  0.57700  0.17900  Biso   1.000  O
  O416     1.0000 0.84600  0.42300  0.67900  Biso   1.000  O
  O417     1.0000 0.15400  0.57700  0.32100  Biso   1.000  O
  O418     1.0000 0.57700  0.15400  0.82100  Biso   1.000  O
  O419     1.0000 0.42300  0.57700  0.32100  Biso   1.000  O
  O420     1.0000 0.84600  0.42300  0.82100  Biso   1.000  O
  O421     1.0000 0.42300  0.84600  0.32100  Biso   1.000  O
  O422     1.0000 0.57700  0.42300  0.82100  Biso   1.000  O
  O423     1.0000 0.33330  0.66670  0.49400  Biso   1.000  O
  O424     1.0000 0.66660  0.33330  0.99400  Biso   1.000  O
  O425     1.0000 0.33330  0.66670  0.00600  Biso   1.000  O
  O426     1.0000 0.66660  0.33330  0.50600  Biso   1.000  O
  O427     1.0000 0.30910  0.69090  0.55800  Biso   1.000  O
  O428     1.0000 0.61820  0.30910  0.05800  Biso   1.000  O
  O429     1.0000 0.30910  0.61820  0.55800  Biso   1.000  O
  O430     1.0000 0.69090  0.30910  0.05800  Biso   1.000  O
  O431     1.0000 0.38180  0.69090  0.55800  Biso   1.000  O
  O432     1.0000 0.69090  0.38180  0.05800  Biso   1.000  O
  O433     1.0000 0.30910  0.69090  0.94200  Biso   1.000  O
  O434     1.0000 0.61820  0.30910  0.44200  Biso   1.000  O
  O435     1.0000 0.30910  0.61820  0.94200  Biso   1.000  O
  O436     1.0000 0.69090  0.30910  0.44200  Biso   1.000  O
  O437     1.0000 0.38180  0.69090  0.94200  Biso   1.000  O
  O438     1.0000 0.69090  0.38180  0.44200  Biso   1.000  O
  O439     1.0000 0.46900  0.93900  0.17300  Biso   1.000  O
  O440     1.0000 0.53000  0.46900  0.67300  Biso   1.000  O
  O441     1.0000 0.06100  0.53000  0.17300  Biso   1.000  O
  O442     1.0000 0.53100  0.06100  0.67300  Biso   1.000  O
  O443     1.0000 0.47000  0.53100  0.17300  Biso   1.000  O
  O444     1.0000 0.93900  0.47000  0.67300  Biso   1.000  O
  O445     1.0000 0.06100  0.53100  0.32700  Biso   1.000  O
  O446     1.0000 0.53000  0.06100  0.82700  Biso   1.000  O
  O447     1.0000 0.46900  0.53000  0.32700  Biso   1.000  O
  O448     1.0000 0.93900  0.46900  0.82700  Biso   1.000  O
  O449     1.0000 0.47000  0.93900  0.32700  Biso   1.000  O
  O450     1.0000 0.53100  0.47000  0.82700  Biso   1.000  O
  O451     1.0000 0.53100  0.06100  0.82700  Biso   1.000  O
  O452     1.0000 0.47000  0.53100  0.32700  Biso   1.000  O
  O453     1.0000 0.93900  0.47000  0.82700  Biso   1.000  O
  O454     1.0000 0.46900  0.93900  0.32700  Biso   1.000  O
  O455     1.0000 0.53000  0.46900  0.82700  Biso   1.000  O
  O456     1.0000 0.06100  0.53000  0.32700  Biso   1.000  O
  O457     1.0000 0.93900  0.46900  0.67300  Biso   1.000  O
  O458     1.0000 0.47000  0.93900  0.17300  Biso   1.000  O
  O459     1.0000 0.53100  0.47000  0.67300  Biso   1.000  O
  O460     1.0000 0.06100  0.53100  0.17300  Biso   1.000  O
  O461     1.0000 0.53000  0.06100  0.67300  Biso   1.000  O
  O462     1.0000 0.46900  0.53000  0.17300  Biso   1.000  O
  O463     1.0000 0.95070  0.90100  0.46320  Biso   1.000  O
  O464     1.0000 0.04970  0.95070  0.96320  Biso   1.000  O
  O465     1.0000 0.09900  0.04970  0.46320  Biso   1.000  O
  O466     1.0000 0.04930  0.09900  0.96320  Biso   1.000  O
  O467     1.0000 0.95030  0.04930  0.46320  Biso   1.000  O
  O468     1.0000 0.90100  0.95030  0.96320  Biso   1.000  O
  O469     1.0000 0.09900  0.04930  0.03680  Biso   1.000  O
  O470     1.0000 0.04970  0.09900  0.53680  Biso   1.000  O
  O471     1.0000 0.95070  0.04970  0.03680  Biso   1.000  O
  O472     1.0000 0.90100  0.95070  0.53680  Biso   1.000  O
  O473     1.0000 0.95030  0.90100  0.03680  Biso   1.000  O
  O474     1.0000 0.04930  0.95030  0.53680  Biso   1.000  O
  N25      1.0000 0.03300  0.96800  0.44310  Biso   1.000  N
  N26      1.0000 0.06500  0.03300  0.94310  Biso   1.000  N
  N27      1.0000 0.96700  0.03200  0.94310  Biso   1.000  N
  N28      1.0000 0.93500  0.96700  0.44310  Biso   1.000  N
  N29      1.0000 0.03200  0.96700  0.05690  Biso   1.000  N
  N30      1.0000 0.03300  0.06500  0.05690  Biso   1.000  N
  N31      1.0000 0.96800  0.03300  0.55690  Biso   1.000  N
  N32      1.0000 0.96700  0.93500  0.55690  Biso   1.000  N
