data_image0
_cell_length_a       15.6854
_cell_length_b       15.6854
_cell_length_c       23.2536
_cell_angle_alpha    90
_cell_angle_beta     90
_cell_angle_gamma    90

_symmetry_space_group_name_H-M    "P 1"
_symmetry_int_tables_number       1

loop_
  _symmetry_equiv_pos_as_xyz
  'x, y, z'

loop_
  _atom_site_label
  _atom_site_occupancy
  _atom_site_fract_x
  _atom_site_fract_y
  _atom_site_fract_z
  _atom_site_thermal_displace_type
  _atom_site_B_iso_or_equiv
  _atom_site_type_symbol
  Cu1      1.0000 0.04027  0.02577  0.55249  Biso   1.000  Cu
  Cu2      1.0000 0.95973  0.47423  0.55249  Biso   1.000  Cu
  Cu3      1.0000 0.72423  0.29027  0.80249  Biso   1.000  Cu
  Cu4      1.0000 0.27577  0.20973  0.80249  Biso   1.000  Cu
  Cu5      1.0000 0.54027  0.52577  0.05249  Biso   1.000  Cu
  Cu6      1.0000 0.45973  0.97423  0.05249  Biso   1.000  Cu
  Cu7      1.0000 0.22423  0.79027  0.30249  Biso   1.000  Cu
  Cu8      1.0000 0.77577  0.70973  0.30249  Biso   1.000  Cu
  Cu9      1.0000 0.95973  0.97423  0.44751  Biso   1.000  Cu
  Cu10     1.0000 0.04027  0.52577  0.44751  Biso   1.000  Cu
  Cu11     1.0000 0.77577  0.20973  0.69751  Biso   1.000  Cu
  Cu12     1.0000 0.22423  0.29027  0.69751  Biso   1.000  Cu
  Cu13     1.0000 0.45973  0.47423  0.94751  Biso   1.000  Cu
  Cu14     1.0000 0.54027  0.02577  0.94751  Biso   1.000  Cu
  Cu15     1.0000 0.27577  0.70973  0.19751  Biso   1.000  Cu
  Cu16     1.0000 0.72423  0.79027  0.19751  Biso   1.000  Cu
  N1       1.0000 0.28700  0.91890  0.51510  Biso   1.000  N
  N2       1.0000 0.71300  0.58110  0.51510  Biso   1.000  N
  N3       1.0000 0.83110  0.53700  0.76510  Biso   1.000  N
  N4       1.0000 0.16890  0.96300  0.76510  Biso   1.000  N
  N5       1.0000 0.78700  0.41890  0.01510  Biso   1.000  N
  N6       1.0000 0.21300  0.08110  0.01510  Biso   1.000  N
  N7       1.0000 0.33110  0.03700  0.26510  Biso   1.000  N
  N8       1.0000 0.66890  0.46300  0.26510  Biso   1.000  N
  N9       1.0000 0.71300  0.08110  0.48490  Biso   1.000  N
  N10      1.0000 0.28700  0.41890  0.48490  Biso   1.000  N
  N11      1.0000 0.66890  0.96300  0.73490  Biso   1.000  N
  N12      1.0000 0.33110  0.53700  0.73490  Biso   1.000  N
  N13      1.0000 0.21300  0.58110  0.98490  Biso   1.000  N
  N14      1.0000 0.78700  0.91890  0.98490  Biso   1.000  N
  N15      1.0000 0.16890  0.46300  0.23490  Biso   1.000  N
  N16      1.0000 0.83110  0.03700  0.23490  Biso   1.000  N
  C1       1.0000 0.22150  0.95600  0.54080  Biso   1.000  C
  C2       1.0000 0.77850  0.54400  0.54080  Biso   1.000  C
  C3       1.0000 0.79400  0.47150  0.79080  Biso   1.000  C
  C4       1.0000 0.20600  0.02850  0.79080  Biso   1.000  C
  C5       1.0000 0.72150  0.45600  0.04080  Biso   1.000  C
  C6       1.0000 0.27850  0.04400  0.04080  Biso   1.000  C
  C7       1.0000 0.29400  0.97150  0.29080  Biso   1.000  C
  C8       1.0000 0.70600  0.52850  0.29080  Biso   1.000  C
  C9       1.0000 0.77850  0.04400  0.45920  Biso   1.000  C
  C10      1.0000 0.22150  0.45600  0.45920  Biso   1.000  C
  C11      1.0000 0.70600  0.02850  0.70920  Biso   1.000  C
  C12      1.0000 0.29400  0.47150  0.70920  Biso   1.000  C
  C13      1.0000 0.27850  0.54400  0.95920  Biso   1.000  C
  C14      1.0000 0.72150  0.95600  0.95920  Biso   1.000  C
  C15      1.0000 0.20600  0.52850  0.20920  Biso   1.000  C
  C16      1.0000 0.79400  0.97150  0.20920  Biso   1.000  C
  H1       1.0000 0.23150  0.98070  0.57650  Biso   1.000  H
  H2       1.0000 0.76850  0.51930  0.57650  Biso   1.000  H
  H3       1.0000 0.76930  0.48150  0.82650  Biso   1.000  H
  H4       1.0000 0.23070  0.01850  0.82650  Biso   1.000  H
  H5       1.0000 0.73150  0.48070  0.07650  Biso   1.000  H
  H6       1.0000 0.26850  0.01930  0.07650  Biso   1.000  H
  H7       1.0000 0.26930  0.98150  0.32650  Biso   1.000  H
  H8       1.0000 0.73070  0.51850  0.32650  Biso   1.000  H
  H9       1.0000 0.76850  0.01930  0.42350  Biso   1.000  H
  H10      1.0000 0.23150  0.48070  0.42350  Biso   1.000  H
  H11      1.0000 0.73070  0.01850  0.67350  Biso   1.000  H
  H12      1.0000 0.26930  0.48150  0.67350  Biso   1.000  H
  H13      1.0000 0.26850  0.51930  0.92350  Biso   1.000  H
  H14      1.0000 0.73150  0.98070  0.92350  Biso   1.000  H
  H15      1.0000 0.23070  0.51850  0.17350  Biso   1.000  H
  H16      1.0000 0.76930  0.98150  0.17350  Biso   1.000  H
  N17      1.0000 0.14160  0.96100  0.52000  Biso   1.000  N
  N18      1.0000 0.85840  0.53900  0.52000  Biso   1.000  N
  N19      1.0000 0.78900  0.39160  0.77000  Biso   1.000  N
  N20      1.0000 0.21100  0.10840  0.77000  Biso   1.000  N
  N21      1.0000 0.64160  0.46100  0.02000  Biso   1.000  N
  N22      1.0000 0.35840  0.03900  0.02000  Biso   1.000  N
  N23      1.0000 0.28900  0.89160  0.27000  Biso   1.000  N
  N24      1.0000 0.71100  0.60840  0.27000  Biso   1.000  N
  N25      1.0000 0.85840  0.03900  0.48000  Biso   1.000  N
  N26      1.0000 0.14160  0.46100  0.48000  Biso   1.000  N
  N27      1.0000 0.71100  0.10840  0.73000  Biso   1.000  N
  N28      1.0000 0.28900  0.39160  0.73000  Biso   1.000  N
  N29      1.0000 0.35840  0.53900  0.98000  Biso   1.000  N
  N30      1.0000 0.64160  0.96100  0.98000  Biso   1.000  N
  N31      1.0000 0.21100  0.60840  0.23000  Biso   1.000  N
  N32      1.0000 0.78900  0.89160  0.23000  Biso   1.000  N
  C17      1.0000 0.13870  0.92320  0.46710  Biso   1.000  C
  C18      1.0000 0.86130  0.57680  0.46710  Biso   1.000  C
  C19      1.0000 0.82680  0.38870  0.71710  Biso   1.000  C
  C20      1.0000 0.17320  0.11130  0.71710  Biso   1.000  C
  C21      1.0000 0.63870  0.42320  0.96710  Biso   1.000  C
  C22      1.0000 0.36130  0.07680  0.96710  Biso   1.000  C
  C23      1.0000 0.32680  0.88870  0.21710  Biso   1.000  C
  C24      1.0000 0.67320  0.61130  0.21710  Biso   1.000  C
  C25      1.0000 0.86130  0.07680  0.53290  Biso   1.000  C
  C26      1.0000 0.13870  0.42320  0.53290  Biso   1.000  C
  C27      1.0000 0.67320  0.11130  0.78290  Biso   1.000  C
  C28      1.0000 0.32680  0.38870  0.78290  Biso   1.000  C
  C29      1.0000 0.36130  0.57680  0.03290  Biso   1.000  C
  C30      1.0000 0.63870  0.92320  0.03290  Biso   1.000  C
  C31      1.0000 0.17320  0.61130  0.28290  Biso   1.000  C
  C32      1.0000 0.82680  0.88870  0.28290  Biso   1.000  C
  C33      1.0000 0.20160  0.87910  0.43280  Biso   1.000  C
  C34      1.0000 0.79840  0.62090  0.43280  Biso   1.000  C
  C35      1.0000 0.87090  0.45160  0.68280  Biso   1.000  C
  C36      1.0000 0.12910  0.04840  0.68280  Biso   1.000  C
  C37      1.0000 0.70160  0.37910  0.93280  Biso   1.000  C
  C38      1.0000 0.29840  0.12090  0.93280  Biso   1.000  C
  C39      1.0000 0.37090  0.95160  0.18280  Biso   1.000  C
  C40      1.0000 0.62910  0.54840  0.18280  Biso   1.000  C
  C41      1.0000 0.79840  0.12090  0.56720  Biso   1.000  C
  C42      1.0000 0.20160  0.37910  0.56720  Biso   1.000  C
  C43      1.0000 0.62910  0.04840  0.81720  Biso   1.000  C
  C44      1.0000 0.37090  0.45160  0.81720  Biso   1.000  C
  C45      1.0000 0.29840  0.62090  0.06720  Biso   1.000  C
  C46      1.0000 0.70160  0.87910  0.06720  Biso   1.000  C
  C47      1.0000 0.12910  0.54840  0.31720  Biso   1.000  C
  C48      1.0000 0.87090  0.95160  0.31720  Biso   1.000  C
  C49      1.0000 0.28110  0.87670  0.45840  Biso   1.000  C
  C50      1.0000 0.71890  0.62330  0.45840  Biso   1.000  C
  C51      1.0000 0.87330  0.53110  0.70840  Biso   1.000  C
  C52      1.0000 0.12670  0.96890  0.70840  Biso   1.000  C
  C53      1.0000 0.78110  0.37670  0.95840  Biso   1.000  C
  C54      1.0000 0.21890  0.12330  0.95840  Biso   1.000  C
  C55      1.0000 0.37330  0.03110  0.20840  Biso   1.000  C
  C56      1.0000 0.62670  0.46890  0.20840  Biso   1.000  C
  C57      1.0000 0.71890  0.12330  0.54160  Biso   1.000  C
  C58      1.0000 0.28110  0.37670  0.54160  Biso   1.000  C
  C59      1.0000 0.62670  0.96890  0.79160  Biso   1.000  C
  C60      1.0000 0.37330  0.53110  0.79160  Biso   1.000  C
  C61      1.0000 0.21890  0.62330  0.04160  Biso   1.000  C
  C62      1.0000 0.78110  0.87670  0.04160  Biso   1.000  C
  C63      1.0000 0.12670  0.46890  0.29160  Biso   1.000  C
  C64      1.0000 0.87330  0.03110  0.29160  Biso   1.000  C
  N33      1.0000 0.35090  0.83990  0.43430  Biso   1.000  N
  N34      1.0000 0.64910  0.66010  0.43430  Biso   1.000  N
  N35      1.0000 0.91010  0.60090  0.68430  Biso   1.000  N
  N36      1.0000 0.08990  0.89910  0.68430  Biso   1.000  N
  N37      1.0000 0.85090  0.33990  0.93430  Biso   1.000  N
  N38      1.0000 0.14910  0.16010  0.93430  Biso   1.000  N
  N39      1.0000 0.41010  0.10090  0.18430  Biso   1.000  N
  N40      1.0000 0.58990  0.39910  0.18430  Biso   1.000  N
  N41      1.0000 0.64910  0.16010  0.56570  Biso   1.000  N
  N42      1.0000 0.35090  0.33990  0.56570  Biso   1.000  N
  N43      1.0000 0.58990  0.89910  0.81570  Biso   1.000  N
  N44      1.0000 0.41010  0.60090  0.81570  Biso   1.000  N
  N45      1.0000 0.14910  0.66010  0.06570  Biso   1.000  N
  N46      1.0000 0.85090  0.83990  0.06570  Biso   1.000  N
  N47      1.0000 0.08990  0.39910  0.31570  Biso   1.000  N
  N48      1.0000 0.91010  0.10090  0.31570  Biso   1.000  N
  H17      1.0000 0.34720  0.81630  0.40100  Biso   1.000  H
  H18      1.0000 0.65280  0.68370  0.40100  Biso   1.000  H
  H19      1.0000 0.93370  0.59720  0.65100  Biso   1.000  H
  H20      1.0000 0.06630  0.90280  0.65100  Biso   1.000  H
  H21      1.0000 0.84720  0.31630  0.90100  Biso   1.000  H
  H22      1.0000 0.15280  0.18370  0.90100  Biso   1.000  H
  H23      1.0000 0.43370  0.09720  0.15100  Biso   1.000  H
  H24      1.0000 0.56630  0.40280  0.15100  Biso   1.000  H
  H25      1.0000 0.65280  0.18370  0.59900  Biso   1.000  H
  H26      1.0000 0.34720  0.31630  0.59900  Biso   1.000  H
  H27      1.0000 0.56630  0.90280  0.84900  Biso   1.000  H
  H28      1.0000 0.43370  0.59720  0.84900  Biso   1.000  H
  H29      1.0000 0.15280  0.68370  0.09900  Biso   1.000  H
  H30      1.0000 0.84720  0.81630  0.09900  Biso   1.000  H
  H31      1.0000 0.06630  0.40280  0.34900  Biso   1.000  H
  H32      1.0000 0.93370  0.09720  0.34900  Biso   1.000  H
  H33      1.0000 0.39880  0.84040  0.45220  Biso   1.000  H
  H34      1.0000 0.60120  0.65960  0.45220  Biso   1.000  H
  H35      1.0000 0.90960  0.64880  0.70220  Biso   1.000  H
  H36      1.0000 0.09040  0.85120  0.70220  Biso   1.000  H
  H37      1.0000 0.89880  0.34040  0.95220  Biso   1.000  H
  H38      1.0000 0.10120  0.15960  0.95220  Biso   1.000  H
  H39      1.0000 0.40960  0.14880  0.20220  Biso   1.000  H
  H40      1.0000 0.59040  0.35120  0.20220  Biso   1.000  H
  H41      1.0000 0.60120  0.15960  0.54780  Biso   1.000  H
  H42      1.0000 0.39880  0.34040  0.54780  Biso   1.000  H
  H43      1.0000 0.59040  0.85120  0.79780  Biso   1.000  H
  H44      1.0000 0.40960  0.64880  0.79780  Biso   1.000  H
  H45      1.0000 0.10120  0.65960  0.04780  Biso   1.000  H
  H46      1.0000 0.89880  0.84040  0.04780  Biso   1.000  H
  H47      1.0000 0.09040  0.35120  0.29780  Biso   1.000  H
  H48      1.0000 0.90960  0.14880  0.29780  Biso   1.000  H
  N49      1.0000 0.17920  0.85160  0.38133  Biso   1.000  N
  N50      1.0000 0.82080  0.64840  0.38133  Biso   1.000  N
  N51      1.0000 0.89840  0.42920  0.63133  Biso   1.000  N
  N52      1.0000 0.10160  0.07080  0.63133  Biso   1.000  N
  N53      1.0000 0.67920  0.35160  0.88133  Biso   1.000  N
  N54      1.0000 0.32080  0.14840  0.88133  Biso   1.000  N
  N55      1.0000 0.39840  0.92920  0.13133  Biso   1.000  N
  N56      1.0000 0.60160  0.57080  0.13133  Biso   1.000  N
  N57      1.0000 0.82080  0.14840  0.61867  Biso   1.000  N
  N58      1.0000 0.17920  0.35160  0.61867  Biso   1.000  N
  N59      1.0000 0.60160  0.07080  0.86867  Biso   1.000  N
  N60      1.0000 0.39840  0.42920  0.86867  Biso   1.000  N
  N61      1.0000 0.32080  0.64840  0.11867  Biso   1.000  N
  N62      1.0000 0.67920  0.85160  0.11867  Biso   1.000  N
  N63      1.0000 0.10160  0.57080  0.36867  Biso   1.000  N
  N64      1.0000 0.89840  0.92920  0.36867  Biso   1.000  N
  C65      1.0000 0.09880  0.87780  0.38420  Biso   1.000  C
  C66      1.0000 0.90120  0.62220  0.38420  Biso   1.000  C
  C67      1.0000 0.87220  0.34880  0.63420  Biso   1.000  C
  C68      1.0000 0.12780  0.15120  0.63420  Biso   1.000  C
  C69      1.0000 0.59880  0.37780  0.88420  Biso   1.000  C
  C70      1.0000 0.40120  0.12220  0.88420  Biso   1.000  C
  C71      1.0000 0.37220  0.84880  0.13420  Biso   1.000  C
  C72      1.0000 0.62780  0.65120  0.13420  Biso   1.000  C
  C73      1.0000 0.90120  0.12220  0.61580  Biso   1.000  C
  C74      1.0000 0.09880  0.37780  0.61580  Biso   1.000  C
  C75      1.0000 0.62780  0.15120  0.86580  Biso   1.000  C
  C76      1.0000 0.37220  0.34880  0.86580  Biso   1.000  C
  C77      1.0000 0.40120  0.62220  0.11580  Biso   1.000  C
  C78      1.0000 0.59880  0.87780  0.11580  Biso   1.000  C
  C79      1.0000 0.12780  0.65120  0.36580  Biso   1.000  C
  C80      1.0000 0.87220  0.84880  0.36580  Biso   1.000  C
  H49      1.0000 0.06160  0.86860  0.35380  Biso   1.000  H
  H50      1.0000 0.93840  0.63140  0.35380  Biso   1.000  H
  H51      1.0000 0.88140  0.31160  0.60380  Biso   1.000  H
  H52      1.0000 0.11860  0.18840  0.60380  Biso   1.000  H
  H53      1.0000 0.56160  0.36860  0.85380  Biso   1.000  H
  H54      1.0000 0.43840  0.13140  0.85380  Biso   1.000  H
  H55      1.0000 0.38140  0.81160  0.10380  Biso   1.000  H
  H56      1.0000 0.61860  0.68840  0.10380  Biso   1.000  H
  H57      1.0000 0.93840  0.13140  0.64620  Biso   1.000  H
  H58      1.0000 0.06160  0.36860  0.64620  Biso   1.000  H
  H59      1.0000 0.61860  0.18840  0.89620  Biso   1.000  H
  H60      1.0000 0.38140  0.31160  0.89620  Biso   1.000  H
  H61      1.0000 0.43840  0.63140  0.14620  Biso   1.000  H
  H62      1.0000 0.56160  0.86860  0.14620  Biso   1.000  H
  H63      1.0000 0.11860  0.68840  0.39620  Biso   1.000  H
  H64      1.0000 0.88140  0.81160  0.39620  Biso   1.000  H
  N65      1.0000 0.07190  0.91850  0.43286  Biso   1.000  N
  N66      1.0000 0.92810  0.58150  0.43286  Biso   1.000  N
  N67      1.0000 0.83150  0.32190  0.68286  Biso   1.000  N
  N68      1.0000 0.16850  0.17810  0.68286  Biso   1.000  N
  N69      1.0000 0.57190  0.41850  0.93286  Biso   1.000  N
  N70      1.0000 0.42810  0.08150  0.93286  Biso   1.000  N
  N71      1.0000 0.33150  0.82190  0.18286  Biso   1.000  N
  N72      1.0000 0.66850  0.67810  0.18286  Biso   1.000  N
  N73      1.0000 0.92810  0.08150  0.56714  Biso   1.000  N
  N74      1.0000 0.07190  0.41850  0.56714  Biso   1.000  N
  N75      1.0000 0.66850  0.17810  0.81714  Biso   1.000  N
  N76      1.0000 0.33150  0.32190  0.81714  Biso   1.000  N
  N77      1.0000 0.42810  0.58150  0.06714  Biso   1.000  N
  N78      1.0000 0.57190  0.91850  0.06714  Biso   1.000  N
  N79      1.0000 0.16850  0.67810  0.31714  Biso   1.000  N
  N80      1.0000 0.83150  0.82190  0.31714  Biso   1.000  N
  O1       1.0000 0.07580  0.12380  0.50437  Biso   1.000  O
  O2       1.0000 0.92420  0.37620  0.50437  Biso   1.000  O
  O3       1.0000 0.62620  0.32580  0.75437  Biso   1.000  O
  O4       1.0000 0.37380  0.17420  0.75437  Biso   1.000  O
  O5       1.0000 0.57580  0.62380  0.00437  Biso   1.000  O
  O6       1.0000 0.42420  0.87620  0.00437  Biso   1.000  O
  O7       1.0000 0.12620  0.82580  0.25437  Biso   1.000  O
  O8       1.0000 0.87380  0.67420  0.25437  Biso   1.000  O
  O9       1.0000 0.92420  0.87620  0.49563  Biso   1.000  O
  O10      1.0000 0.07580  0.62380  0.49563  Biso   1.000  O
  O11      1.0000 0.87380  0.17420  0.74563  Biso   1.000  O
  O12      1.0000 0.12620  0.32580  0.74563  Biso   1.000  O
  O13      1.0000 0.42420  0.37620  0.99563  Biso   1.000  O
  O14      1.0000 0.57580  0.12380  0.99563  Biso   1.000  O
  O15      1.0000 0.37380  0.67420  0.24563  Biso   1.000  O
  O16      1.0000 0.62620  0.82580  0.24563  Biso   1.000  O
  O17      1.0000 0.01330  0.08430  0.42290  Biso   1.000  O
  O18      1.0000 0.98670  0.41570  0.42290  Biso   1.000  O
  O19      1.0000 0.66570  0.26330  0.67290  Biso   1.000  O
  O20      1.0000 0.33430  0.23670  0.67290  Biso   1.000  O
  O21      1.0000 0.51330  0.58430  0.92290  Biso   1.000  O
  O22      1.0000 0.48670  0.91570  0.92290  Biso   1.000  O
  O23      1.0000 0.16570  0.76330  0.17290  Biso   1.000  O
  O24      1.0000 0.83430  0.73670  0.17290  Biso   1.000  O
  O25      1.0000 0.98670  0.91570  0.57710  Biso   1.000  O
  O26      1.0000 0.01330  0.58430  0.57710  Biso   1.000  O
  O27      1.0000 0.83430  0.23670  0.82710  Biso   1.000  O
  O28      1.0000 0.16570  0.26330  0.82710  Biso   1.000  O
  O29      1.0000 0.48670  0.41570  0.07710  Biso   1.000  O
  O30      1.0000 0.51330  0.08430  0.07710  Biso   1.000  O
  O31      1.0000 0.33430  0.73670  0.32710  Biso   1.000  O
  O32      1.0000 0.66570  0.76330  0.32710  Biso   1.000  O
  C81      1.0000 0.06160  0.13150  0.45150  Biso   1.000  C
  C82      1.0000 0.93840  0.36850  0.45150  Biso   1.000  C
  C83      1.0000 0.61850  0.31160  0.70150  Biso   1.000  C
  C84      1.0000 0.38150  0.18840  0.70150  Biso   1.000  C
  C85      1.0000 0.56160  0.63150  0.95150  Biso   1.000  C
  C86      1.0000 0.43840  0.86850  0.95150  Biso   1.000  C
  C87      1.0000 0.11850  0.81160  0.20150  Biso   1.000  C
  C88      1.0000 0.88150  0.68840  0.20150  Biso   1.000  C
  C89      1.0000 0.93840  0.86850  0.54850  Biso   1.000  C
  C90      1.0000 0.06160  0.63150  0.54850  Biso   1.000  C
  C91      1.0000 0.88150  0.18840  0.79850  Biso   1.000  C
  C92      1.0000 0.11850  0.31160  0.79850  Biso   1.000  C
  C93      1.0000 0.43840  0.36850  0.04850  Biso   1.000  C
  C94      1.0000 0.56160  0.13150  0.04850  Biso   1.000  C
  C95      1.0000 0.38150  0.68840  0.29850  Biso   1.000  C
  C96      1.0000 0.61850  0.81160  0.29850  Biso   1.000  C
  C97      1.0000 0.10680  0.20310  0.42030  Biso   1.000  C
  C98      1.0000 0.89320  0.29690  0.42030  Biso   1.000  C
  C99      1.0000 0.54690  0.35680  0.67030  Biso   1.000  C
  C100     1.0000 0.45310  0.14320  0.67030  Biso   1.000  C
  C101     1.0000 0.60680  0.70310  0.92030  Biso   1.000  C
  C102     1.0000 0.39320  0.79690  0.92030  Biso   1.000  C
  C103     1.0000 0.04690  0.85680  0.17030  Biso   1.000  C
  C104     1.0000 0.95310  0.64320  0.17030  Biso   1.000  C
  C105     1.0000 0.89320  0.79690  0.57970  Biso   1.000  C
  C106     1.0000 0.10680  0.70310  0.57970  Biso   1.000  C
  C107     1.0000 0.95310  0.14320  0.82970  Biso   1.000  C
  C108     1.0000 0.04690  0.35680  0.82970  Biso   1.000  C
  C109     1.0000 0.39320  0.29690  0.07970  Biso   1.000  C
  C110     1.0000 0.60680  0.20310  0.07970  Biso   1.000  C
  C111     1.0000 0.45310  0.64320  0.32970  Biso   1.000  C
  C112     1.0000 0.54690  0.85680  0.32970  Biso   1.000  C
  H65      1.0000 0.10900  0.18970  0.37960  Biso   1.000  H
  H66      1.0000 0.89100  0.31030  0.37960  Biso   1.000  H
  H67      1.0000 0.56030  0.35900  0.62960  Biso   1.000  H
  H68      1.0000 0.43970  0.14100  0.62960  Biso   1.000  H
  H69      1.0000 0.60900  0.68970  0.87960  Biso   1.000  H
  H70      1.0000 0.39100  0.81030  0.87960  Biso   1.000  H
  H71      1.0000 0.06030  0.85900  0.12960  Biso   1.000  H
  H72      1.0000 0.93970  0.64100  0.12960  Biso   1.000  H
  H73      1.0000 0.89100  0.81030  0.62040  Biso   1.000  H
  H74      1.0000 0.10900  0.68970  0.62040  Biso   1.000  H
  H75      1.0000 0.93970  0.14100  0.87040  Biso   1.000  H
  H76      1.0000 0.06030  0.35900  0.87040  Biso   1.000  H
  H77      1.0000 0.39100  0.31030  0.12040  Biso   1.000  H
  H78      1.0000 0.60900  0.18970  0.12040  Biso   1.000  H
  H79      1.0000 0.43970  0.64100  0.37040  Biso   1.000  H
  H80      1.0000 0.56030  0.85900  0.37040  Biso   1.000  H
  H81      1.0000 0.07400  0.25510  0.42480  Biso   1.000  H
  H82      1.0000 0.92600  0.24490  0.42480  Biso   1.000  H
  H83      1.0000 0.49490  0.32400  0.67480  Biso   1.000  H
  H84      1.0000 0.50510  0.17600  0.67480  Biso   1.000  H
  H85      1.0000 0.57400  0.75510  0.92480  Biso   1.000  H
  H86      1.0000 0.42600  0.74490  0.92480  Biso   1.000  H
  H87      1.0000 0.99490  0.82400  0.17480  Biso   1.000  H
  H88      1.0000 0.00510  0.67600  0.17480  Biso   1.000  H
  H89      1.0000 0.92600  0.74490  0.57520  Biso   1.000  H
  H90      1.0000 0.07400  0.75510  0.57520  Biso   1.000  H
  H91      1.0000 0.00510  0.17600  0.82520  Biso   1.000  H
  H92      1.0000 0.99490  0.32400  0.82520  Biso   1.000  H
  H93      1.0000 0.42600  0.24490  0.07520  Biso   1.000  H
  H94      1.0000 0.57400  0.25510  0.07520  Biso   1.000  H
  H95      1.0000 0.50510  0.67600  0.32520  Biso   1.000  H
  H96      1.0000 0.49490  0.82400  0.32520  Biso   1.000  H
  C113     1.0000 0.19630  0.21850  0.44170  Biso   1.000  C
  C114     1.0000 0.80370  0.28150  0.44170  Biso   1.000  C
  C115     1.0000 0.53150  0.44630  0.69170  Biso   1.000  C
  C116     1.0000 0.46850  0.05370  0.69170  Biso   1.000  C
  C117     1.0000 0.69630  0.71850  0.94170  Biso   1.000  C
  C118     1.0000 0.30370  0.78150  0.94170  Biso   1.000  C
  C119     1.0000 0.03150  0.94630  0.19170  Biso   1.000  C
  C120     1.0000 0.96850  0.55370  0.19170  Biso   1.000  C
  C121     1.0000 0.80370  0.78150  0.55830  Biso   1.000  C
  C122     1.0000 0.19630  0.71850  0.55830  Biso   1.000  C
  C123     1.0000 0.96850  0.05370  0.80830  Biso   1.000  C
  C124     1.0000 0.03150  0.44630  0.80830  Biso   1.000  C
  C125     1.0000 0.30370  0.28150  0.05830  Biso   1.000  C
  C126     1.0000 0.69630  0.21850  0.05830  Biso   1.000  C
  C127     1.0000 0.46850  0.55370  0.30830  Biso   1.000  C
  C128     1.0000 0.53150  0.94630  0.30830  Biso   1.000  C
  H97      1.0000 0.19400  0.23270  0.48230  Biso   1.000  H
  H98      1.0000 0.80600  0.26730  0.48230  Biso   1.000  H
  H99      1.0000 0.51730  0.44400  0.73230  Biso   1.000  H
  H100     1.0000 0.48270  0.05600  0.73230  Biso   1.000  H
  H101     1.0000 0.69400  0.73270  0.98230  Biso   1.000  H
  H102     1.0000 0.30600  0.76730  0.98230  Biso   1.000  H
  H103     1.0000 0.01730  0.94400  0.23230  Biso   1.000  H
  H104     1.0000 0.98270  0.55600  0.23230  Biso   1.000  H
  H105     1.0000 0.80600  0.76730  0.51770  Biso   1.000  H
  H106     1.0000 0.19400  0.73270  0.51770  Biso   1.000  H
  H107     1.0000 0.98270  0.05600  0.76770  Biso   1.000  H
  H108     1.0000 0.01730  0.44400  0.76770  Biso   1.000  H
  H109     1.0000 0.30600  0.26730  0.01770  Biso   1.000  H
  H110     1.0000 0.69400  0.23270  0.01770  Biso   1.000  H
  H111     1.0000 0.48270  0.55600  0.26770  Biso   1.000  H
  H112     1.0000 0.51730  0.94400  0.26770  Biso   1.000  H
  H113     1.0000 0.22010  0.26700  0.42150  Biso   1.000  H
  H114     1.0000 0.77990  0.23300  0.42150  Biso   1.000  H
  H115     1.0000 0.48300  0.47010  0.67150  Biso   1.000  H
  H116     1.0000 0.51700  0.02990  0.67150  Biso   1.000  H
  H117     1.0000 0.72010  0.76700  0.92150  Biso   1.000  H
  H118     1.0000 0.27990  0.73300  0.92150  Biso   1.000  H
  H119     1.0000 0.98300  0.97010  0.17150  Biso   1.000  H
  H120     1.0000 0.01700  0.52990  0.17150  Biso   1.000  H
  H121     1.0000 0.77990  0.73300  0.57850  Biso   1.000  H
  H122     1.0000 0.22010  0.76700  0.57850  Biso   1.000  H
  H123     1.0000 0.01700  0.02990  0.82850  Biso   1.000  H
  H124     1.0000 0.98300  0.47010  0.82850  Biso   1.000  H
  H125     1.0000 0.27990  0.23300  0.07850  Biso   1.000  H
  H126     1.0000 0.72010  0.26700  0.07850  Biso   1.000  H
  H127     1.0000 0.51700  0.52990  0.32850  Biso   1.000  H
  H128     1.0000 0.48300  0.97010  0.32850  Biso   1.000  H
  C129     1.0000 0.25480  0.14240  0.43360  Biso   1.000  C
  C130     1.0000 0.74520  0.35760  0.43360  Biso   1.000  C
  C131     1.0000 0.60760  0.50480  0.68360  Biso   1.000  C
  C132     1.0000 0.39240  0.99520  0.68360  Biso   1.000  C
  C133     1.0000 0.75480  0.64240  0.93360  Biso   1.000  C
  C134     1.0000 0.24520  0.85760  0.93360  Biso   1.000  C
  C135     1.0000 0.10760  0.00480  0.18360  Biso   1.000  C
  C136     1.0000 0.89240  0.49520  0.18360  Biso   1.000  C
  C137     1.0000 0.74520  0.85760  0.56640  Biso   1.000  C
  C138     1.0000 0.25480  0.64240  0.56640  Biso   1.000  C
  C139     1.0000 0.89240  0.99520  0.81640  Biso   1.000  C
  C140     1.0000 0.10760  0.50480  0.81640  Biso   1.000  C
  C141     1.0000 0.24520  0.35760  0.06640  Biso   1.000  C
  C142     1.0000 0.75480  0.14240  0.06640  Biso   1.000  C
  C143     1.0000 0.39240  0.49520  0.31640  Biso   1.000  C
  C144     1.0000 0.60760  0.00480  0.31640  Biso   1.000  C
  H129     1.0000 0.25810  0.12850  0.39300  Biso   1.000  H
  H130     1.0000 0.74190  0.37150  0.39300  Biso   1.000  H
  H131     1.0000 0.62150  0.50810  0.64300  Biso   1.000  H
  H132     1.0000 0.37850  0.99190  0.64300  Biso   1.000  H
  H133     1.0000 0.75810  0.62850  0.89300  Biso   1.000  H
  H134     1.0000 0.24190  0.87150  0.89300  Biso   1.000  H
  H135     1.0000 0.12150  0.00810  0.14300  Biso   1.000  H
  H136     1.0000 0.87850  0.49190  0.14300  Biso   1.000  H
  H137     1.0000 0.74190  0.87150  0.60700  Biso   1.000  H
  H138     1.0000 0.25810  0.62850  0.60700  Biso   1.000  H
  H139     1.0000 0.87850  0.99190  0.85700  Biso   1.000  H
  H140     1.0000 0.12150  0.50810  0.85700  Biso   1.000  H
  H141     1.0000 0.24190  0.37150  0.10700  Biso   1.000  H
  H142     1.0000 0.75810  0.12850  0.10700  Biso   1.000  H
  H143     1.0000 0.37850  0.49190  0.35700  Biso   1.000  H
  H144     1.0000 0.62150  0.00810  0.35700  Biso   1.000  H
  H145     1.0000 0.23120  0.09350  0.45350  Biso   1.000  H
  H146     1.0000 0.76880  0.40650  0.45350  Biso   1.000  H
  H147     1.0000 0.65650  0.48120  0.70350  Biso   1.000  H
  H148     1.0000 0.34350  0.01880  0.70350  Biso   1.000  H
  H149     1.0000 0.73120  0.59350  0.95350  Biso   1.000  H
  H150     1.0000 0.26880  0.90650  0.95350  Biso   1.000  H
  H151     1.0000 0.15650  0.98120  0.20350  Biso   1.000  H
  H152     1.0000 0.84350  0.51880  0.20350  Biso   1.000  H
  H153     1.0000 0.76880  0.90650  0.54650  Biso   1.000  H
  H154     1.0000 0.23120  0.59350  0.54650  Biso   1.000  H
  H155     1.0000 0.84350  0.01880  0.79650  Biso   1.000  H
  H156     1.0000 0.15650  0.48120  0.79650  Biso   1.000  H
  H157     1.0000 0.26880  0.40650  0.04650  Biso   1.000  H
  H158     1.0000 0.73120  0.09350  0.04650  Biso   1.000  H
  H159     1.0000 0.34350  0.51880  0.29650  Biso   1.000  H
  H160     1.0000 0.65650  0.98120  0.29650  Biso   1.000  H
  C145     1.0000 0.34420  0.16030  0.45640  Biso   1.000  C
  C146     1.0000 0.65580  0.33970  0.45640  Biso   1.000  C
  C147     1.0000 0.58970  0.59420  0.70640  Biso   1.000  C
  C148     1.0000 0.41030  0.90580  0.70640  Biso   1.000  C
  C149     1.0000 0.84420  0.66030  0.95640  Biso   1.000  C
  C150     1.0000 0.15580  0.83970  0.95640  Biso   1.000  C
  C151     1.0000 0.08970  0.09420  0.20640  Biso   1.000  C
  C152     1.0000 0.91030  0.40580  0.20640  Biso   1.000  C
  C153     1.0000 0.65580  0.83970  0.54360  Biso   1.000  C
  C154     1.0000 0.34420  0.66030  0.54360  Biso   1.000  C
  C155     1.0000 0.91030  0.90580  0.79360  Biso   1.000  C
  C156     1.0000 0.08970  0.59420  0.79360  Biso   1.000  C
  C157     1.0000 0.15580  0.33970  0.04360  Biso   1.000  C
  C158     1.0000 0.84420  0.16030  0.04360  Biso   1.000  C
  C159     1.0000 0.41030  0.40580  0.29360  Biso   1.000  C
  C160     1.0000 0.58970  0.09420  0.29360  Biso   1.000  C
  H161     1.0000 0.36360  0.21480  0.44160  Biso   1.000  H
  H162     1.0000 0.63640  0.28520  0.44160  Biso   1.000  H
  H163     1.0000 0.53520  0.61360  0.69160  Biso   1.000  H
  H164     1.0000 0.46480  0.88640  0.69160  Biso   1.000  H
  H165     1.0000 0.86360  0.71480  0.94160  Biso   1.000  H
  H166     1.0000 0.13640  0.78520  0.94160  Biso   1.000  H
  H167     1.0000 0.03520  0.11360  0.19160  Biso   1.000  H
  H168     1.0000 0.96480  0.38640  0.19160  Biso   1.000  H
  H169     1.0000 0.63640  0.78520  0.55840  Biso   1.000  H
  H170     1.0000 0.36360  0.71480  0.55840  Biso   1.000  H
  H171     1.0000 0.96480  0.88640  0.80840  Biso   1.000  H
  H172     1.0000 0.03520  0.61360  0.80840  Biso   1.000  H
  H173     1.0000 0.13640  0.28520  0.05840  Biso   1.000  H
  H174     1.0000 0.86360  0.21480  0.05840  Biso   1.000  H
  H175     1.0000 0.46480  0.38640  0.30840  Biso   1.000  H
  H176     1.0000 0.53520  0.11360  0.30840  Biso   1.000  H
  H177     1.0000 0.34200  0.16440  0.49800  Biso   1.000  H
  H178     1.0000 0.65800  0.33560  0.49800  Biso   1.000  H
  H179     1.0000 0.58560  0.59200  0.74800  Biso   1.000  H
  H180     1.0000 0.41440  0.90800  0.74800  Biso   1.000  H
  H181     1.0000 0.84200  0.66440  0.99800  Biso   1.000  H
  H182     1.0000 0.15800  0.83560  0.99800  Biso   1.000  H
  H183     1.0000 0.08560  0.09200  0.24800  Biso   1.000  H
  H184     1.0000 0.91440  0.40800  0.24800  Biso   1.000  H
  H185     1.0000 0.65800  0.83560  0.50200  Biso   1.000  H
  H186     1.0000 0.34200  0.66440  0.50200  Biso   1.000  H
  H187     1.0000 0.91440  0.90800  0.75200  Biso   1.000  H
  H188     1.0000 0.08560  0.59200  0.75200  Biso   1.000  H
  H189     1.0000 0.15800  0.33560  0.00200  Biso   1.000  H
  H190     1.0000 0.84200  0.16440  0.00200  Biso   1.000  H
  H191     1.0000 0.41440  0.40800  0.25200  Biso   1.000  H
  H192     1.0000 0.58560  0.09200  0.25200  Biso   1.000  H
  C161     1.0000 0.40690  0.09250  0.43980  Biso   1.000  C
  C162     1.0000 0.59310  0.40750  0.43980  Biso   1.000  C
  C163     1.0000 0.65750  0.65690  0.68980  Biso   1.000  C
  C164     1.0000 0.34250  0.84310  0.68980  Biso   1.000  C
  C165     1.0000 0.90690  0.59250  0.93980  Biso   1.000  C
  C166     1.0000 0.09310  0.90750  0.93980  Biso   1.000  C
  C167     1.0000 0.15750  0.15690  0.18980  Biso   1.000  C
  C168     1.0000 0.84250  0.34310  0.18980  Biso   1.000  C
  C169     1.0000 0.59310  0.90750  0.56020  Biso   1.000  C
  C170     1.0000 0.40690  0.59250  0.56020  Biso   1.000  C
  C171     1.0000 0.84250  0.84310  0.81020  Biso   1.000  C
  C172     1.0000 0.15750  0.65690  0.81020  Biso   1.000  C
  C173     1.0000 0.09310  0.40750  0.06020  Biso   1.000  C
  C174     1.0000 0.90690  0.09250  0.06020  Biso   1.000  C
  C175     1.0000 0.34250  0.34310  0.31020  Biso   1.000  C
  C176     1.0000 0.65750  0.15690  0.31020  Biso   1.000  C
  H193     1.0000 0.41300  0.09220  0.39830  Biso   1.000  H
  H194     1.0000 0.58700  0.40780  0.39830  Biso   1.000  H
  H195     1.0000 0.65780  0.66300  0.64830  Biso   1.000  H
  H196     1.0000 0.34220  0.83700  0.64830  Biso   1.000  H
  H197     1.0000 0.91300  0.59220  0.89830  Biso   1.000  H
  H198     1.0000 0.08700  0.90780  0.89830  Biso   1.000  H
  H199     1.0000 0.15780  0.16300  0.14830  Biso   1.000  H
  H200     1.0000 0.84220  0.33700  0.14830  Biso   1.000  H
  H201     1.0000 0.58700  0.90780  0.60170  Biso   1.000  H
  H202     1.0000 0.41300  0.59220  0.60170  Biso   1.000  H
  H203     1.0000 0.84220  0.83700  0.85170  Biso   1.000  H
  H204     1.0000 0.15780  0.66300  0.85170  Biso   1.000  H
  H205     1.0000 0.08700  0.40780  0.10170  Biso   1.000  H
  H206     1.0000 0.91300  0.09220  0.10170  Biso   1.000  H
  H207     1.0000 0.34220  0.33700  0.35170  Biso   1.000  H
  H208     1.0000 0.65780  0.16300  0.35170  Biso   1.000  H
  H209     1.0000 0.38460  0.03740  0.45130  Biso   1.000  H
  H210     1.0000 0.61540  0.46260  0.45130  Biso   1.000  H
  H211     1.0000 0.71260  0.63460  0.70130  Biso   1.000  H
  H212     1.0000 0.28740  0.86540  0.70130  Biso   1.000  H
  H213     1.0000 0.88460  0.53740  0.95130  Biso   1.000  H
  H214     1.0000 0.11540  0.96260  0.95130  Biso   1.000  H
  H215     1.0000 0.21260  0.13460  0.20130  Biso   1.000  H
  H216     1.0000 0.78740  0.36540  0.20130  Biso   1.000  H
  H217     1.0000 0.61540  0.96260  0.54870  Biso   1.000  H
  H218     1.0000 0.38460  0.53740  0.54870  Biso   1.000  H
  H219     1.0000 0.78740  0.86540  0.79870  Biso   1.000  H
  H220     1.0000 0.21260  0.63460  0.79870  Biso   1.000  H
  H221     1.0000 0.11540  0.46260  0.04870  Biso   1.000  H
  H222     1.0000 0.88460  0.03740  0.04870  Biso   1.000  H
  H223     1.0000 0.28740  0.36540  0.29870  Biso   1.000  H
  H224     1.0000 0.71260  0.13460  0.29870  Biso   1.000  H
  C177     1.0000 0.49410  0.10500  0.46690  Biso   1.000  C
  C178     1.0000 0.50590  0.39500  0.46690  Biso   1.000  C
  C179     1.0000 0.64500  0.74410  0.71690  Biso   1.000  C
  C180     1.0000 0.35500  0.75590  0.71690  Biso   1.000  C
  C181     1.0000 0.99410  0.60500  0.96690  Biso   1.000  C
  C182     1.0000 0.00590  0.89500  0.96690  Biso   1.000  C
  C183     1.0000 0.14500  0.24410  0.21690  Biso   1.000  C
  C184     1.0000 0.85500  0.25590  0.21690  Biso   1.000  C
  C185     1.0000 0.50590  0.89500  0.53310  Biso   1.000  C
  C186     1.0000 0.49410  0.60500  0.53310  Biso   1.000  C
  C187     1.0000 0.85500  0.75590  0.78310  Biso   1.000  C
  C188     1.0000 0.14500  0.74410  0.78310  Biso   1.000  C
  C189     1.0000 0.00590  0.39500  0.03310  Biso   1.000  C
  C190     1.0000 0.99410  0.10500  0.03310  Biso   1.000  C
  C191     1.0000 0.35500  0.25590  0.28310  Biso   1.000  C
  C192     1.0000 0.64500  0.24410  0.28310  Biso   1.000  C
  O33      1.0000 0.55510  0.07330  0.44050  Biso   1.000  O
  O34      1.0000 0.44490  0.42670  0.44050  Biso   1.000  O
  O35      1.0000 0.67670  0.80510  0.69050  Biso   1.000  O
  O36      1.0000 0.32330  0.69490  0.69050  Biso   1.000  O
  O37      1.0000 0.05510  0.57330  0.94050  Biso   1.000  O
  O38      1.0000 0.94490  0.92670  0.94050  Biso   1.000  O
  O39      1.0000 0.17670  0.30510  0.19050  Biso   1.000  O
  O40      1.0000 0.82330  0.19490  0.19050  Biso   1.000  O
  O41      1.0000 0.44490  0.92670  0.55950  Biso   1.000  O
  O42      1.0000 0.55510  0.57330  0.55950  Biso   1.000  O
  O43      1.0000 0.82330  0.69490  0.80950  Biso   1.000  O
  O44      1.0000 0.17670  0.80510  0.80950  Biso   1.000  O
  O45      1.0000 0.94490  0.42670  0.05950  Biso   1.000  O
  O46      1.0000 0.05510  0.07330  0.05950  Biso   1.000  O
  O47      1.0000 0.32330  0.19490  0.30950  Biso   1.000  O
  O48      1.0000 0.67670  0.30510  0.30950  Biso   1.000  O
  O49      1.0000 0.50380  0.13660  0.51060  Biso   1.000  O
  O50      1.0000 0.49620  0.36340  0.51060  Biso   1.000  O
  O51      1.0000 0.61340  0.75380  0.76060  Biso   1.000  O
  O52      1.0000 0.38660  0.74620  0.76060  Biso   1.000  O
  O53      1.0000 0.00380  0.63660  0.01060  Biso   1.000  O
  O54      1.0000 0.99620  0.86340  0.01060  Biso   1.000  O
  O55      1.0000 0.11340  0.25380  0.26060  Biso   1.000  O
  O56      1.0000 0.88660  0.24620  0.26060  Biso   1.000  O
  O57      1.0000 0.49620  0.86340  0.48940  Biso   1.000  O
  O58      1.0000 0.50380  0.63660  0.48940  Biso   1.000  O
  O59      1.0000 0.88660  0.74620  0.73940  Biso   1.000  O
  O60      1.0000 0.11340  0.75380  0.73940  Biso   1.000  O
  O61      1.0000 0.99620  0.36340  0.98940  Biso   1.000  O
  O62      1.0000 0.00380  0.13660  0.98940  Biso   1.000  O
  O63      1.0000 0.38660  0.24620  0.23940  Biso   1.000  O
  O64      1.0000 0.61340  0.25380  0.23940  Biso   1.000  O
  H225     1.0000 0.61800  0.08270  0.45550  Biso   1.000  H
  H226     1.0000 0.38200  0.41730  0.45550  Biso   1.000  H
  H227     1.0000 0.66730  0.86800  0.70550  Biso   1.000  H
  H228     1.0000 0.33270  0.63200  0.70550  Biso   1.000  H
  H229     1.0000 0.11800  0.58270  0.95550  Biso   1.000  H
  H230     1.0000 0.88200  0.91730  0.95550  Biso   1.000  H
  H231     1.0000 0.16730  0.36800  0.20550  Biso   1.000  H
  H232     1.0000 0.83270  0.13200  0.20550  Biso   1.000  H
  H233     1.0000 0.38200  0.91730  0.54450  Biso   1.000  H
  H234     1.0000 0.61800  0.58270  0.54450  Biso   1.000  H
  H235     1.0000 0.83270  0.63200  0.79450  Biso   1.000  H
  H236     1.0000 0.16730  0.86800  0.79450  Biso   1.000  H
  H237     1.0000 0.88200  0.41730  0.04450  Biso   1.000  H
  H238     1.0000 0.11800  0.08270  0.04450  Biso   1.000  H
  H239     1.0000 0.33270  0.13200  0.29450  Biso   1.000  H
  H240     1.0000 0.66730  0.36800  0.29450  Biso   1.000  H
  C193     1.0000 0.76700  0.09460  0.52440  Biso   1.000  C
  C194     1.0000 0.23300  0.40540  0.52440  Biso   1.000  C
  C195     1.0000 0.65540  0.01700  0.77440  Biso   1.000  C
  C196     1.0000 0.34460  0.48300  0.77440  Biso   1.000  C
  C197     1.0000 0.26700  0.59460  0.02440  Biso   1.000  C
  C198     1.0000 0.73300  0.90540  0.02440  Biso   1.000  C
  C199     1.0000 0.15540  0.51700  0.27440  Biso   1.000  C
  C200     1.0000 0.84460  0.98300  0.27440  Biso   1.000  C
  C201     1.0000 0.23300  0.90540  0.47560  Biso   1.000  C
  C202     1.0000 0.76700  0.59460  0.47560  Biso   1.000  C
  C203     1.0000 0.84460  0.48300  0.72560  Biso   1.000  C
  C204     1.0000 0.15540  0.01700  0.72560  Biso   1.000  C
  C205     1.0000 0.73300  0.40540  0.97560  Biso   1.000  C
  C206     1.0000 0.26700  0.09460  0.97560  Biso   1.000  C
  C207     1.0000 0.34460  0.98300  0.22560  Biso   1.000  C
  C208     1.0000 0.65540  0.51700  0.22560  Biso   1.000  C
  C209     1.0000 0.74150  0.14040  0.57350  Biso   1.000  C
  C210     1.0000 0.25850  0.35960  0.57350  Biso   1.000  C
  C211     1.0000 0.60960  0.99150  0.82350  Biso   1.000  C
  C212     1.0000 0.39040  0.50850  0.82350  Biso   1.000  C
  C213     1.0000 0.24150  0.64040  0.07350  Biso   1.000  C
  C214     1.0000 0.75850  0.85960  0.07350  Biso   1.000  C
  C215     1.0000 0.10960  0.49150  0.32350  Biso   1.000  C
  C216     1.0000 0.89040  0.00850  0.32350  Biso   1.000  C
  C217     1.0000 0.25850  0.85960  0.42650  Biso   1.000  C
  C218     1.0000 0.74150  0.64040  0.42650  Biso   1.000  C
  C219     1.0000 0.89040  0.50850  0.67650  Biso   1.000  C
  C220     1.0000 0.10960  0.99150  0.67650  Biso   1.000  C
  C221     1.0000 0.75850  0.35960  0.92650  Biso   1.000  C
  C222     1.0000 0.24150  0.14040  0.92650  Biso   1.000  C
  C223     1.0000 0.39040  0.00850  0.17650  Biso   1.000  C
  C224     1.0000 0.60960  0.49150  0.17650  Biso   1.000  C
  H241     1.0000 0.62920  0.16520  0.55360  Biso   1.000  H
  H242     1.0000 0.37080  0.33480  0.55360  Biso   1.000  H
  H243     1.0000 0.58480  0.87920  0.80360  Biso   1.000  H
  H244     1.0000 0.41520  0.62080  0.80360  Biso   1.000  H
  H245     1.0000 0.12920  0.66520  0.05360  Biso   1.000  H
  H246     1.0000 0.87080  0.83480  0.05360  Biso   1.000  H
  H247     1.0000 0.08480  0.37920  0.30360  Biso   1.000  H
  H248     1.0000 0.91520  0.12080  0.30360  Biso   1.000  H
  H249     1.0000 0.37080  0.83480  0.44640  Biso   1.000  H
  H250     1.0000 0.62920  0.66520  0.44640  Biso   1.000  H
  H251     1.0000 0.91520  0.62080  0.69640  Biso   1.000  H
  H252     1.0000 0.08480  0.87920  0.69640  Biso   1.000  H
  H253     1.0000 0.87080  0.33480  0.94640  Biso   1.000  H
  H254     1.0000 0.12920  0.16520  0.94640  Biso   1.000  H
  H255     1.0000 0.41520  0.12080  0.19640  Biso   1.000  H
  H256     1.0000 0.58480  0.37920  0.19640  Biso   1.000  H
  H257     1.0000 0.65450  0.19920  0.61090  Biso   1.000  H
  H258     1.0000 0.34550  0.30080  0.61090  Biso   1.000  H
  H259     1.0000 0.55080  0.90450  0.86090  Biso   1.000  H
  H260     1.0000 0.44920  0.59550  0.86090  Biso   1.000  H
  H261     1.0000 0.15450  0.69920  0.11090  Biso   1.000  H
  H262     1.0000 0.84550  0.80080  0.11090  Biso   1.000  H
  H263     1.0000 0.05080  0.40450  0.36090  Biso   1.000  H
  H264     1.0000 0.94920  0.09550  0.36090  Biso   1.000  H
  H265     1.0000 0.34550  0.80080  0.38910  Biso   1.000  H
  H266     1.0000 0.65450  0.69920  0.38910  Biso   1.000  H
  H267     1.0000 0.94920  0.59550  0.63910  Biso   1.000  H
  H268     1.0000 0.05080  0.90450  0.63910  Biso   1.000  H
  H269     1.0000 0.84550  0.30080  0.88910  Biso   1.000  H
  H270     1.0000 0.15450  0.19920  0.88910  Biso   1.000  H
  H271     1.0000 0.44920  0.09550  0.13910  Biso   1.000  H
  H272     1.0000 0.55080  0.40450  0.13910  Biso   1.000  H
  N81      1.0000 0.66700  0.17200  0.58010  Biso   1.000  N
  N82      1.0000 0.33300  0.32800  0.58010  Biso   1.000  N
  N83      1.0000 0.57800  0.91700  0.83010  Biso   1.000  N
  N84      1.0000 0.42200  0.58300  0.83010  Biso   1.000  N
  N85      1.0000 0.16700  0.67200  0.08010  Biso   1.000  N
  N86      1.0000 0.83300  0.82800  0.08010  Biso   1.000  N
  N87      1.0000 0.07800  0.41700  0.33010  Biso   1.000  N
  N88      1.0000 0.92200  0.08300  0.33010  Biso   1.000  N
  N89      1.0000 0.33300  0.82800  0.41990  Biso   1.000  N
  N90      1.0000 0.66700  0.67200  0.41990  Biso   1.000  N
  N91      1.0000 0.92200  0.58300  0.66990  Biso   1.000  N
  N92      1.0000 0.07800  0.91700  0.66990  Biso   1.000  N
  N93      1.0000 0.83300  0.32800  0.91990  Biso   1.000  N
  N94      1.0000 0.16700  0.17200  0.91990  Biso   1.000  N
  N95      1.0000 0.42200  0.08300  0.16990  Biso   1.000  N
  N96      1.0000 0.57800  0.41700  0.16990  Biso   1.000  N
