data_image0
_cell_length_a       38.1357
_cell_length_b       22.2267
_cell_length_c       27.8475
_cell_angle_alpha    90
_cell_angle_beta     119.357
_cell_angle_gamma    90

_symmetry_space_group_name_H-M    "P 1"
_symmetry_int_tables_number       1

loop_
  _symmetry_equiv_pos_as_xyz
  'x, y, z'

loop_
  _atom_site_label
  _atom_site_occupancy
  _atom_site_fract_x
  _atom_site_fract_y
  _atom_site_fract_z
  _atom_site_thermal_displace_type
  _atom_site_B_iso_or_equiv
  _atom_site_type_symbol
  Cu1      1.0000 0.74607  0.20116  0.36313  Biso   1.000  Cu
  Cu2      1.0000 0.25393  0.20116  0.13687  Biso   1.000  Cu
  Cu3      1.0000 0.24607  0.70116  0.36313  Biso   1.000  Cu
  Cu4      1.0000 0.75393  0.70116  0.13687  Biso   1.000  Cu
  Cu5      1.0000 0.25393  0.79884  0.63687  Biso   1.000  Cu
  Cu6      1.0000 0.74607  0.79884  0.86313  Biso   1.000  Cu
  Cu7      1.0000 0.75393  0.29884  0.63687  Biso   1.000  Cu
  Cu8      1.0000 0.24607  0.29884  0.86313  Biso   1.000  Cu
  Cu9      1.0000 0.67021  0.21309  0.39149  Biso   1.000  Cu
  Cu10     1.0000 0.32979  0.21309  0.10851  Biso   1.000  Cu
  Cu11     1.0000 0.17021  0.71309  0.39149  Biso   1.000  Cu
  Cu12     1.0000 0.82979  0.71309  0.10851  Biso   1.000  Cu
  Cu13     1.0000 0.32979  0.78691  0.60851  Biso   1.000  Cu
  Cu14     1.0000 0.67021  0.78691  0.89149  Biso   1.000  Cu
  Cu15     1.0000 0.82979  0.28691  0.60851  Biso   1.000  Cu
  Cu16     1.0000 0.17021  0.28691  0.89149  Biso   1.000  Cu
  Cu17     1.0000 0.70833  0.33731  0.36519  Biso   1.000  Cu
  Cu18     1.0000 0.29167  0.33731  0.13481  Biso   1.000  Cu
  Cu19     1.0000 0.20833  0.83731  0.36519  Biso   1.000  Cu
  Cu20     1.0000 0.79167  0.83731  0.13481  Biso   1.000  Cu
  Cu21     1.0000 0.29167  0.66269  0.63481  Biso   1.000  Cu
  Cu22     1.0000 0.70833  0.66269  0.86519  Biso   1.000  Cu
  Cu23     1.0000 0.79167  0.16269  0.63481  Biso   1.000  Cu
  Cu24     1.0000 0.20833  0.16269  0.86519  Biso   1.000  Cu
  Cu25     1.0000 0.92947  0.71326  0.41962  Biso   1.000  Cu
  Cu26     1.0000 0.07053  0.71326  0.08038  Biso   1.000  Cu
  Cu27     1.0000 0.42947  0.21326  0.41962  Biso   1.000  Cu
  Cu28     1.0000 0.57053  0.21326  0.08038  Biso   1.000  Cu
  Cu29     1.0000 0.07053  0.28674  0.58038  Biso   1.000  Cu
  Cu30     1.0000 0.92947  0.28674  0.91962  Biso   1.000  Cu
  Cu31     1.0000 0.57053  0.78674  0.58038  Biso   1.000  Cu
  Cu32     1.0000 0.42947  0.78674  0.91962  Biso   1.000  Cu
  Cu33     1.0000 0.87952  0.83762  0.40105  Biso   1.000  Cu
  Cu34     1.0000 0.12048  0.83762  0.09895  Biso   1.000  Cu
  Cu35     1.0000 0.37952  0.33762  0.40105  Biso   1.000  Cu
  Cu36     1.0000 0.62048  0.33762  0.09895  Biso   1.000  Cu
  Cu37     1.0000 0.12048  0.16238  0.59895  Biso   1.000  Cu
  Cu38     1.0000 0.87952  0.16238  0.90105  Biso   1.000  Cu
  Cu39     1.0000 0.62048  0.66238  0.59895  Biso   1.000  Cu
  Cu40     1.0000 0.37952  0.66238  0.90105  Biso   1.000  Cu
  Cu41     1.0000 0.83824  0.70160  0.39605  Biso   1.000  Cu
  Cu42     1.0000 0.16176  0.70160  0.10395  Biso   1.000  Cu
  Cu43     1.0000 0.33824  0.20160  0.39605  Biso   1.000  Cu
  Cu44     1.0000 0.66176  0.20160  0.10395  Biso   1.000  Cu
  Cu45     1.0000 0.16176  0.29840  0.60395  Biso   1.000  Cu
  Cu46     1.0000 0.83824  0.29840  0.89605  Biso   1.000  Cu
  Cu47     1.0000 0.66176  0.79840  0.60395  Biso   1.000  Cu
  Cu48     1.0000 0.33824  0.79840  0.89605  Biso   1.000  Cu
  S1       1.0000 0.65338  0.23770  0.26548  Biso   1.000  S
  S2       1.0000 0.34662  0.23770  0.23452  Biso   1.000  S
  S3       1.0000 0.15338  0.73770  0.26548  Biso   1.000  S
  S4       1.0000 0.84662  0.73770  0.23452  Biso   1.000  S
  S5       1.0000 0.34662  0.76230  0.73452  Biso   1.000  S
  S6       1.0000 0.65338  0.76230  0.76548  Biso   1.000  S
  S7       1.0000 0.84662  0.26230  0.73452  Biso   1.000  S
  S8       1.0000 0.15338  0.26230  0.76548  Biso   1.000  S
  S9       1.0000 0.81199  0.11993  0.36094  Biso   1.000  S
  S10      1.0000 0.18801  0.11993  0.13906  Biso   1.000  S
  S11      1.0000 0.31199  0.61993  0.36094  Biso   1.000  S
  S12      1.0000 0.68801  0.61993  0.13906  Biso   1.000  S
  S13      1.0000 0.18801  0.88007  0.63906  Biso   1.000  S
  S14      1.0000 0.81199  0.88007  0.86094  Biso   1.000  S
  S15      1.0000 0.68801  0.38007  0.63906  Biso   1.000  S
  S16      1.0000 0.31199  0.38007  0.86094  Biso   1.000  S
  S17      1.0000 0.62774  0.16239  0.45380  Biso   1.000  S
  S18      1.0000 0.37226  0.16239  0.04620  Biso   1.000  S
  S19      1.0000 0.12774  0.66239  0.45380  Biso   1.000  S
  S20      1.0000 0.87226  0.66239  0.04620  Biso   1.000  S
  S21      1.0000 0.37226  0.83761  0.54620  Biso   1.000  S
  S22      1.0000 0.62774  0.83761  0.95380  Biso   1.000  S
  S23      1.0000 0.87226  0.33761  0.54620  Biso   1.000  S
  S24      1.0000 0.12774  0.33761  0.95380  Biso   1.000  S
  S25      1.0000 0.71353  0.47842  0.35954  Biso   1.000  S
  S26      1.0000 0.28647  0.47842  0.14046  Biso   1.000  S
  S27      1.0000 0.21353  0.97842  0.35954  Biso   1.000  S
  S28      1.0000 0.78647  0.97842  0.14046  Biso   1.000  S
  S29      1.0000 0.28647  0.52158  0.64046  Biso   1.000  S
  S30      1.0000 0.71353  0.52158  0.85954  Biso   1.000  S
  S31      1.0000 0.78647  0.02158  0.64046  Biso   1.000  S
  S32      1.0000 0.21353  0.02158  0.85954  Biso   1.000  S
  S33      1.0000 0.92698  0.74710  0.52987  Biso   1.000  S
  S34      1.0000 0.07302  0.74710  0.97013  Biso   1.000  S
  S35      1.0000 0.42698  0.24710  0.52987  Biso   1.000  S
  S36      1.0000 0.57302  0.24710  0.97013  Biso   1.000  S
  S37      1.0000 0.07302  0.25290  0.47013  Biso   1.000  S
  S38      1.0000 0.92698  0.25290  0.02987  Biso   1.000  S
  S39      1.0000 0.57302  0.75290  0.47013  Biso   1.000  S
  S40      1.0000 0.42698  0.75290  0.02987  Biso   1.000  S
  O1       1.0000 0.71784  0.25268  0.39306  Biso   1.000  O
  O2       1.0000 0.28216  0.25268  0.10694  Biso   1.000  O
  O3       1.0000 0.21784  0.75268  0.39306  Biso   1.000  O
  O4       1.0000 0.78216  0.75268  0.10694  Biso   1.000  O
  O5       1.0000 0.28216  0.74732  0.60694  Biso   1.000  O
  O6       1.0000 0.71784  0.74732  0.89306  Biso   1.000  O
  O7       1.0000 0.78216  0.24732  0.60694  Biso   1.000  O
  O8       1.0000 0.21784  0.24732  0.89306  Biso   1.000  O
  H1       1.0000 0.73770  0.25660  0.43320  Biso   1.000  H
  H2       1.0000 0.26230  0.25660  0.06680  Biso   1.000  H
  H3       1.0000 0.23770  0.75660  0.43320  Biso   1.000  H
  H4       1.0000 0.76230  0.75660  0.06680  Biso   1.000  H
  H5       1.0000 0.26230  0.74340  0.56680  Biso   1.000  H
  H6       1.0000 0.73770  0.74340  0.93320  Biso   1.000  H
  H7       1.0000 0.76230  0.24340  0.56680  Biso   1.000  H
  H8       1.0000 0.23770  0.24340  0.93320  Biso   1.000  H
  O9       1.0000 0.87605  0.75126  0.38338  Biso   1.000  O
  O10      1.0000 0.12395  0.75126  0.11662  Biso   1.000  O
  O11      1.0000 0.37605  0.25126  0.38338  Biso   1.000  O
  O12      1.0000 0.62395  0.25126  0.11662  Biso   1.000  O
  O13      1.0000 0.12395  0.24874  0.61662  Biso   1.000  O
  O14      1.0000 0.87605  0.24874  0.88338  Biso   1.000  O
  O15      1.0000 0.62395  0.74874  0.61662  Biso   1.000  O
  O16      1.0000 0.37605  0.74874  0.88338  Biso   1.000  O
  H9       1.0000 0.86640  0.74900  0.34290  Biso   1.000  H
  H10      1.0000 0.13360  0.74900  0.15710  Biso   1.000  H
  H11      1.0000 0.36640  0.24900  0.34290  Biso   1.000  H
  H12      1.0000 0.63360  0.24900  0.15710  Biso   1.000  H
  H13      1.0000 0.13360  0.25100  0.65710  Biso   1.000  H
  H14      1.0000 0.86640  0.25100  0.84290  Biso   1.000  H
  H15      1.0000 0.63360  0.75100  0.65710  Biso   1.000  H
  H16      1.0000 0.36640  0.75100  0.84290  Biso   1.000  H
  O17      1.0000 0.69159  0.20769  0.27700  Biso   1.000  O
  O18      1.0000 0.30841  0.20769  0.22300  Biso   1.000  O
  O19      1.0000 0.19159  0.70769  0.27700  Biso   1.000  O
  O20      1.0000 0.80841  0.70769  0.22300  Biso   1.000  O
  O21      1.0000 0.30841  0.79231  0.72300  Biso   1.000  O
  O22      1.0000 0.69159  0.79231  0.77700  Biso   1.000  O
  O23      1.0000 0.80841  0.29231  0.72300  Biso   1.000  O
  O24      1.0000 0.19159  0.29231  0.77700  Biso   1.000  O
  O25      1.0000 0.63863  0.21005  0.30070  Biso   1.000  O
  O26      1.0000 0.36137  0.21005  0.19930  Biso   1.000  O
  O27      1.0000 0.13863  0.71005  0.30070  Biso   1.000  O
  O28      1.0000 0.86137  0.71005  0.19930  Biso   1.000  O
  O29      1.0000 0.36137  0.78995  0.69930  Biso   1.000  O
  O30      1.0000 0.63863  0.78995  0.80070  Biso   1.000  O
  O31      1.0000 0.86137  0.28995  0.69930  Biso   1.000  O
  O32      1.0000 0.13863  0.28995  0.80070  Biso   1.000  O
  O33      1.0000 0.66242  0.30191  0.27920  Biso   1.000  O
  O34      1.0000 0.33758  0.30191  0.22080  Biso   1.000  O
  O35      1.0000 0.16242  0.80191  0.27920  Biso   1.000  O
  O36      1.0000 0.83758  0.80191  0.22080  Biso   1.000  O
  O37      1.0000 0.33758  0.69809  0.72080  Biso   1.000  O
  O38      1.0000 0.66242  0.69809  0.77920  Biso   1.000  O
  O39      1.0000 0.83758  0.19809  0.72080  Biso   1.000  O
  O40      1.0000 0.16242  0.19809  0.77920  Biso   1.000  O
  O41      1.0000 0.62294  0.23070  0.20730  Biso   1.000  O
  O42      1.0000 0.37706  0.23070  0.29270  Biso   1.000  O
  O43      1.0000 0.12294  0.73070  0.20730  Biso   1.000  O
  O44      1.0000 0.87706  0.73070  0.29270  Biso   1.000  O
  O45      1.0000 0.37706  0.76930  0.79270  Biso   1.000  O
  O46      1.0000 0.62294  0.76930  0.70730  Biso   1.000  O
  O47      1.0000 0.87706  0.26930  0.79270  Biso   1.000  O
  O48      1.0000 0.12294  0.26930  0.70730  Biso   1.000  O
  O49      1.0000 0.77396  0.15280  0.33440  Biso   1.000  O
  O50      1.0000 0.22604  0.15280  0.16560  Biso   1.000  O
  O51      1.0000 0.27396  0.65280  0.33440  Biso   1.000  O
  O52      1.0000 0.72604  0.65280  0.16560  Biso   1.000  O
  O53      1.0000 0.22604  0.84720  0.66560  Biso   1.000  O
  O54      1.0000 0.77396  0.84720  0.83440  Biso   1.000  O
  O55      1.0000 0.72604  0.34720  0.66560  Biso   1.000  O
  O56      1.0000 0.27396  0.34720  0.83440  Biso   1.000  O
  O57      1.0000 0.80910  0.05940  0.38120  Biso   1.000  O
  O58      1.0000 0.19090  0.05940  0.11880  Biso   1.000  O
  O59      1.0000 0.30910  0.55940  0.38120  Biso   1.000  O
  O60      1.0000 0.69090  0.55940  0.11880  Biso   1.000  O
  O61      1.0000 0.19090  0.94060  0.61880  Biso   1.000  O
  O62      1.0000 0.80910  0.94060  0.88120  Biso   1.000  O
  O63      1.0000 0.69090  0.44060  0.61880  Biso   1.000  O
  O64      1.0000 0.30910  0.44060  0.88120  Biso   1.000  O
  O65      1.0000 0.84850  0.14760  0.40610  Biso   1.000  O
  O66      1.0000 0.15150  0.14760  0.09390  Biso   1.000  O
  O67      1.0000 0.34850  0.64760  0.40610  Biso   1.000  O
  O68      1.0000 0.65150  0.64760  0.09390  Biso   1.000  O
  O69      1.0000 0.15150  0.85240  0.59390  Biso   1.000  O
  O70      1.0000 0.84850  0.85240  0.90610  Biso   1.000  O
  O71      1.0000 0.65150  0.35240  0.59390  Biso   1.000  O
  O72      1.0000 0.34850  0.35240  0.90610  Biso   1.000  O
  O73      1.0000 0.82290  0.10760  0.31720  Biso   1.000  O
  O74      1.0000 0.17710  0.10760  0.18280  Biso   1.000  O
  O75      1.0000 0.32290  0.60760  0.31720  Biso   1.000  O
  O76      1.0000 0.67710  0.60760  0.18280  Biso   1.000  O
  O77      1.0000 0.17710  0.89240  0.68280  Biso   1.000  O
  O78      1.0000 0.82290  0.89240  0.81720  Biso   1.000  O
  O79      1.0000 0.67710  0.39240  0.68280  Biso   1.000  O
  O80      1.0000 0.32290  0.39240  0.81720  Biso   1.000  O
  O81      1.0000 0.62860  0.17294  0.40130  Biso   1.000  O
  O82      1.0000 0.37140  0.17294  0.09870  Biso   1.000  O
  O83      1.0000 0.12860  0.67294  0.40130  Biso   1.000  O
  O84      1.0000 0.87140  0.67294  0.09870  Biso   1.000  O
  O85      1.0000 0.37140  0.82706  0.59870  Biso   1.000  O
  O86      1.0000 0.62860  0.82706  0.90130  Biso   1.000  O
  O87      1.0000 0.87140  0.32706  0.59870  Biso   1.000  O
  O88      1.0000 0.12860  0.32706  0.90130  Biso   1.000  O
  O89      1.0000 0.66710  0.17420  0.49970  Biso   1.000  O
  O90      1.0000 0.33290  0.17420  0.00030  Biso   1.000  O
  O91      1.0000 0.16710  0.67420  0.49970  Biso   1.000  O
  O92      1.0000 0.83290  0.67420  0.00030  Biso   1.000  O
  O93      1.0000 0.33290  0.82580  0.50030  Biso   1.000  O
  O94      1.0000 0.66710  0.82580  0.99970  Biso   1.000  O
  O95      1.0000 0.83290  0.32580  0.50030  Biso   1.000  O
  O96      1.0000 0.16710  0.32580  0.99970  Biso   1.000  O
  O97      1.0000 0.61520  0.10120  0.45380  Biso   1.000  O
  O98      1.0000 0.38480  0.10120  0.04620  Biso   1.000  O
  O99      1.0000 0.11520  0.60120  0.45380  Biso   1.000  O
  O100     1.0000 0.88480  0.60120  0.04620  Biso   1.000  O
  O101     1.0000 0.38480  0.89880  0.54620  Biso   1.000  O
  O102     1.0000 0.61520  0.89880  0.95380  Biso   1.000  O
  O103     1.0000 0.88480  0.39880  0.54620  Biso   1.000  O
  O104     1.0000 0.11520  0.39880  0.95380  Biso   1.000  O
  O105     1.0000 0.59880  0.20420  0.45580  Biso   1.000  O
  O106     1.0000 0.40120  0.20420  0.04420  Biso   1.000  O
  O107     1.0000 0.09880  0.70420  0.45580  Biso   1.000  O
  O108     1.0000 0.90120  0.70420  0.04420  Biso   1.000  O
  O109     1.0000 0.40120  0.79580  0.54420  Biso   1.000  O
  O110     1.0000 0.59880  0.79580  0.95580  Biso   1.000  O
  O111     1.0000 0.90120  0.29580  0.54420  Biso   1.000  O
  O112     1.0000 0.09880  0.29580  0.95580  Biso   1.000  O
  O113     1.0000 0.69923  0.42034  0.33770  Biso   1.000  O
  O114     1.0000 0.30077  0.42034  0.16230  Biso   1.000  O
  O115     1.0000 0.19923  0.92034  0.33770  Biso   1.000  O
  O116     1.0000 0.80077  0.92034  0.16230  Biso   1.000  O
  O117     1.0000 0.30077  0.57966  0.66230  Biso   1.000  O
  O118     1.0000 0.69923  0.57966  0.83770  Biso   1.000  O
  O119     1.0000 0.80077  0.07966  0.66230  Biso   1.000  O
  O120     1.0000 0.19923  0.07966  0.83770  Biso   1.000  O
  O121     1.0000 0.70170  0.49810  0.40060  Biso   1.000  O
  O122     1.0000 0.29830  0.49810  0.09940  Biso   1.000  O
  O123     1.0000 0.20170  0.99810  0.40060  Biso   1.000  O
  O124     1.0000 0.79830  0.99810  0.09940  Biso   1.000  O
  O125     1.0000 0.29830  0.50190  0.59940  Biso   1.000  O
  O126     1.0000 0.70170  0.50190  0.90060  Biso   1.000  O
  O127     1.0000 0.79830  0.00190  0.59940  Biso   1.000  O
  O128     1.0000 0.20170  0.00190  0.90060  Biso   1.000  O
  O129     1.0000 0.69810  0.52460  0.31640  Biso   1.000  O
  O130     1.0000 0.30190  0.52460  0.18360  Biso   1.000  O
  O131     1.0000 0.19810  0.02460  0.31640  Biso   1.000  O
  O132     1.0000 0.80190  0.02460  0.18360  Biso   1.000  O
  O133     1.0000 0.30190  0.47540  0.68360  Biso   1.000  O
  O134     1.0000 0.69810  0.47540  0.81640  Biso   1.000  O
  O135     1.0000 0.80190  0.97540  0.68360  Biso   1.000  O
  O136     1.0000 0.19810  0.97540  0.81640  Biso   1.000  O
  O137     1.0000 0.75781  0.48270  0.38850  Biso   1.000  O
  O138     1.0000 0.24219  0.48270  0.11150  Biso   1.000  O
  O139     1.0000 0.25781  0.98270  0.38850  Biso   1.000  O
  O140     1.0000 0.74219  0.98270  0.11150  Biso   1.000  O
  O141     1.0000 0.24219  0.51730  0.61150  Biso   1.000  O
  O142     1.0000 0.75781  0.51730  0.88850  Biso   1.000  O
  O143     1.0000 0.74219  0.01730  0.61150  Biso   1.000  O
  O144     1.0000 0.25781  0.01730  0.88850  Biso   1.000  O
  O145     1.0000 0.91551  0.69730  0.48730  Biso   1.000  O
  O146     1.0000 0.08449  0.69730  0.01270  Biso   1.000  O
  O147     1.0000 0.41551  0.19730  0.48730  Biso   1.000  O
  O148     1.0000 0.58449  0.19730  0.01270  Biso   1.000  O
  O149     1.0000 0.08449  0.30270  0.51270  Biso   1.000  O
  O150     1.0000 0.91551  0.30270  0.98730  Biso   1.000  O
  O151     1.0000 0.58449  0.80270  0.51270  Biso   1.000  O
  O152     1.0000 0.41551  0.80270  0.98730  Biso   1.000  O
  O153     1.0000 0.92190  0.80160  0.50370  Biso   1.000  O
  O154     1.0000 0.07810  0.80160  0.99630  Biso   1.000  O
  O155     1.0000 0.42190  0.30160  0.50370  Biso   1.000  O
  O156     1.0000 0.57810  0.30160  0.99630  Biso   1.000  O
  O157     1.0000 0.07810  0.19840  0.49630  Biso   1.000  O
  O158     1.0000 0.92190  0.19840  0.00370  Biso   1.000  O
  O159     1.0000 0.57810  0.69840  0.49630  Biso   1.000  O
  O160     1.0000 0.42190  0.69840  0.00370  Biso   1.000  O
  O161     1.0000 0.96728  0.73660  0.57530  Biso   1.000  O
  O162     1.0000 0.03272  0.73660  0.92470  Biso   1.000  O
  O163     1.0000 0.46728  0.23660  0.57530  Biso   1.000  O
  O164     1.0000 0.53272  0.23660  0.92470  Biso   1.000  O
  O165     1.0000 0.03272  0.26340  0.42470  Biso   1.000  O
  O166     1.0000 0.96728  0.26340  0.07530  Biso   1.000  O
  O167     1.0000 0.53272  0.76340  0.42470  Biso   1.000  O
  O168     1.0000 0.46728  0.76340  0.07530  Biso   1.000  O
  O169     1.0000 0.89970  0.74250  0.55360  Biso   1.000  O
  O170     1.0000 0.10030  0.74250  0.94640  Biso   1.000  O
  O171     1.0000 0.39970  0.24250  0.55360  Biso   1.000  O
  O172     1.0000 0.60030  0.24250  0.94640  Biso   1.000  O
  O173     1.0000 0.10030  0.25750  0.44640  Biso   1.000  O
  O174     1.0000 0.89970  0.25750  0.05360  Biso   1.000  O
  O175     1.0000 0.60030  0.75750  0.44640  Biso   1.000  O
  O176     1.0000 0.39970  0.75750  0.05360  Biso   1.000  O
  O177     1.0000 0.75250  0.37720  0.46480  Biso   1.000  O
  O178     1.0000 0.24750  0.37720  0.03520  Biso   1.000  O
  O179     1.0000 0.25250  0.87720  0.46480  Biso   1.000  O
  O180     1.0000 0.74750  0.87720  0.03520  Biso   1.000  O
  O181     1.0000 0.24750  0.62280  0.53520  Biso   1.000  O
  O182     1.0000 0.75250  0.62280  0.96480  Biso   1.000  O
  O183     1.0000 0.74750  0.12280  0.53520  Biso   1.000  O
  O184     1.0000 0.25250  0.12280  0.96480  Biso   1.000  O
  O185     1.0000 0.84053  0.86690  0.30960  Biso   1.000  O
  O186     1.0000 0.15947  0.86690  0.19040  Biso   1.000  O
  O187     1.0000 0.34053  0.36690  0.30960  Biso   1.000  O
  O188     1.0000 0.65947  0.36690  0.19040  Biso   1.000  O
  O189     1.0000 0.15947  0.13310  0.69040  Biso   1.000  O
  O190     1.0000 0.84053  0.13310  0.80960  Biso   1.000  O
  O191     1.0000 0.65947  0.63310  0.69040  Biso   1.000  O
  O192     1.0000 0.34053  0.63310  0.80960  Biso   1.000  O
  H17      1.0000 0.83910  0.84890  0.28180  Biso   1.000  H
  H18      1.0000 0.16090  0.84890  0.21820  Biso   1.000  H
  H19      1.0000 0.33910  0.34890  0.28180  Biso   1.000  H
  H20      1.0000 0.66090  0.34890  0.21820  Biso   1.000  H
  H21      1.0000 0.16090  0.15110  0.71820  Biso   1.000  H
  H22      1.0000 0.83910  0.15110  0.78180  Biso   1.000  H
  H23      1.0000 0.66090  0.65110  0.71820  Biso   1.000  H
  H24      1.0000 0.33910  0.65110  0.78180  Biso   1.000  H
  H25      1.0000 0.83140  0.90230  0.30000  Biso   1.000  H
  H26      1.0000 0.16860  0.90230  0.20000  Biso   1.000  H
  H27      1.0000 0.33140  0.40230  0.30000  Biso   1.000  H
  H28      1.0000 0.66860  0.40230  0.20000  Biso   1.000  H
  H29      1.0000 0.16860  0.09770  0.70000  Biso   1.000  H
  H30      1.0000 0.83140  0.09770  0.80000  Biso   1.000  H
  H31      1.0000 0.66860  0.59770  0.70000  Biso   1.000  H
  H32      1.0000 0.33140  0.59770  0.80000  Biso   1.000  H
  O193     1.0000 0.78993  0.69510  0.30520  Biso   1.000  O
  O194     1.0000 0.21007  0.69510  0.19480  Biso   1.000  O
  O195     1.0000 0.28993  0.19510  0.30520  Biso   1.000  O
  O196     1.0000 0.71007  0.19510  0.19480  Biso   1.000  O
  O197     1.0000 0.21007  0.30490  0.69480  Biso   1.000  O
  O198     1.0000 0.78993  0.30490  0.80520  Biso   1.000  O
  O199     1.0000 0.71007  0.80490  0.69480  Biso   1.000  O
  O200     1.0000 0.28993  0.80490  0.80520  Biso   1.000  O
  H33      1.0000 0.77750  0.66170  0.29760  Biso   1.000  H
  H34      1.0000 0.22250  0.66170  0.20240  Biso   1.000  H
  H35      1.0000 0.27750  0.16170  0.29760  Biso   1.000  H
  H36      1.0000 0.72250  0.16170  0.20240  Biso   1.000  H
  H37      1.0000 0.22250  0.33830  0.70240  Biso   1.000  H
  H38      1.0000 0.77750  0.33830  0.79760  Biso   1.000  H
  H39      1.0000 0.72250  0.83830  0.70240  Biso   1.000  H
  H40      1.0000 0.27750  0.83830  0.79760  Biso   1.000  H
  H41      1.0000 0.77270  0.72330  0.29480  Biso   1.000  H
  H42      1.0000 0.22730  0.72330  0.20520  Biso   1.000  H
  H43      1.0000 0.27270  0.22330  0.29480  Biso   1.000  H
  H44      1.0000 0.72730  0.22330  0.20520  Biso   1.000  H
  H45      1.0000 0.22730  0.27670  0.70520  Biso   1.000  H
  H46      1.0000 0.77270  0.27670  0.79480  Biso   1.000  H
  H47      1.0000 0.72730  0.77670  0.70520  Biso   1.000  H
  H48      1.0000 0.27270  0.77670  0.79480  Biso   1.000  H
  N1       1.0000 0.77446  0.27460  0.36090  Biso   1.000  N
  N2       1.0000 0.22554  0.27460  0.13910  Biso   1.000  N
  N3       1.0000 0.27446  0.77460  0.36090  Biso   1.000  N
  N4       1.0000 0.72554  0.77460  0.13910  Biso   1.000  N
  N5       1.0000 0.22554  0.72540  0.63910  Biso   1.000  N
  N6       1.0000 0.77446  0.72540  0.86090  Biso   1.000  N
  N7       1.0000 0.72554  0.22540  0.63910  Biso   1.000  N
  N8       1.0000 0.27446  0.22540  0.86090  Biso   1.000  N
  N9       1.0000 0.75769  0.33050  0.35890  Biso   1.000  N
  N10      1.0000 0.24231  0.33050  0.14110  Biso   1.000  N
  N11      1.0000 0.25769  0.83050  0.35890  Biso   1.000  N
  N12      1.0000 0.74231  0.83050  0.14110  Biso   1.000  N
  N13      1.0000 0.24231  0.66950  0.64110  Biso   1.000  N
  N14      1.0000 0.75769  0.66950  0.85890  Biso   1.000  N
  N15      1.0000 0.74231  0.16950  0.64110  Biso   1.000  N
  N16      1.0000 0.25769  0.16950  0.85890  Biso   1.000  N
  N17      1.0000 0.81490  0.34470  0.36110  Biso   1.000  N
  N18      1.0000 0.18510  0.34470  0.13890  Biso   1.000  N
  N19      1.0000 0.31490  0.84470  0.36110  Biso   1.000  N
  N20      1.0000 0.68510  0.84470  0.13890  Biso   1.000  N
  N21      1.0000 0.18510  0.65530  0.63890  Biso   1.000  N
  N22      1.0000 0.81490  0.65530  0.86110  Biso   1.000  N
  N23      1.0000 0.68510  0.15530  0.63890  Biso   1.000  N
  N24      1.0000 0.31490  0.15530  0.86110  Biso   1.000  N
  N25      1.0000 0.90235  0.63170  0.39280  Biso   1.000  N
  N26      1.0000 0.09765  0.63170  0.10720  Biso   1.000  N
  N27      1.0000 0.40235  0.13170  0.39280  Biso   1.000  N
  N28      1.0000 0.59765  0.13170  0.10720  Biso   1.000  N
  N29      1.0000 0.09765  0.36830  0.60720  Biso   1.000  N
  N30      1.0000 0.90235  0.36830  0.89280  Biso   1.000  N
  N31      1.0000 0.59765  0.86830  0.60720  Biso   1.000  N
  N32      1.0000 0.40235  0.86830  0.89280  Biso   1.000  N
  N33      1.0000 0.86448  0.62770  0.38680  Biso   1.000  N
  N34      1.0000 0.13552  0.62770  0.11320  Biso   1.000  N
  N35      1.0000 0.36448  0.12770  0.38680  Biso   1.000  N
  N36      1.0000 0.63552  0.12770  0.11320  Biso   1.000  N
  N37      1.0000 0.13552  0.37230  0.61320  Biso   1.000  N
  N38      1.0000 0.86448  0.37230  0.88680  Biso   1.000  N
  N39      1.0000 0.63552  0.87230  0.61320  Biso   1.000  N
  N40      1.0000 0.36448  0.87230  0.88680  Biso   1.000  N
  N41      1.0000 0.88379  0.53810  0.37990  Biso   1.000  N
  N42      1.0000 0.11621  0.53810  0.12010  Biso   1.000  N
  N43      1.0000 0.38379  0.03810  0.37990  Biso   1.000  N
  N44      1.0000 0.61621  0.03810  0.12010  Biso   1.000  N
  N45      1.0000 0.11621  0.46190  0.62010  Biso   1.000  N
  N46      1.0000 0.88379  0.46190  0.87990  Biso   1.000  N
  N47      1.0000 0.61621  0.96190  0.62010  Biso   1.000  N
  N48      1.0000 0.38379  0.96190  0.87990  Biso   1.000  N
  N49      1.0000 0.01708  0.32340  0.54140  Biso   1.000  N
  N50      1.0000 0.98292  0.32340  0.95860  Biso   1.000  N
  N51      1.0000 0.51708  0.82340  0.54140  Biso   1.000  N
  N52      1.0000 0.48292  0.82340  0.95860  Biso   1.000  N
  N53      1.0000 0.98292  0.67660  0.45860  Biso   1.000  N
  N54      1.0000 0.01708  0.67660  0.04140  Biso   1.000  N
  N55      1.0000 0.48292  0.17660  0.45860  Biso   1.000  N
  N56      1.0000 0.51708  0.17660  0.04140  Biso   1.000  N
  N57      1.0000 0.99896  0.34570  0.57030  Biso   1.000  N
  N58      1.0000 0.00104  0.34570  0.92970  Biso   1.000  N
  N59      1.0000 0.49896  0.84570  0.57030  Biso   1.000  N
  N60      1.0000 0.50104  0.84570  0.92970  Biso   1.000  N
  N61      1.0000 0.00104  0.65430  0.42970  Biso   1.000  N
  N62      1.0000 0.99896  0.65430  0.07030  Biso   1.000  N
  N63      1.0000 0.50104  0.15430  0.42970  Biso   1.000  N
  N64      1.0000 0.49896  0.15430  0.07030  Biso   1.000  N
  N65      1.0000 0.96019  0.36110  0.47930  Biso   1.000  N
  N66      1.0000 0.03981  0.36110  0.02070  Biso   1.000  N
  N67      1.0000 0.46019  0.86110  0.47930  Biso   1.000  N
  N68      1.0000 0.53981  0.86110  0.02070  Biso   1.000  N
  N69      1.0000 0.03981  0.63890  0.52070  Biso   1.000  N
  N70      1.0000 0.96019  0.63890  0.97930  Biso   1.000  N
  N71      1.0000 0.53981  0.13890  0.52070  Biso   1.000  N
  N72      1.0000 0.46019  0.13890  0.97930  Biso   1.000  N
  N73      1.0000 0.72432  0.12790  0.38060  Biso   1.000  N
  N74      1.0000 0.27568  0.12790  0.11940  Biso   1.000  N
  N75      1.0000 0.22432  0.62790  0.38060  Biso   1.000  N
  N76      1.0000 0.77568  0.62790  0.11940  Biso   1.000  N
  N77      1.0000 0.27568  0.87210  0.61940  Biso   1.000  N
  N78      1.0000 0.72432  0.87210  0.88060  Biso   1.000  N
  N79      1.0000 0.77568  0.37210  0.61940  Biso   1.000  N
  N80      1.0000 0.22432  0.37210  0.88060  Biso   1.000  N
  N81      1.0000 0.69435  0.13390  0.39450  Biso   1.000  N
  N82      1.0000 0.30565  0.13390  0.10550  Biso   1.000  N
  N83      1.0000 0.19435  0.63390  0.39450  Biso   1.000  N
  N84      1.0000 0.80565  0.63390  0.10550  Biso   1.000  N
  N85      1.0000 0.30565  0.86610  0.60550  Biso   1.000  N
  N86      1.0000 0.69435  0.86610  0.89450  Biso   1.000  N
  N87      1.0000 0.80565  0.36610  0.60550  Biso   1.000  N
  N88      1.0000 0.19435  0.36610  0.89450  Biso   1.000  N
  N89      1.0000 0.70612  0.03900  0.39220  Biso   1.000  N
  N90      1.0000 0.29388  0.03900  0.10780  Biso   1.000  N
  N91      1.0000 0.20612  0.53900  0.39220  Biso   1.000  N
  N92      1.0000 0.79388  0.53900  0.10780  Biso   1.000  N
  N93      1.0000 0.29388  0.96100  0.60780  Biso   1.000  N
  N94      1.0000 0.70612  0.96100  0.89220  Biso   1.000  N
  N95      1.0000 0.79388  0.46100  0.60780  Biso   1.000  N
  N96      1.0000 0.20612  0.46100  0.89220  Biso   1.000  N
  N97      1.0000 0.82843  0.83150  0.40310  Biso   1.000  N
  N98      1.0000 0.17157  0.83150  0.09690  Biso   1.000  N
  N99      1.0000 0.32843  0.33150  0.40310  Biso   1.000  N
  N100     1.0000 0.67157  0.33150  0.09690  Biso   1.000  N
  N101     1.0000 0.17157  0.16850  0.59690  Biso   1.000  N
  N102     1.0000 0.82843  0.16850  0.90310  Biso   1.000  N
  N103     1.0000 0.67157  0.66850  0.59690  Biso   1.000  N
  N104     1.0000 0.32843  0.66850  0.90310  Biso   1.000  N
  N105     1.0000 0.81254  0.77640  0.40360  Biso   1.000  N
  N106     1.0000 0.18746  0.77640  0.09640  Biso   1.000  N
  N107     1.0000 0.31254  0.27640  0.40360  Biso   1.000  N
  N108     1.0000 0.68746  0.27640  0.09640  Biso   1.000  N
  N109     1.0000 0.18746  0.22360  0.59640  Biso   1.000  N
  N110     1.0000 0.81254  0.22360  0.90360  Biso   1.000  N
  N111     1.0000 0.68746  0.72360  0.59640  Biso   1.000  N
  N112     1.0000 0.31254  0.72360  0.90360  Biso   1.000  N
  N113     1.0000 0.77145  0.84620  0.40160  Biso   1.000  N
  N114     1.0000 0.22855  0.84620  0.09840  Biso   1.000  N
  N115     1.0000 0.27145  0.34620  0.40160  Biso   1.000  N
  N116     1.0000 0.72855  0.34620  0.09840  Biso   1.000  N
  N117     1.0000 0.22855  0.15380  0.59840  Biso   1.000  N
  N118     1.0000 0.77145  0.15380  0.90160  Biso   1.000  N
  N119     1.0000 0.72855  0.65380  0.59840  Biso   1.000  N
  N120     1.0000 0.27145  0.65380  0.90160  Biso   1.000  N
  N121     1.0000 0.72153  0.87570  0.59620  Biso   1.000  N
  N122     1.0000 0.27847  0.87570  0.90380  Biso   1.000  N
  N123     1.0000 0.22153  0.37570  0.59620  Biso   1.000  N
  N124     1.0000 0.77847  0.37570  0.90380  Biso   1.000  N
  N125     1.0000 0.27847  0.12430  0.40380  Biso   1.000  N
  N126     1.0000 0.72153  0.12430  0.09620  Biso   1.000  N
  N127     1.0000 0.77847  0.62430  0.40380  Biso   1.000  N
  N128     1.0000 0.22153  0.62430  0.09620  Biso   1.000  N
  N129     1.0000 0.68638  0.84370  0.56740  Biso   1.000  N
  N130     1.0000 0.31362  0.84370  0.93260  Biso   1.000  N
  N131     1.0000 0.18638  0.34370  0.56740  Biso   1.000  N
  N132     1.0000 0.81362  0.34370  0.93260  Biso   1.000  N
  N133     1.0000 0.31362  0.15630  0.43260  Biso   1.000  N
  N134     1.0000 0.68638  0.15630  0.06740  Biso   1.000  N
  N135     1.0000 0.81362  0.65630  0.43260  Biso   1.000  N
  N136     1.0000 0.18638  0.65630  0.06740  Biso   1.000  N
  N137     1.0000 0.70150  0.87670  0.50640  Biso   1.000  N
  N138     1.0000 0.29850  0.87670  0.99360  Biso   1.000  N
  N139     1.0000 0.20150  0.37670  0.50640  Biso   1.000  N
  N140     1.0000 0.79850  0.37670  0.99360  Biso   1.000  N
  N141     1.0000 0.29850  0.12330  0.49360  Biso   1.000  N
  N142     1.0000 0.70150  0.12330  0.00640  Biso   1.000  N
  N143     1.0000 0.79850  0.62330  0.49360  Biso   1.000  N
  N144     1.0000 0.20150  0.62330  0.00640  Biso   1.000  N
  N145     1.0000 0.64723  0.29280  0.38960  Biso   1.000  N
  N146     1.0000 0.35277  0.29280  0.11040  Biso   1.000  N
  N147     1.0000 0.14723  0.79280  0.38960  Biso   1.000  N
  N148     1.0000 0.85277  0.79280  0.11040  Biso   1.000  N
  N149     1.0000 0.35277  0.70720  0.61040  Biso   1.000  N
  N150     1.0000 0.64723  0.70720  0.88960  Biso   1.000  N
  N151     1.0000 0.85277  0.20720  0.61040  Biso   1.000  N
  N152     1.0000 0.14723  0.20720  0.88960  Biso   1.000  N
  N153     1.0000 0.66296  0.34350  0.38090  Biso   1.000  N
  N154     1.0000 0.33704  0.34350  0.11910  Biso   1.000  N
  N155     1.0000 0.16296  0.84350  0.38090  Biso   1.000  N
  N156     1.0000 0.83704  0.84350  0.11910  Biso   1.000  N
  N157     1.0000 0.33704  0.65650  0.61910  Biso   1.000  N
  N158     1.0000 0.66296  0.65650  0.88090  Biso   1.000  N
  N159     1.0000 0.83704  0.15650  0.61910  Biso   1.000  N
  N160     1.0000 0.16296  0.15650  0.88090  Biso   1.000  N
  N161     1.0000 0.61053  0.36810  0.38770  Biso   1.000  N
  N162     1.0000 0.38947  0.36810  0.11230  Biso   1.000  N
  N163     1.0000 0.11053  0.86810  0.38770  Biso   1.000  N
  N164     1.0000 0.88947  0.86810  0.11230  Biso   1.000  N
  N165     1.0000 0.38947  0.63190  0.61230  Biso   1.000  N
  N166     1.0000 0.61053  0.63190  0.88770  Biso   1.000  N
  N167     1.0000 0.88947  0.13190  0.61230  Biso   1.000  N
  N168     1.0000 0.11053  0.13190  0.88770  Biso   1.000  N
  N169     1.0000 0.45172  0.28960  0.40380  Biso   1.000  N
  N170     1.0000 0.54828  0.28960  0.09620  Biso   1.000  N
  N171     1.0000 0.95172  0.78960  0.40380  Biso   1.000  N
  N172     1.0000 0.04828  0.78960  0.09620  Biso   1.000  N
  N173     1.0000 0.54828  0.71040  0.59620  Biso   1.000  N
  N174     1.0000 0.45172  0.71040  0.90380  Biso   1.000  N
  N175     1.0000 0.04828  0.21040  0.59620  Biso   1.000  N
  N176     1.0000 0.95172  0.21040  0.90380  Biso   1.000  N
  N177     1.0000 0.43016  0.34090  0.39840  Biso   1.000  N
  N178     1.0000 0.56984  0.34090  0.10160  Biso   1.000  N
  N179     1.0000 0.93016  0.84090  0.39840  Biso   1.000  N
  N180     1.0000 0.06984  0.84090  0.10160  Biso   1.000  N
  N181     1.0000 0.56984  0.65910  0.60160  Biso   1.000  N
  N182     1.0000 0.43016  0.65910  0.89840  Biso   1.000  N
  N183     1.0000 0.06984  0.15910  0.60160  Biso   1.000  N
  N184     1.0000 0.93016  0.15910  0.89840  Biso   1.000  N
  N185     1.0000 0.48389  0.36490  0.39370  Biso   1.000  N
  N186     1.0000 0.51611  0.36490  0.10630  Biso   1.000  N
  N187     1.0000 0.98389  0.86490  0.39370  Biso   1.000  N
  N188     1.0000 0.01611  0.86490  0.10630  Biso   1.000  N
  N189     1.0000 0.51611  0.63510  0.60630  Biso   1.000  N
  N190     1.0000 0.48389  0.63510  0.89370  Biso   1.000  N
  N191     1.0000 0.01611  0.13510  0.60630  Biso   1.000  N
  N192     1.0000 0.98389  0.13510  0.89370  Biso   1.000  N
  N193     1.0000 0.60922  0.58230  0.56330  Biso   1.000  N
  N194     1.0000 0.39078  0.58230  0.93670  Biso   1.000  N
  N195     1.0000 0.10922  0.08230  0.56330  Biso   1.000  N
  N196     1.0000 0.89078  0.08230  0.93670  Biso   1.000  N
  N197     1.0000 0.39078  0.41770  0.43670  Biso   1.000  N
  N198     1.0000 0.60922  0.41770  0.06330  Biso   1.000  N
  N199     1.0000 0.89078  0.91770  0.43670  Biso   1.000  N
  N200     1.0000 0.10922  0.91770  0.06330  Biso   1.000  N
  N201     1.0000 0.58773  0.51150  0.50160  Biso   1.000  N
  N202     1.0000 0.41227  0.51150  0.99840  Biso   1.000  N
  N203     1.0000 0.08773  0.01150  0.50160  Biso   1.000  N
  N204     1.0000 0.91227  0.01150  0.99840  Biso   1.000  N
  N205     1.0000 0.41227  0.48850  0.49840  Biso   1.000  N
  N206     1.0000 0.58773  0.48850  0.00160  Biso   1.000  N
  N207     1.0000 0.91227  0.98850  0.49840  Biso   1.000  N
  N208     1.0000 0.08773  0.98850  0.00160  Biso   1.000  N
  N209     1.0000 0.62970  0.53060  0.59000  Biso   1.000  N
  N210     1.0000 0.37030  0.53060  0.91000  Biso   1.000  N
  N211     1.0000 0.12970  0.03060  0.59000  Biso   1.000  N
  N212     1.0000 0.87030  0.03060  0.91000  Biso   1.000  N
  N213     1.0000 0.37030  0.46940  0.41000  Biso   1.000  N
  N214     1.0000 0.62970  0.46940  0.09000  Biso   1.000  N
  N215     1.0000 0.87030  0.96940  0.41000  Biso   1.000  N
  N216     1.0000 0.12970  0.96940  0.09000  Biso   1.000  N
  C1       1.0000 0.61570  0.48980  0.55150  Biso   1.000  C
  C2       1.0000 0.38430  0.48980  0.94850  Biso   1.000  C
  C3       1.0000 0.11570  0.98980  0.55150  Biso   1.000  C
  C4       1.0000 0.88430  0.98980  0.94850  Biso   1.000  C
  C5       1.0000 0.38430  0.51020  0.44850  Biso   1.000  C
  C6       1.0000 0.61570  0.51020  0.05150  Biso   1.000  C
  C7       1.0000 0.88430  0.01020  0.44850  Biso   1.000  C
  C8       1.0000 0.11570  0.01020  0.05150  Biso   1.000  C
  H49      1.0000 0.62440  0.44860  0.55760  Biso   1.000  H
  H50      1.0000 0.37560  0.44860  0.94240  Biso   1.000  H
  H51      1.0000 0.12440  0.94860  0.55760  Biso   1.000  H
  H52      1.0000 0.87560  0.94860  0.94240  Biso   1.000  H
  H53      1.0000 0.37560  0.55140  0.44240  Biso   1.000  H
  H54      1.0000 0.62440  0.55140  0.05760  Biso   1.000  H
  H55      1.0000 0.87560  0.05140  0.44240  Biso   1.000  H
  H56      1.0000 0.12440  0.05140  0.05760  Biso   1.000  H
  C9       1.0000 0.58500  0.57060  0.51110  Biso   1.000  C
  C10      1.0000 0.41500  0.57060  0.98890  Biso   1.000  C
  C11      1.0000 0.08500  0.07060  0.51110  Biso   1.000  C
  C12      1.0000 0.91500  0.07060  0.98890  Biso   1.000  C
  C13      1.0000 0.41500  0.42940  0.48890  Biso   1.000  C
  C14      1.0000 0.58500  0.42940  0.01110  Biso   1.000  C
  C15      1.0000 0.91500  0.92940  0.48890  Biso   1.000  C
  C16      1.0000 0.08500  0.92940  0.01110  Biso   1.000  C
  H57      1.0000 0.56740  0.59900  0.48400  Biso   1.000  H
  H58      1.0000 0.43260  0.59900  0.01600  Biso   1.000  H
  H59      1.0000 0.06740  0.09900  0.48400  Biso   1.000  H
  H60      1.0000 0.93260  0.09900  0.01600  Biso   1.000  H
  H61      1.0000 0.43260  0.40100  0.51600  Biso   1.000  H
  H62      1.0000 0.56740  0.40100  0.98400  Biso   1.000  H
  H63      1.0000 0.93260  0.90100  0.51600  Biso   1.000  H
  H64      1.0000 0.06740  0.90100  0.98400  Biso   1.000  H
  C17      1.0000 0.80817  0.28450  0.36140  Biso   1.000  C
  C18      1.0000 0.19183  0.28450  0.13860  Biso   1.000  C
  C19      1.0000 0.30817  0.78450  0.36140  Biso   1.000  C
  C20      1.0000 0.69183  0.78450  0.13860  Biso   1.000  C
  C21      1.0000 0.19183  0.71550  0.63860  Biso   1.000  C
  C22      1.0000 0.80817  0.71550  0.86140  Biso   1.000  C
  C23      1.0000 0.69183  0.21550  0.63860  Biso   1.000  C
  C24      1.0000 0.30817  0.21550  0.86140  Biso   1.000  C
  H65      1.0000 0.82570  0.25390  0.36180  Biso   1.000  H
  H66      1.0000 0.17430  0.25390  0.13820  Biso   1.000  H
  H67      1.0000 0.32570  0.75390  0.36180  Biso   1.000  H
  H68      1.0000 0.67430  0.75390  0.13820  Biso   1.000  H
  H69      1.0000 0.17430  0.74610  0.63820  Biso   1.000  H
  H70      1.0000 0.82570  0.74610  0.86180  Biso   1.000  H
  H71      1.0000 0.67430  0.24610  0.63820  Biso   1.000  H
  H72      1.0000 0.32570  0.24610  0.86180  Biso   1.000  H
  C25      1.0000 0.78272  0.37040  0.36000  Biso   1.000  C
  C26      1.0000 0.21728  0.37040  0.14000  Biso   1.000  C
  C27      1.0000 0.28272  0.87040  0.36000  Biso   1.000  C
  C28      1.0000 0.71728  0.87040  0.14000  Biso   1.000  C
  C29      1.0000 0.21728  0.62960  0.64000  Biso   1.000  C
  C30      1.0000 0.78272  0.62960  0.86000  Biso   1.000  C
  C31      1.0000 0.71728  0.12960  0.64000  Biso   1.000  C
  C32      1.0000 0.28272  0.12960  0.86000  Biso   1.000  C
  H73      1.0000 0.77880  0.41260  0.35990  Biso   1.000  H
  H74      1.0000 0.22120  0.41260  0.14010  Biso   1.000  H
  H75      1.0000 0.27880  0.91260  0.35990  Biso   1.000  H
  H76      1.0000 0.72120  0.91260  0.14010  Biso   1.000  H
  H77      1.0000 0.22120  0.58740  0.64010  Biso   1.000  H
  H78      1.0000 0.77880  0.58740  0.85990  Biso   1.000  H
  H79      1.0000 0.72120  0.08740  0.64010  Biso   1.000  H
  H80      1.0000 0.27880  0.08740  0.85990  Biso   1.000  H
  C33      1.0000 0.91260  0.57730  0.38900  Biso   1.000  C
  C34      1.0000 0.08740  0.57730  0.11100  Biso   1.000  C
  C35      1.0000 0.41260  0.07730  0.38900  Biso   1.000  C
  C36      1.0000 0.58740  0.07730  0.11100  Biso   1.000  C
  C37      1.0000 0.08740  0.42270  0.61100  Biso   1.000  C
  C38      1.0000 0.91260  0.42270  0.88900  Biso   1.000  C
  C39      1.0000 0.58740  0.92270  0.61100  Biso   1.000  C
  C40      1.0000 0.41260  0.92270  0.88900  Biso   1.000  C
  H81      1.0000 0.93780  0.56670  0.39230  Biso   1.000  H
  H82      1.0000 0.06220  0.56670  0.10770  Biso   1.000  H
  H83      1.0000 0.43780  0.06670  0.39230  Biso   1.000  H
  H84      1.0000 0.56220  0.06670  0.10770  Biso   1.000  H
  H85      1.0000 0.06220  0.43330  0.60770  Biso   1.000  H
  H86      1.0000 0.93780  0.43330  0.89230  Biso   1.000  H
  H87      1.0000 0.56220  0.93330  0.60770  Biso   1.000  H
  H88      1.0000 0.43780  0.93330  0.89230  Biso   1.000  H
  C41      1.0000 0.85424  0.57110  0.37950  Biso   1.000  C
  C42      1.0000 0.14576  0.57110  0.12050  Biso   1.000  C
  C43      1.0000 0.35424  0.07110  0.37950  Biso   1.000  C
  C44      1.0000 0.64576  0.07110  0.12050  Biso   1.000  C
  C45      1.0000 0.14576  0.42890  0.62050  Biso   1.000  C
  C46      1.0000 0.85424  0.42890  0.87950  Biso   1.000  C
  C47      1.0000 0.64576  0.92890  0.62050  Biso   1.000  C
  C48      1.0000 0.35424  0.92890  0.87950  Biso   1.000  C
  H89      1.0000 0.82950  0.55560  0.37470  Biso   1.000  H
  H90      1.0000 0.17050  0.55560  0.12530  Biso   1.000  H
  H91      1.0000 0.32950  0.05560  0.37470  Biso   1.000  H
  H92      1.0000 0.67050  0.05560  0.12530  Biso   1.000  H
  H93      1.0000 0.17050  0.44440  0.62530  Biso   1.000  H
  H94      1.0000 0.82950  0.44440  0.87470  Biso   1.000  H
  H95      1.0000 0.67050  0.94440  0.62530  Biso   1.000  H
  H96      1.0000 0.32950  0.94440  0.87470  Biso   1.000  H
  C49      1.0000 0.99439  0.33190  0.48860  Biso   1.000  C
  C50      1.0000 0.00561  0.33190  0.01140  Biso   1.000  C
  C51      1.0000 0.49439  0.83190  0.48860  Biso   1.000  C
  C52      1.0000 0.50561  0.83190  0.01140  Biso   1.000  C
  C53      1.0000 0.00561  0.66810  0.51140  Biso   1.000  C
  C54      1.0000 0.99439  0.66810  0.98860  Biso   1.000  C
  C55      1.0000 0.50561  0.16810  0.51140  Biso   1.000  C
  C56      1.0000 0.49439  0.16810  0.98860  Biso   1.000  C
  H97      1.0000 0.00070  0.31980  0.46100  Biso   1.000  H
  H98      1.0000 0.99930  0.31980  0.03900  Biso   1.000  H
  H99      1.0000 0.50070  0.81980  0.46100  Biso   1.000  H
  H100     1.0000 0.49930  0.81980  0.03900  Biso   1.000  H
  H101     1.0000 0.99930  0.68020  0.53900  Biso   1.000  H
  H102     1.0000 0.00070  0.68020  0.96100  Biso   1.000  H
  H103     1.0000 0.49930  0.18020  0.53900  Biso   1.000  H
  H104     1.0000 0.50070  0.18020  0.96100  Biso   1.000  H
  C57      1.0000 0.96510  0.36820  0.53050  Biso   1.000  C
  C58      1.0000 0.03490  0.36820  0.96950  Biso   1.000  C
  C59      1.0000 0.46510  0.86820  0.53050  Biso   1.000  C
  C60      1.0000 0.53490  0.86820  0.96950  Biso   1.000  C
  C61      1.0000 0.03490  0.63180  0.46950  Biso   1.000  C
  C62      1.0000 0.96510  0.63180  0.03050  Biso   1.000  C
  C63      1.0000 0.53490  0.13180  0.46950  Biso   1.000  C
  C64      1.0000 0.46510  0.13180  0.03050  Biso   1.000  C
  H105     1.0000 0.94580  0.38780  0.53720  Biso   1.000  H
  H106     1.0000 0.05420  0.38780  0.96280  Biso   1.000  H
  H107     1.0000 0.44580  0.88780  0.53720  Biso   1.000  H
  H108     1.0000 0.55420  0.88780  0.96280  Biso   1.000  H
  H109     1.0000 0.05420  0.61220  0.46280  Biso   1.000  H
  H110     1.0000 0.94580  0.61220  0.03720  Biso   1.000  H
  H111     1.0000 0.55420  0.11220  0.46280  Biso   1.000  H
  H112     1.0000 0.44580  0.11220  0.03720  Biso   1.000  H
  C65      1.0000 0.85149  0.37340  0.36500  Biso   1.000  C
  C66      1.0000 0.14851  0.37340  0.13500  Biso   1.000  C
  C67      1.0000 0.35149  0.87340  0.36500  Biso   1.000  C
  C68      1.0000 0.64851  0.87340  0.13500  Biso   1.000  C
  C69      1.0000 0.14851  0.62660  0.63500  Biso   1.000  C
  C70      1.0000 0.85149  0.62660  0.86500  Biso   1.000  C
  C71      1.0000 0.64851  0.12660  0.63500  Biso   1.000  C
  C72      1.0000 0.35149  0.12660  0.86500  Biso   1.000  C
  C73      1.0000 0.84771  0.44180  0.36870  Biso   1.000  C
  C74      1.0000 0.15229  0.44180  0.13130  Biso   1.000  C
  C75      1.0000 0.34771  0.94180  0.36870  Biso   1.000  C
  C76      1.0000 0.65229  0.94180  0.13130  Biso   1.000  C
  C77      1.0000 0.15229  0.55820  0.63130  Biso   1.000  C
  C78      1.0000 0.84771  0.55820  0.86870  Biso   1.000  C
  C79      1.0000 0.65229  0.05820  0.63130  Biso   1.000  C
  C80      1.0000 0.34771  0.05820  0.86870  Biso   1.000  C
  H113     1.0000 0.82460  0.45700  0.33430  Biso   1.000  H
  H114     1.0000 0.17540  0.45700  0.16570  Biso   1.000  H
  H115     1.0000 0.32460  0.95700  0.33430  Biso   1.000  H
  H116     1.0000 0.67540  0.95700  0.16570  Biso   1.000  H
  H117     1.0000 0.17540  0.54300  0.66570  Biso   1.000  H
  H118     1.0000 0.82460  0.54300  0.83430  Biso   1.000  H
  H119     1.0000 0.67540  0.04300  0.66570  Biso   1.000  H
  H120     1.0000 0.32460  0.04300  0.83430  Biso   1.000  H
  H121     1.0000 0.84320  0.45180  0.39990  Biso   1.000  H
  H122     1.0000 0.15680  0.45180  0.10010  Biso   1.000  H
  H123     1.0000 0.34320  0.95180  0.39990  Biso   1.000  H
  H124     1.0000 0.65680  0.95180  0.10010  Biso   1.000  H
  H125     1.0000 0.15680  0.54820  0.60010  Biso   1.000  H
  H126     1.0000 0.84320  0.54820  0.89990  Biso   1.000  H
  H127     1.0000 0.65680  0.04820  0.60010  Biso   1.000  H
  H128     1.0000 0.34320  0.04820  0.89990  Biso   1.000  H
  C81      1.0000 0.88659  0.47100  0.37710  Biso   1.000  C
  C82      1.0000 0.11341  0.47100  0.12290  Biso   1.000  C
  C83      1.0000 0.38659  0.97100  0.37710  Biso   1.000  C
  C84      1.0000 0.61341  0.97100  0.12290  Biso   1.000  C
  C85      1.0000 0.11341  0.52900  0.62290  Biso   1.000  C
  C86      1.0000 0.88659  0.52900  0.87710  Biso   1.000  C
  C87      1.0000 0.61341  0.02900  0.62290  Biso   1.000  C
  C88      1.0000 0.38659  0.02900  0.87710  Biso   1.000  C
  C89      1.0000 0.92197  0.44970  0.42960  Biso   1.000  C
  C90      1.0000 0.07803  0.44970  0.07040  Biso   1.000  C
  C91      1.0000 0.42197  0.94970  0.42960  Biso   1.000  C
  C92      1.0000 0.57803  0.94970  0.07040  Biso   1.000  C
  C93      1.0000 0.07803  0.55030  0.57040  Biso   1.000  C
  C94      1.0000 0.92197  0.55030  0.92960  Biso   1.000  C
  C95      1.0000 0.57803  0.05030  0.57040  Biso   1.000  C
  C96      1.0000 0.42197  0.05030  0.92960  Biso   1.000  C
  H129     1.0000 0.91820  0.46050  0.46130  Biso   1.000  H
  H130     1.0000 0.08180  0.46050  0.03870  Biso   1.000  H
  H131     1.0000 0.41820  0.96050  0.46130  Biso   1.000  H
  H132     1.0000 0.58180  0.96050  0.03870  Biso   1.000  H
  H133     1.0000 0.08180  0.53950  0.53870  Biso   1.000  H
  H134     1.0000 0.91820  0.53950  0.96130  Biso   1.000  H
  H135     1.0000 0.58180  0.03950  0.53870  Biso   1.000  H
  H136     1.0000 0.41820  0.03950  0.96130  Biso   1.000  H
  H137     1.0000 0.94680  0.46950  0.43460  Biso   1.000  H
  H138     1.0000 0.05320  0.46950  0.06540  Biso   1.000  H
  H139     1.0000 0.44680  0.96950  0.43460  Biso   1.000  H
  H140     1.0000 0.55320  0.96950  0.06540  Biso   1.000  H
  H141     1.0000 0.05320  0.53050  0.56540  Biso   1.000  H
  H142     1.0000 0.94680  0.53050  0.93460  Biso   1.000  H
  H143     1.0000 0.55320  0.03050  0.56540  Biso   1.000  H
  H144     1.0000 0.44680  0.03050  0.93460  Biso   1.000  H
  C97      1.0000 0.92577  0.38110  0.42700  Biso   1.000  C
  C98      1.0000 0.07423  0.38110  0.07300  Biso   1.000  C
  C99      1.0000 0.42577  0.88110  0.42700  Biso   1.000  C
  C100     1.0000 0.57423  0.88110  0.07300  Biso   1.000  C
  C101     1.0000 0.07423  0.61890  0.57300  Biso   1.000  C
  C102     1.0000 0.92577  0.61890  0.92700  Biso   1.000  C
  C103     1.0000 0.57423  0.11890  0.57300  Biso   1.000  C
  C104     1.0000 0.42577  0.11890  0.92700  Biso   1.000  C
  C105     1.0000 0.88776  0.35100  0.42020  Biso   1.000  C
  C106     1.0000 0.11224  0.35100  0.07980  Biso   1.000  C
  C107     1.0000 0.38776  0.85100  0.42020  Biso   1.000  C
  C108     1.0000 0.61224  0.85100  0.07980  Biso   1.000  C
  C109     1.0000 0.11224  0.64900  0.57980  Biso   1.000  C
  C110     1.0000 0.88776  0.64900  0.92020  Biso   1.000  C
  C111     1.0000 0.61224  0.14900  0.57980  Biso   1.000  C
  C112     1.0000 0.38776  0.14900  0.92020  Biso   1.000  C
  H145     1.0000 0.88350  0.36160  0.45150  Biso   1.000  H
  H146     1.0000 0.11650  0.36160  0.04850  Biso   1.000  H
  H147     1.0000 0.38350  0.86160  0.45150  Biso   1.000  H
  H148     1.0000 0.61650  0.86160  0.04850  Biso   1.000  H
  H149     1.0000 0.11650  0.63840  0.54850  Biso   1.000  H
  H150     1.0000 0.88350  0.63840  0.95150  Biso   1.000  H
  H151     1.0000 0.61650  0.13840  0.54850  Biso   1.000  H
  H152     1.0000 0.38350  0.13840  0.95150  Biso   1.000  H
  H153     1.0000 0.89030  0.30670  0.41940  Biso   1.000  H
  H154     1.0000 0.10970  0.30670  0.08060  Biso   1.000  H
  H155     1.0000 0.39030  0.80670  0.41940  Biso   1.000  H
  H156     1.0000 0.60970  0.80670  0.08060  Biso   1.000  H
  H157     1.0000 0.10970  0.69330  0.58060  Biso   1.000  H
  H158     1.0000 0.89030  0.69330  0.91940  Biso   1.000  H
  H159     1.0000 0.60970  0.19330  0.58060  Biso   1.000  H
  H160     1.0000 0.39030  0.19330  0.91940  Biso   1.000  H
  C113     1.0000 0.85740  0.35770  0.31720  Biso   1.000  C
  C114     1.0000 0.14260  0.35770  0.18280  Biso   1.000  C
  C115     1.0000 0.35740  0.85770  0.31720  Biso   1.000  C
  C116     1.0000 0.64260  0.85770  0.18280  Biso   1.000  C
  C117     1.0000 0.14260  0.64230  0.68280  Biso   1.000  C
  C118     1.0000 0.85740  0.64230  0.81720  Biso   1.000  C
  C119     1.0000 0.64260  0.14230  0.68280  Biso   1.000  C
  C120     1.0000 0.35740  0.14230  0.81720  Biso   1.000  C
  H161     1.0000 0.83440  0.37260  0.28260  Biso   1.000  H
  H162     1.0000 0.16560  0.37260  0.21740  Biso   1.000  H
  H163     1.0000 0.33440  0.87260  0.28260  Biso   1.000  H
  H164     1.0000 0.66560  0.87260  0.21740  Biso   1.000  H
  H165     1.0000 0.16560  0.62740  0.71740  Biso   1.000  H
  H166     1.0000 0.83440  0.62740  0.78260  Biso   1.000  H
  H167     1.0000 0.66560  0.12740  0.71740  Biso   1.000  H
  H168     1.0000 0.33440  0.12740  0.78260  Biso   1.000  H
  H169     1.0000 0.85900  0.31350  0.31440  Biso   1.000  H
  H170     1.0000 0.14100  0.31350  0.18560  Biso   1.000  H
  H171     1.0000 0.35900  0.81350  0.31440  Biso   1.000  H
  H172     1.0000 0.64100  0.81350  0.18560  Biso   1.000  H
  H173     1.0000 0.14100  0.68650  0.68560  Biso   1.000  H
  H174     1.0000 0.85900  0.68650  0.81440  Biso   1.000  H
  H175     1.0000 0.64100  0.18650  0.68560  Biso   1.000  H
  H176     1.0000 0.35900  0.18650  0.81440  Biso   1.000  H
  C121     1.0000 0.89667  0.38710  0.32590  Biso   1.000  C
  C122     1.0000 0.10333  0.38710  0.17410  Biso   1.000  C
  C123     1.0000 0.39667  0.88710  0.32590  Biso   1.000  C
  C124     1.0000 0.60333  0.88710  0.17410  Biso   1.000  C
  C125     1.0000 0.10333  0.61290  0.67410  Biso   1.000  C
  C126     1.0000 0.89667  0.61290  0.82590  Biso   1.000  C
  C127     1.0000 0.60333  0.11290  0.67410  Biso   1.000  C
  C128     1.0000 0.39667  0.11290  0.82590  Biso   1.000  C
  H177     1.0000 0.90090  0.37630  0.29420  Biso   1.000  H
  H178     1.0000 0.09910  0.37630  0.20580  Biso   1.000  H
  H179     1.0000 0.40090  0.87630  0.29420  Biso   1.000  H
  H180     1.0000 0.59910  0.87630  0.20580  Biso   1.000  H
  H181     1.0000 0.09910  0.62370  0.70580  Biso   1.000  H
  H182     1.0000 0.90090  0.62370  0.79420  Biso   1.000  H
  H183     1.0000 0.59910  0.12370  0.70580  Biso   1.000  H
  H184     1.0000 0.40090  0.12370  0.79420  Biso   1.000  H
  C129     1.0000 0.89281  0.45560  0.32770  Biso   1.000  C
  C130     1.0000 0.10719  0.45560  0.17230  Biso   1.000  C
  C131     1.0000 0.39281  0.95560  0.32770  Biso   1.000  C
  C132     1.0000 0.60719  0.95560  0.17230  Biso   1.000  C
  C133     1.0000 0.10719  0.54440  0.67230  Biso   1.000  C
  C134     1.0000 0.89281  0.54440  0.82770  Biso   1.000  C
  C135     1.0000 0.60719  0.04440  0.67230  Biso   1.000  C
  C136     1.0000 0.39281  0.04440  0.82770  Biso   1.000  C
  H185     1.0000 0.86960  0.47010  0.29310  Biso   1.000  H
  H186     1.0000 0.13040  0.47010  0.20690  Biso   1.000  H
  H187     1.0000 0.36960  0.97010  0.29310  Biso   1.000  H
  H188     1.0000 0.63040  0.97010  0.20690  Biso   1.000  H
  H189     1.0000 0.13040  0.52990  0.70690  Biso   1.000  H
  H190     1.0000 0.86960  0.52990  0.79310  Biso   1.000  H
  H191     1.0000 0.63040  0.02990  0.70690  Biso   1.000  H
  H192     1.0000 0.36960  0.02990  0.79310  Biso   1.000  H
  H193     1.0000 0.91750  0.47540  0.33210  Biso   1.000  H
  H194     1.0000 0.08250  0.47540  0.16790  Biso   1.000  H
  H195     1.0000 0.41750  0.97540  0.33210  Biso   1.000  H
  H196     1.0000 0.58250  0.97540  0.16790  Biso   1.000  H
  H197     1.0000 0.08250  0.52460  0.66790  Biso   1.000  H
  H198     1.0000 0.91750  0.52460  0.83210  Biso   1.000  H
  H199     1.0000 0.58250  0.02460  0.66790  Biso   1.000  H
  H200     1.0000 0.41750  0.02460  0.83210  Biso   1.000  H
  C137     1.0000 0.93292  0.36490  0.37970  Biso   1.000  C
  C138     1.0000 0.06708  0.36490  0.12030  Biso   1.000  C
  C139     1.0000 0.43292  0.86490  0.37970  Biso   1.000  C
  C140     1.0000 0.56708  0.86490  0.12030  Biso   1.000  C
  C141     1.0000 0.06708  0.63510  0.62030  Biso   1.000  C
  C142     1.0000 0.93292  0.63510  0.87970  Biso   1.000  C
  C143     1.0000 0.56708  0.13510  0.62030  Biso   1.000  C
  C144     1.0000 0.43292  0.13510  0.87970  Biso   1.000  C
  H201     1.0000 0.93590  0.32080  0.37820  Biso   1.000  H
  H202     1.0000 0.06410  0.32080  0.12180  Biso   1.000  H
  H203     1.0000 0.43590  0.82080  0.37820  Biso   1.000  H
  H204     1.0000 0.56410  0.82080  0.12180  Biso   1.000  H
  H205     1.0000 0.06410  0.67920  0.62180  Biso   1.000  H
  H206     1.0000 0.93590  0.67920  0.87820  Biso   1.000  H
  H207     1.0000 0.56410  0.17920  0.62180  Biso   1.000  H
  H208     1.0000 0.43590  0.17920  0.87820  Biso   1.000  H
  H209     1.0000 0.95790  0.38420  0.38480  Biso   1.000  H
  H210     1.0000 0.04210  0.38420  0.11520  Biso   1.000  H
  H211     1.0000 0.45790  0.88420  0.38480  Biso   1.000  H
  H212     1.0000 0.54210  0.88420  0.11520  Biso   1.000  H
  H213     1.0000 0.04210  0.61580  0.61520  Biso   1.000  H
  H214     1.0000 0.95790  0.61580  0.88480  Biso   1.000  H
  H215     1.0000 0.54210  0.11580  0.61520  Biso   1.000  H
  H216     1.0000 0.45790  0.11580  0.88480  Biso   1.000  H
  C145     1.0000 0.73097  0.07150  0.38080  Biso   1.000  C
  C146     1.0000 0.26903  0.07150  0.11920  Biso   1.000  C
  C147     1.0000 0.23097  0.57150  0.38080  Biso   1.000  C
  C148     1.0000 0.76903  0.57150  0.11920  Biso   1.000  C
  C149     1.0000 0.26903  0.92850  0.61920  Biso   1.000  C
  C150     1.0000 0.73097  0.92850  0.88080  Biso   1.000  C
  C151     1.0000 0.76903  0.42850  0.61920  Biso   1.000  C
  C152     1.0000 0.23097  0.42850  0.88080  Biso   1.000  C
  H217     1.0000 0.75090  0.05470  0.37380  Biso   1.000  H
  H218     1.0000 0.24910  0.05470  0.12620  Biso   1.000  H
  H219     1.0000 0.25090  0.55470  0.37380  Biso   1.000  H
  H220     1.0000 0.74910  0.55470  0.12620  Biso   1.000  H
  H221     1.0000 0.24910  0.94530  0.62620  Biso   1.000  H
  H222     1.0000 0.75090  0.94530  0.87380  Biso   1.000  H
  H223     1.0000 0.74910  0.44530  0.62620  Biso   1.000  H
  H224     1.0000 0.25090  0.44530  0.87380  Biso   1.000  H
  C153     1.0000 0.68419  0.08000  0.40130  Biso   1.000  C
  C154     1.0000 0.31581  0.08000  0.09870  Biso   1.000  C
  C155     1.0000 0.18419  0.58000  0.40130  Biso   1.000  C
  C156     1.0000 0.81581  0.58000  0.09870  Biso   1.000  C
  C157     1.0000 0.31581  0.92000  0.59870  Biso   1.000  C
  C158     1.0000 0.68419  0.92000  0.90130  Biso   1.000  C
  C159     1.0000 0.81581  0.42000  0.59870  Biso   1.000  C
  C160     1.0000 0.18419  0.42000  0.90130  Biso   1.000  C
  H225     1.0000 0.66420  0.07100  0.41120  Biso   1.000  H
  H226     1.0000 0.33580  0.07100  0.08880  Biso   1.000  H
  H227     1.0000 0.16420  0.57100  0.41120  Biso   1.000  H
  H228     1.0000 0.83580  0.57100  0.08880  Biso   1.000  H
  H229     1.0000 0.33580  0.92900  0.58880  Biso   1.000  H
  H230     1.0000 0.66420  0.92900  0.91120  Biso   1.000  H
  H231     1.0000 0.83580  0.42900  0.58880  Biso   1.000  H
  H232     1.0000 0.16420  0.42900  0.91120  Biso   1.000  H
  C161     1.0000 0.80492  0.87290  0.40410  Biso   1.000  C
  C162     1.0000 0.19508  0.87290  0.09590  Biso   1.000  C
  C163     1.0000 0.30492  0.37290  0.40410  Biso   1.000  C
  C164     1.0000 0.69508  0.37290  0.09590  Biso   1.000  C
  C165     1.0000 0.19508  0.12710  0.59590  Biso   1.000  C
  C166     1.0000 0.80492  0.12710  0.90410  Biso   1.000  C
  C167     1.0000 0.69508  0.62710  0.59590  Biso   1.000  C
  C168     1.0000 0.30492  0.62710  0.90410  Biso   1.000  C
  H233     1.0000 0.81000  0.91500  0.40630  Biso   1.000  H
  H234     1.0000 0.19000  0.91500  0.09370  Biso   1.000  H
  H235     1.0000 0.31000  0.41500  0.40630  Biso   1.000  H
  H236     1.0000 0.69000  0.41500  0.09370  Biso   1.000  H
  H237     1.0000 0.19000  0.08500  0.59370  Biso   1.000  H
  H238     1.0000 0.81000  0.08500  0.90630  Biso   1.000  H
  H239     1.0000 0.69000  0.58500  0.59370  Biso   1.000  H
  H240     1.0000 0.31000  0.58500  0.90630  Biso   1.000  H
  C169     1.0000 0.77841  0.78570  0.40210  Biso   1.000  C
  C170     1.0000 0.22159  0.78570  0.09790  Biso   1.000  C
  C171     1.0000 0.27841  0.28570  0.40210  Biso   1.000  C
  C172     1.0000 0.72159  0.28570  0.09790  Biso   1.000  C
  C173     1.0000 0.22159  0.21430  0.59790  Biso   1.000  C
  C174     1.0000 0.77841  0.21430  0.90210  Biso   1.000  C
  C175     1.0000 0.72159  0.71430  0.59790  Biso   1.000  C
  C176     1.0000 0.27841  0.71430  0.90210  Biso   1.000  C
  H241     1.0000 0.76090  0.75500  0.40150  Biso   1.000  H
  H242     1.0000 0.23910  0.75500  0.09850  Biso   1.000  H
  H243     1.0000 0.26090  0.25500  0.40150  Biso   1.000  H
  H244     1.0000 0.73910  0.25500  0.09850  Biso   1.000  H
  H245     1.0000 0.23910  0.24500  0.59850  Biso   1.000  H
  H246     1.0000 0.76090  0.24500  0.90150  Biso   1.000  H
  H247     1.0000 0.73910  0.74500  0.59850  Biso   1.000  H
  H248     1.0000 0.26090  0.74500  0.90150  Biso   1.000  H
  C177     1.0000 0.72870  0.89400  0.55620  Biso   1.000  C
  C178     1.0000 0.27130  0.89400  0.94380  Biso   1.000  C
  C179     1.0000 0.22870  0.39400  0.55620  Biso   1.000  C
  C180     1.0000 0.77130  0.39400  0.94380  Biso   1.000  C
  C181     1.0000 0.27130  0.10600  0.44380  Biso   1.000  C
  C182     1.0000 0.72870  0.10600  0.05620  Biso   1.000  C
  C183     1.0000 0.77130  0.60600  0.44380  Biso   1.000  C
  C184     1.0000 0.22870  0.60600  0.05620  Biso   1.000  C
  H249     1.0000 0.75160  0.91740  0.56300  Biso   1.000  H
  H250     1.0000 0.24840  0.91740  0.93700  Biso   1.000  H
  H251     1.0000 0.25160  0.41740  0.56300  Biso   1.000  H
  H252     1.0000 0.74840  0.41740  0.93700  Biso   1.000  H
  H253     1.0000 0.24840  0.08260  0.43700  Biso   1.000  H
  H254     1.0000 0.75160  0.08260  0.06300  Biso   1.000  H
  H255     1.0000 0.74840  0.58260  0.43700  Biso   1.000  H
  H256     1.0000 0.25160  0.58260  0.06300  Biso   1.000  H
  C185     1.0000 0.67470  0.84450  0.51500  Biso   1.000  C
  C186     1.0000 0.32530  0.84450  0.98500  Biso   1.000  C
  C187     1.0000 0.17470  0.34450  0.51500  Biso   1.000  C
  C188     1.0000 0.82530  0.34450  0.98500  Biso   1.000  C
  C189     1.0000 0.32530  0.15550  0.48500  Biso   1.000  C
  C190     1.0000 0.67470  0.15550  0.01500  Biso   1.000  C
  C191     1.0000 0.82530  0.65550  0.48500  Biso   1.000  C
  C192     1.0000 0.17470  0.65550  0.01500  Biso   1.000  C
  H257     1.0000 0.65120  0.82560  0.48710  Biso   1.000  H
  H258     1.0000 0.34880  0.82560  0.01290  Biso   1.000  H
  H259     1.0000 0.15120  0.32560  0.48710  Biso   1.000  H
  H260     1.0000 0.84880  0.32560  0.01290  Biso   1.000  H
  H261     1.0000 0.34880  0.17440  0.51290  Biso   1.000  H
  H262     1.0000 0.65120  0.17440  0.98710  Biso   1.000  H
  H263     1.0000 0.84880  0.67440  0.51290  Biso   1.000  H
  H264     1.0000 0.15120  0.67440  0.98710  Biso   1.000  H
  C193     1.0000 0.70288  0.97320  0.39620  Biso   1.000  C
  C194     1.0000 0.29712  0.97320  0.10380  Biso   1.000  C
  C195     1.0000 0.20288  0.47320  0.39620  Biso   1.000  C
  C196     1.0000 0.79712  0.47320  0.10380  Biso   1.000  C
  C197     1.0000 0.29712  0.02680  0.60380  Biso   1.000  C
  C198     1.0000 0.70288  0.02680  0.89620  Biso   1.000  C
  C199     1.0000 0.79712  0.52680  0.60380  Biso   1.000  C
  C200     1.0000 0.20288  0.52680  0.89620  Biso   1.000  C
  C201     1.0000 0.73931  0.94370  0.39580  Biso   1.000  C
  C202     1.0000 0.26069  0.94370  0.10420  Biso   1.000  C
  C203     1.0000 0.23931  0.44370  0.39580  Biso   1.000  C
  C204     1.0000 0.76069  0.44370  0.10420  Biso   1.000  C
  C205     1.0000 0.26069  0.05630  0.60420  Biso   1.000  C
  C206     1.0000 0.73931  0.05630  0.89580  Biso   1.000  C
  C207     1.0000 0.76069  0.55630  0.60420  Biso   1.000  C
  C208     1.0000 0.23931  0.55630  0.89580  Biso   1.000  C
  H265     1.0000 0.73920  0.95350  0.36100  Biso   1.000  H
  H266     1.0000 0.26080  0.95350  0.13900  Biso   1.000  H
  H267     1.0000 0.23920  0.45350  0.36100  Biso   1.000  H
  H268     1.0000 0.76080  0.45350  0.13900  Biso   1.000  H
  H269     1.0000 0.26080  0.04650  0.63900  Biso   1.000  H
  H270     1.0000 0.73920  0.04650  0.86100  Biso   1.000  H
  H271     1.0000 0.76080  0.54650  0.63900  Biso   1.000  H
  H272     1.0000 0.23920  0.54650  0.86100  Biso   1.000  H
  H273     1.0000 0.76460  0.95900  0.42690  Biso   1.000  H
  H274     1.0000 0.23540  0.95900  0.07310  Biso   1.000  H
  H275     1.0000 0.26460  0.45900  0.42690  Biso   1.000  H
  H276     1.0000 0.73540  0.45900  0.07310  Biso   1.000  H
  H277     1.0000 0.23540  0.04100  0.57310  Biso   1.000  H
  H278     1.0000 0.76460  0.04100  0.92690  Biso   1.000  H
  H279     1.0000 0.73540  0.54100  0.57310  Biso   1.000  H
  H280     1.0000 0.26460  0.54100  0.92690  Biso   1.000  H
  C209     1.0000 0.73655  0.87500  0.40090  Biso   1.000  C
  C210     1.0000 0.26345  0.87500  0.09910  Biso   1.000  C
  C211     1.0000 0.23655  0.37500  0.40090  Biso   1.000  C
  C212     1.0000 0.76345  0.37500  0.09910  Biso   1.000  C
  C213     1.0000 0.26345  0.12500  0.59910  Biso   1.000  C
  C214     1.0000 0.73655  0.12500  0.90090  Biso   1.000  C
  C215     1.0000 0.76345  0.62500  0.59910  Biso   1.000  C
  C216     1.0000 0.23655  0.62500  0.90090  Biso   1.000  C
  C217     1.0000 0.73688  0.86020  0.45490  Biso   1.000  C
  C218     1.0000 0.26312  0.86020  0.04510  Biso   1.000  C
  C219     1.0000 0.23688  0.36020  0.45490  Biso   1.000  C
  C220     1.0000 0.76312  0.36020  0.04510  Biso   1.000  C
  C221     1.0000 0.26312  0.13980  0.54510  Biso   1.000  C
  C222     1.0000 0.73688  0.13980  0.95490  Biso   1.000  C
  C223     1.0000 0.76312  0.63980  0.54510  Biso   1.000  C
  C224     1.0000 0.23688  0.63980  0.95490  Biso   1.000  C
  H281     1.0000 0.73530  0.81610  0.45850  Biso   1.000  H
  H282     1.0000 0.26470  0.81610  0.04150  Biso   1.000  H
  H283     1.0000 0.23530  0.31610  0.45850  Biso   1.000  H
  H284     1.0000 0.76470  0.31610  0.04150  Biso   1.000  H
  H285     1.0000 0.26470  0.18390  0.54150  Biso   1.000  H
  H286     1.0000 0.73530  0.18390  0.95850  Biso   1.000  H
  H287     1.0000 0.76470  0.68390  0.54150  Biso   1.000  H
  H288     1.0000 0.23530  0.68390  0.95850  Biso   1.000  H
  H289     1.0000 0.76220  0.87470  0.48660  Biso   1.000  H
  H290     1.0000 0.23780  0.87470  0.01340  Biso   1.000  H
  H291     1.0000 0.26220  0.37470  0.48660  Biso   1.000  H
  H292     1.0000 0.73780  0.37470  0.01340  Biso   1.000  H
  H293     1.0000 0.23780  0.12530  0.51340  Biso   1.000  H
  H294     1.0000 0.76220  0.12530  0.98660  Biso   1.000  H
  H295     1.0000 0.73780  0.62530  0.51340  Biso   1.000  H
  H296     1.0000 0.26220  0.62530  0.98660  Biso   1.000  H
  C225     1.0000 0.70111  0.89040  0.45510  Biso   1.000  C
  C226     1.0000 0.29889  0.89040  0.04490  Biso   1.000  C
  C227     1.0000 0.20111  0.39040  0.45510  Biso   1.000  C
  C228     1.0000 0.79889  0.39040  0.04490  Biso   1.000  C
  C229     1.0000 0.29889  0.10960  0.54490  Biso   1.000  C
  C230     1.0000 0.70111  0.10960  0.95510  Biso   1.000  C
  C231     1.0000 0.79889  0.60960  0.54490  Biso   1.000  C
  C232     1.0000 0.20111  0.60960  0.95510  Biso   1.000  C
  C233     1.0000 0.70287  0.95890  0.44880  Biso   1.000  C
  C234     1.0000 0.29713  0.95890  0.05120  Biso   1.000  C
  C235     1.0000 0.20287  0.45890  0.44880  Biso   1.000  C
  C236     1.0000 0.79713  0.45890  0.05120  Biso   1.000  C
  C237     1.0000 0.29713  0.04110  0.55120  Biso   1.000  C
  C238     1.0000 0.70287  0.04110  0.94880  Biso   1.000  C
  C239     1.0000 0.79713  0.54110  0.55120  Biso   1.000  C
  C240     1.0000 0.20287  0.54110  0.94880  Biso   1.000  C
  H297     1.0000 0.67930  0.97810  0.44850  Biso   1.000  H
  H298     1.0000 0.32070  0.97810  0.05150  Biso   1.000  H
  H299     1.0000 0.17930  0.47810  0.44850  Biso   1.000  H
  H300     1.0000 0.82070  0.47810  0.05150  Biso   1.000  H
  H301     1.0000 0.32070  0.02190  0.55150  Biso   1.000  H
  H302     1.0000 0.67930  0.02190  0.94850  Biso   1.000  H
  H303     1.0000 0.82070  0.52190  0.55150  Biso   1.000  H
  H304     1.0000 0.17930  0.52190  0.94850  Biso   1.000  H
  H305     1.0000 0.72760  0.97530  0.48040  Biso   1.000  H
  H306     1.0000 0.27240  0.97530  0.01960  Biso   1.000  H
  H307     1.0000 0.22760  0.47530  0.48040  Biso   1.000  H
  H308     1.0000 0.77240  0.47530  0.01960  Biso   1.000  H
  H309     1.0000 0.27240  0.02470  0.51960  Biso   1.000  H
  H310     1.0000 0.72760  0.02470  0.98040  Biso   1.000  H
  H311     1.0000 0.77240  0.52470  0.51960  Biso   1.000  H
  H312     1.0000 0.22760  0.52470  0.98040  Biso   1.000  H
  C241     1.0000 0.66392  0.95070  0.34490  Biso   1.000  C
  C242     1.0000 0.33608  0.95070  0.15510  Biso   1.000  C
  C243     1.0000 0.16392  0.45070  0.34490  Biso   1.000  C
  C244     1.0000 0.83608  0.45070  0.15510  Biso   1.000  C
  C245     1.0000 0.33608  0.04930  0.65510  Biso   1.000  C
  C246     1.0000 0.66392  0.04930  0.84490  Biso   1.000  C
  C247     1.0000 0.83608  0.54930  0.65510  Biso   1.000  C
  C248     1.0000 0.16392  0.54930  0.84490  Biso   1.000  C
  H313     1.0000 0.66500  0.95920  0.31080  Biso   1.000  H
  H314     1.0000 0.33500  0.95920  0.18920  Biso   1.000  H
  H315     1.0000 0.16500  0.45920  0.31080  Biso   1.000  H
  H316     1.0000 0.83500  0.45920  0.18920  Biso   1.000  H
  H317     1.0000 0.33500  0.04080  0.68920  Biso   1.000  H
  H318     1.0000 0.66500  0.04080  0.81080  Biso   1.000  H
  H319     1.0000 0.83500  0.54080  0.68920  Biso   1.000  H
  H320     1.0000 0.16500  0.54080  0.81080  Biso   1.000  H
  H321     1.0000 0.64000  0.97090  0.34250  Biso   1.000  H
  H322     1.0000 0.36000  0.97090  0.15750  Biso   1.000  H
  H323     1.0000 0.14000  0.47090  0.34250  Biso   1.000  H
  H324     1.0000 0.86000  0.47090  0.15750  Biso   1.000  H
  H325     1.0000 0.36000  0.02910  0.65750  Biso   1.000  H
  H326     1.0000 0.64000  0.02910  0.84250  Biso   1.000  H
  H327     1.0000 0.86000  0.52910  0.65750  Biso   1.000  H
  H328     1.0000 0.14000  0.52910  0.84250  Biso   1.000  H
  C249     1.0000 0.66185  0.88120  0.35270  Biso   1.000  C
  C250     1.0000 0.33815  0.88120  0.14730  Biso   1.000  C
  C251     1.0000 0.16185  0.38120  0.35270  Biso   1.000  C
  C252     1.0000 0.83815  0.38120  0.14730  Biso   1.000  C
  C253     1.0000 0.33815  0.11880  0.64730  Biso   1.000  C
  C254     1.0000 0.66185  0.11880  0.85270  Biso   1.000  C
  C255     1.0000 0.83815  0.61880  0.64730  Biso   1.000  C
  C256     1.0000 0.16185  0.61880  0.85270  Biso   1.000  C
  H329     1.0000 0.63660  0.86500  0.32110  Biso   1.000  H
  H330     1.0000 0.36340  0.86500  0.17890  Biso   1.000  H
  H331     1.0000 0.13660  0.36500  0.32110  Biso   1.000  H
  H332     1.0000 0.86340  0.36500  0.17890  Biso   1.000  H
  H333     1.0000 0.36340  0.13500  0.67890  Biso   1.000  H
  H334     1.0000 0.63660  0.13500  0.82110  Biso   1.000  H
  H335     1.0000 0.86340  0.63500  0.67890  Biso   1.000  H
  H336     1.0000 0.13660  0.63500  0.82110  Biso   1.000  H
  C257     1.0000 0.69808  0.85200  0.35230  Biso   1.000  C
  C258     1.0000 0.30192  0.85200  0.14770  Biso   1.000  C
  C259     1.0000 0.19808  0.35200  0.35230  Biso   1.000  C
  C260     1.0000 0.80192  0.35200  0.14770  Biso   1.000  C
  C261     1.0000 0.30192  0.14800  0.64770  Biso   1.000  C
  C262     1.0000 0.69808  0.14800  0.85230  Biso   1.000  C
  C263     1.0000 0.80192  0.64800  0.64770  Biso   1.000  C
  C264     1.0000 0.19808  0.64800  0.85230  Biso   1.000  C
  H337     1.0000 0.69660  0.80770  0.35460  Biso   1.000  H
  H338     1.0000 0.30340  0.80770  0.14540  Biso   1.000  H
  H339     1.0000 0.19660  0.30770  0.35460  Biso   1.000  H
  H340     1.0000 0.80340  0.30770  0.14540  Biso   1.000  H
  H341     1.0000 0.30340  0.19230  0.64540  Biso   1.000  H
  H342     1.0000 0.69660  0.19230  0.85460  Biso   1.000  H
  H343     1.0000 0.80340  0.69230  0.64540  Biso   1.000  H
  H344     1.0000 0.19660  0.69230  0.85460  Biso   1.000  H
  H345     1.0000 0.69790  0.86190  0.31750  Biso   1.000  H
  H346     1.0000 0.30210  0.86190  0.18250  Biso   1.000  H
  H347     1.0000 0.19790  0.36190  0.31750  Biso   1.000  H
  H348     1.0000 0.80210  0.36190  0.18250  Biso   1.000  H
  H349     1.0000 0.30210  0.13810  0.68250  Biso   1.000  H
  H350     1.0000 0.69790  0.13810  0.81750  Biso   1.000  H
  H351     1.0000 0.80210  0.63810  0.68250  Biso   1.000  H
  H352     1.0000 0.19790  0.63810  0.81750  Biso   1.000  H
  C265     1.0000 0.66186  0.86710  0.40590  Biso   1.000  C
  C266     1.0000 0.33814  0.86710  0.09410  Biso   1.000  C
  C267     1.0000 0.16186  0.36710  0.40590  Biso   1.000  C
  C268     1.0000 0.83814  0.36710  0.09410  Biso   1.000  C
  C269     1.0000 0.33814  0.13290  0.59410  Biso   1.000  C
  C270     1.0000 0.66186  0.13290  0.90590  Biso   1.000  C
  C271     1.0000 0.83814  0.63290  0.59410  Biso   1.000  C
  C272     1.0000 0.16186  0.63290  0.90590  Biso   1.000  C
  H353     1.0000 0.65960  0.82310  0.40930  Biso   1.000  H
  H354     1.0000 0.34040  0.82310  0.09070  Biso   1.000  H
  H355     1.0000 0.15960  0.32310  0.40930  Biso   1.000  H
  H356     1.0000 0.84040  0.32310  0.09070  Biso   1.000  H
  H357     1.0000 0.34040  0.17690  0.59070  Biso   1.000  H
  H358     1.0000 0.65960  0.17690  0.90930  Biso   1.000  H
  H359     1.0000 0.84040  0.67690  0.59070  Biso   1.000  H
  H360     1.0000 0.15960  0.67690  0.90930  Biso   1.000  H
  H361     1.0000 0.63850  0.88660  0.40570  Biso   1.000  H
  H362     1.0000 0.36150  0.88660  0.09430  Biso   1.000  H
  H363     1.0000 0.13850  0.38660  0.40570  Biso   1.000  H
  H364     1.0000 0.86150  0.38660  0.09430  Biso   1.000  H
  H365     1.0000 0.36150  0.11340  0.59430  Biso   1.000  H
  H366     1.0000 0.63850  0.11340  0.90570  Biso   1.000  H
  H367     1.0000 0.86150  0.61340  0.59430  Biso   1.000  H
  H368     1.0000 0.13850  0.61340  0.90570  Biso   1.000  H
  C273     1.0000 0.61579  0.30820  0.39390  Biso   1.000  C
  C274     1.0000 0.38421  0.30820  0.10610  Biso   1.000  C
  C275     1.0000 0.11579  0.80820  0.39390  Biso   1.000  C
  C276     1.0000 0.88421  0.80820  0.10610  Biso   1.000  C
  C277     1.0000 0.38421  0.69180  0.60610  Biso   1.000  C
  C278     1.0000 0.61579  0.69180  0.89390  Biso   1.000  C
  C279     1.0000 0.88421  0.19180  0.60610  Biso   1.000  C
  C280     1.0000 0.11579  0.19180  0.89390  Biso   1.000  C
  H369     1.0000 0.59920  0.28120  0.40040  Biso   1.000  H
  H370     1.0000 0.40080  0.28120  0.09960  Biso   1.000  H
  H371     1.0000 0.09920  0.78120  0.40040  Biso   1.000  H
  H372     1.0000 0.90080  0.78120  0.09960  Biso   1.000  H
  H373     1.0000 0.40080  0.71880  0.59960  Biso   1.000  H
  H374     1.0000 0.59920  0.71880  0.90040  Biso   1.000  H
  H375     1.0000 0.90080  0.21880  0.59960  Biso   1.000  H
  H376     1.0000 0.09920  0.21880  0.90040  Biso   1.000  H
  C281     1.0000 0.64043  0.38810  0.37880  Biso   1.000  C
  C282     1.0000 0.35957  0.38810  0.12120  Biso   1.000  C
  C283     1.0000 0.14043  0.88810  0.37880  Biso   1.000  C
  C284     1.0000 0.85957  0.88810  0.12120  Biso   1.000  C
  C285     1.0000 0.35957  0.61190  0.62120  Biso   1.000  C
  C286     1.0000 0.64043  0.61190  0.87880  Biso   1.000  C
  C287     1.0000 0.85957  0.11190  0.62120  Biso   1.000  C
  C288     1.0000 0.14043  0.11190  0.87880  Biso   1.000  C
  H377     1.0000 0.64430  0.42880  0.37200  Biso   1.000  H
  H378     1.0000 0.35570  0.42880  0.12800  Biso   1.000  H
  H379     1.0000 0.14430  0.92880  0.37200  Biso   1.000  H
  H380     1.0000 0.85570  0.92880  0.12800  Biso   1.000  H
  H381     1.0000 0.35570  0.57120  0.62800  Biso   1.000  H
  H382     1.0000 0.64430  0.57120  0.87200  Biso   1.000  H
  H383     1.0000 0.85570  0.07120  0.62800  Biso   1.000  H
  H384     1.0000 0.14430  0.07120  0.87200  Biso   1.000  H
  C289     1.0000 0.48331  0.30470  0.40140  Biso   1.000  C
  C290     1.0000 0.51669  0.30470  0.09860  Biso   1.000  C
  C291     1.0000 0.98331  0.80470  0.40140  Biso   1.000  C
  C292     1.0000 0.01669  0.80470  0.09860  Biso   1.000  C
  C293     1.0000 0.51669  0.69530  0.59860  Biso   1.000  C
  C294     1.0000 0.48331  0.69530  0.90140  Biso   1.000  C
  C295     1.0000 0.01669  0.19530  0.59860  Biso   1.000  C
  C296     1.0000 0.98331  0.19530  0.90140  Biso   1.000  C
  H385     1.0000 0.50350  0.27750  0.40450  Biso   1.000  H
  H386     1.0000 0.49650  0.27750  0.09550  Biso   1.000  H
  H387     1.0000 0.00350  0.77750  0.40450  Biso   1.000  H
  H388     1.0000 0.99650  0.77750  0.09550  Biso   1.000  H
  H389     1.0000 0.49650  0.72250  0.59550  Biso   1.000  H
  H390     1.0000 0.50350  0.72250  0.90450  Biso   1.000  H
  H391     1.0000 0.99650  0.22250  0.59550  Biso   1.000  H
  H392     1.0000 0.00350  0.22250  0.90450  Biso   1.000  H
  C297     1.0000 0.45012  0.38540  0.39280  Biso   1.000  C
  C298     1.0000 0.54988  0.38540  0.10720  Biso   1.000  C
  C299     1.0000 0.95012  0.88540  0.39280  Biso   1.000  C
  C300     1.0000 0.04988  0.88540  0.10720  Biso   1.000  C
  C301     1.0000 0.54988  0.61460  0.60720  Biso   1.000  C
  C302     1.0000 0.45012  0.61460  0.89280  Biso   1.000  C
  C303     1.0000 0.04988  0.11460  0.60720  Biso   1.000  C
  C304     1.0000 0.95012  0.11460  0.89280  Biso   1.000  C
  H393     1.0000 0.44210  0.42640  0.38860  Biso   1.000  H
  H394     1.0000 0.55790  0.42640  0.11140  Biso   1.000  H
  H395     1.0000 0.94210  0.92640  0.38860  Biso   1.000  H
  H396     1.0000 0.05790  0.92640  0.11140  Biso   1.000  H
  H397     1.0000 0.55790  0.57360  0.61140  Biso   1.000  H
  H398     1.0000 0.44210  0.57360  0.88860  Biso   1.000  H
  H399     1.0000 0.05790  0.07360  0.61140  Biso   1.000  H
  H400     1.0000 0.94210  0.07360  0.88860  Biso   1.000  H
  C305     1.0000 0.57877  0.40570  0.38990  Biso   1.000  C
  C306     1.0000 0.42123  0.40570  0.11010  Biso   1.000  C
  C307     1.0000 0.07877  0.90570  0.38990  Biso   1.000  C
  C308     1.0000 0.92123  0.90570  0.11010  Biso   1.000  C
  C309     1.0000 0.42123  0.59430  0.61010  Biso   1.000  C
  C310     1.0000 0.57877  0.59430  0.88990  Biso   1.000  C
  C311     1.0000 0.92123  0.09430  0.61010  Biso   1.000  C
  C312     1.0000 0.07877  0.09430  0.88990  Biso   1.000  C
  C313     1.0000 0.54641  0.36450  0.38880  Biso   1.000  C
  C314     1.0000 0.45359  0.36450  0.11120  Biso   1.000  C
  C315     1.0000 0.04641  0.86450  0.38880  Biso   1.000  C
  C316     1.0000 0.95359  0.86450  0.11120  Biso   1.000  C
  C317     1.0000 0.45359  0.63550  0.61120  Biso   1.000  C
  C318     1.0000 0.54641  0.63550  0.88880  Biso   1.000  C
  C319     1.0000 0.95359  0.13550  0.61120  Biso   1.000  C
  C320     1.0000 0.04641  0.13550  0.88880  Biso   1.000  C
  H401     1.0000 0.53350  0.34130  0.35410  Biso   1.000  H
  H402     1.0000 0.46650  0.34130  0.14590  Biso   1.000  H
  H403     1.0000 0.03350  0.84130  0.35410  Biso   1.000  H
  H404     1.0000 0.96650  0.84130  0.14590  Biso   1.000  H
  H405     1.0000 0.46650  0.65870  0.64590  Biso   1.000  H
  H406     1.0000 0.53350  0.65870  0.85410  Biso   1.000  H
  H407     1.0000 0.96650  0.15870  0.64590  Biso   1.000  H
  H408     1.0000 0.03350  0.15870  0.85410  Biso   1.000  H
  H409     1.0000 0.55860  0.33580  0.42000  Biso   1.000  H
  H410     1.0000 0.44140  0.33580  0.08000  Biso   1.000  H
  H411     1.0000 0.05860  0.83580  0.42000  Biso   1.000  H
  H412     1.0000 0.94140  0.83580  0.08000  Biso   1.000  H
  H413     1.0000 0.44140  0.66420  0.58000  Biso   1.000  H
  H414     1.0000 0.55860  0.66420  0.92000  Biso   1.000  H
  H415     1.0000 0.94140  0.16420  0.58000  Biso   1.000  H
  H416     1.0000 0.05860  0.16420  0.92000  Biso   1.000  H
  C321     1.0000 0.51531  0.40350  0.39340  Biso   1.000  C
  C322     1.0000 0.48469  0.40350  0.10660  Biso   1.000  C
  C323     1.0000 0.01531  0.90350  0.39340  Biso   1.000  C
  C324     1.0000 0.98469  0.90350  0.10660  Biso   1.000  C
  C325     1.0000 0.48469  0.59650  0.60660  Biso   1.000  C
  C326     1.0000 0.51531  0.59650  0.89340  Biso   1.000  C
  C327     1.0000 0.98469  0.09650  0.60660  Biso   1.000  C
  C328     1.0000 0.01531  0.09650  0.89340  Biso   1.000  C
  C329     1.0000 0.53548  0.43800  0.44720  Biso   1.000  C
  C330     1.0000 0.46452  0.43800  0.05280  Biso   1.000  C
  C331     1.0000 0.03548  0.93800  0.44720  Biso   1.000  C
  C332     1.0000 0.96452  0.93800  0.05280  Biso   1.000  C
  C333     1.0000 0.46452  0.56200  0.55280  Biso   1.000  C
  C334     1.0000 0.53548  0.56200  0.94720  Biso   1.000  C
  C335     1.0000 0.96452  0.06200  0.55280  Biso   1.000  C
  C336     1.0000 0.03548  0.06200  0.94720  Biso   1.000  C
  H417     1.0000 0.51520  0.46240  0.45090  Biso   1.000  H
  H418     1.0000 0.48480  0.46240  0.04910  Biso   1.000  H
  H419     1.0000 0.01520  0.96240  0.45090  Biso   1.000  H
  H420     1.0000 0.98480  0.96240  0.04910  Biso   1.000  H
  H421     1.0000 0.48480  0.53760  0.54910  Biso   1.000  H
  H422     1.0000 0.51520  0.53760  0.95090  Biso   1.000  H
  H423     1.0000 0.98480  0.03760  0.54910  Biso   1.000  H
  H424     1.0000 0.01520  0.03760  0.95090  Biso   1.000  H
  H425     1.0000 0.54770  0.40950  0.47840  Biso   1.000  H
  H426     1.0000 0.45230  0.40950  0.02160  Biso   1.000  H
  H427     1.0000 0.04770  0.90950  0.47840  Biso   1.000  H
  H428     1.0000 0.95230  0.90950  0.02160  Biso   1.000  H
  H429     1.0000 0.45230  0.59050  0.52160  Biso   1.000  H
  H430     1.0000 0.54770  0.59050  0.97840  Biso   1.000  H
  H431     1.0000 0.95230  0.09050  0.52160  Biso   1.000  H
  H432     1.0000 0.04770  0.09050  0.97840  Biso   1.000  H
  C337     1.0000 0.56757  0.47850  0.44830  Biso   1.000  C
  C338     1.0000 0.43243  0.47850  0.05170  Biso   1.000  C
  C339     1.0000 0.06757  0.97850  0.44830  Biso   1.000  C
  C340     1.0000 0.93243  0.97850  0.05170  Biso   1.000  C
  C341     1.0000 0.43243  0.52150  0.55170  Biso   1.000  C
  C342     1.0000 0.56757  0.52150  0.94830  Biso   1.000  C
  C343     1.0000 0.93243  0.02150  0.55170  Biso   1.000  C
  C344     1.0000 0.06757  0.02150  0.94830  Biso   1.000  C
  C345     1.0000 0.60009  0.43980  0.44510  Biso   1.000  C
  C346     1.0000 0.39991  0.43980  0.05490  Biso   1.000  C
  C347     1.0000 0.10009  0.93980  0.44510  Biso   1.000  C
  C348     1.0000 0.89991  0.93980  0.05490  Biso   1.000  C
  C349     1.0000 0.39991  0.56020  0.55490  Biso   1.000  C
  C350     1.0000 0.60009  0.56020  0.94510  Biso   1.000  C
  C351     1.0000 0.89991  0.06020  0.55490  Biso   1.000  C
  C352     1.0000 0.10009  0.06020  0.94510  Biso   1.000  C
  H433     1.0000 0.62170  0.46560  0.44650  Biso   1.000  H
  H434     1.0000 0.37830  0.46560  0.05350  Biso   1.000  H
  H435     1.0000 0.12170  0.96560  0.44650  Biso   1.000  H
  H436     1.0000 0.87830  0.96560  0.05350  Biso   1.000  H
  H437     1.0000 0.37830  0.53440  0.55350  Biso   1.000  H
  H438     1.0000 0.62170  0.53440  0.94650  Biso   1.000  H
  H439     1.0000 0.87830  0.03440  0.55350  Biso   1.000  H
  H440     1.0000 0.12170  0.03440  0.94650  Biso   1.000  H
  H441     1.0000 0.61210  0.41110  0.47620  Biso   1.000  H
  H442     1.0000 0.38790  0.41110  0.02380  Biso   1.000  H
  H443     1.0000 0.11210  0.91110  0.47620  Biso   1.000  H
  H444     1.0000 0.88790  0.91110  0.02380  Biso   1.000  H
  H445     1.0000 0.38790  0.58890  0.52380  Biso   1.000  H
  H446     1.0000 0.61210  0.58890  0.97620  Biso   1.000  H
  H447     1.0000 0.88790  0.08890  0.52380  Biso   1.000  H
  H448     1.0000 0.11210  0.08890  0.97620  Biso   1.000  H
  C353     1.0000 0.56045  0.44940  0.34090  Biso   1.000  C
  C354     1.0000 0.43955  0.44940  0.15910  Biso   1.000  C
  C355     1.0000 0.06045  0.94940  0.34090  Biso   1.000  C
  C356     1.0000 0.93955  0.94940  0.15910  Biso   1.000  C
  C357     1.0000 0.43955  0.55060  0.65910  Biso   1.000  C
  C358     1.0000 0.56045  0.55060  0.84090  Biso   1.000  C
  C359     1.0000 0.93955  0.05060  0.65910  Biso   1.000  C
  C360     1.0000 0.06045  0.05060  0.84090  Biso   1.000  C
  H449     1.0000 0.58170  0.47550  0.34160  Biso   1.000  H
  H450     1.0000 0.41830  0.47550  0.15840  Biso   1.000  H
  H451     1.0000 0.08170  0.97550  0.34160  Biso   1.000  H
  H452     1.0000 0.91830  0.97550  0.15840  Biso   1.000  H
  H453     1.0000 0.41830  0.52450  0.65840  Biso   1.000  H
  H454     1.0000 0.58170  0.52450  0.84160  Biso   1.000  H
  H455     1.0000 0.91830  0.02450  0.65840  Biso   1.000  H
  H456     1.0000 0.08170  0.02450  0.84160  Biso   1.000  H
  H457     1.0000 0.54780  0.42660  0.30590  Biso   1.000  H
  H458     1.0000 0.45220  0.42660  0.19410  Biso   1.000  H
  H459     1.0000 0.04780  0.92660  0.30590  Biso   1.000  H
  H460     1.0000 0.95220  0.92660  0.19410  Biso   1.000  H
  H461     1.0000 0.45220  0.57340  0.69410  Biso   1.000  H
  H462     1.0000 0.54780  0.57340  0.80590  Biso   1.000  H
  H463     1.0000 0.95220  0.07340  0.69410  Biso   1.000  H
  H464     1.0000 0.04780  0.07340  0.80590  Biso   1.000  H
  C361     1.0000 0.52879  0.48790  0.34530  Biso   1.000  C
  C362     1.0000 0.47121  0.48790  0.15470  Biso   1.000  C
  C363     1.0000 0.02879  0.98790  0.34530  Biso   1.000  C
  C364     1.0000 0.97121  0.98790  0.15470  Biso   1.000  C
  C365     1.0000 0.47121  0.51210  0.65470  Biso   1.000  C
  C366     1.0000 0.52879  0.51210  0.84530  Biso   1.000  C
  C367     1.0000 0.97121  0.01210  0.65470  Biso   1.000  C
  C368     1.0000 0.02879  0.01210  0.84530  Biso   1.000  C
  H465     1.0000 0.51650  0.51700  0.31390  Biso   1.000  H
  H466     1.0000 0.48350  0.51700  0.18610  Biso   1.000  H
  H467     1.0000 0.01650  0.01700  0.31390  Biso   1.000  H
  H468     1.0000 0.98350  0.01700  0.18610  Biso   1.000  H
  H469     1.0000 0.48350  0.48300  0.68610  Biso   1.000  H
  H470     1.0000 0.51650  0.48300  0.81390  Biso   1.000  H
  H471     1.0000 0.98350  0.98300  0.68610  Biso   1.000  H
  H472     1.0000 0.01650  0.98300  0.81390  Biso   1.000  H
  C369     1.0000 0.49599  0.44680  0.34480  Biso   1.000  C
  C370     1.0000 0.50401  0.44680  0.15520  Biso   1.000  C
  C371     1.0000 0.99599  0.94680  0.34480  Biso   1.000  C
  C372     1.0000 0.00401  0.94680  0.15520  Biso   1.000  C
  C373     1.0000 0.50401  0.55320  0.65520  Biso   1.000  C
  C374     1.0000 0.49599  0.55320  0.84480  Biso   1.000  C
  C375     1.0000 0.00401  0.05320  0.65520  Biso   1.000  C
  C376     1.0000 0.99599  0.05320  0.84480  Biso   1.000  C
  H473     1.0000 0.47540  0.47140  0.34740  Biso   1.000  H
  H474     1.0000 0.52460  0.47140  0.15260  Biso   1.000  H
  H475     1.0000 0.97540  0.97140  0.34740  Biso   1.000  H
  H476     1.0000 0.02460  0.97140  0.15260  Biso   1.000  H
  H477     1.0000 0.52460  0.52860  0.65260  Biso   1.000  H
  H478     1.0000 0.47540  0.52860  0.84740  Biso   1.000  H
  H479     1.0000 0.02460  0.02860  0.65260  Biso   1.000  H
  H480     1.0000 0.97540  0.02860  0.84740  Biso   1.000  H
  H481     1.0000 0.48260  0.42380  0.30990  Biso   1.000  H
  H482     1.0000 0.51740  0.42380  0.19010  Biso   1.000  H
  H483     1.0000 0.98260  0.92380  0.30990  Biso   1.000  H
  H484     1.0000 0.01740  0.92380  0.19010  Biso   1.000  H
  H485     1.0000 0.51740  0.57620  0.69010  Biso   1.000  H
  H486     1.0000 0.48260  0.57620  0.80990  Biso   1.000  H
  H487     1.0000 0.01740  0.07620  0.69010  Biso   1.000  H
  H488     1.0000 0.98260  0.07620  0.80990  Biso   1.000  H
  C377     1.0000 0.54994  0.52310  0.40170  Biso   1.000  C
  C378     1.0000 0.45006  0.52310  0.09830  Biso   1.000  C
  C379     1.0000 0.04994  0.02310  0.40170  Biso   1.000  C
  C380     1.0000 0.95006  0.02310  0.09830  Biso   1.000  C
  C381     1.0000 0.45006  0.47690  0.59830  Biso   1.000  C
  C382     1.0000 0.54994  0.47690  0.90170  Biso   1.000  C
  C383     1.0000 0.95006  0.97690  0.59830  Biso   1.000  C
  C384     1.0000 0.04994  0.97690  0.90170  Biso   1.000  C
  H489     1.0000 0.57150  0.54920  0.40310  Biso   1.000  H
  H490     1.0000 0.42850  0.54920  0.09690  Biso   1.000  H
  H491     1.0000 0.07150  0.04920  0.40310  Biso   1.000  H
  H492     1.0000 0.92850  0.04920  0.09690  Biso   1.000  H
  H493     1.0000 0.42850  0.45080  0.59690  Biso   1.000  H
  H494     1.0000 0.57150  0.45080  0.90310  Biso   1.000  H
  H495     1.0000 0.92850  0.95080  0.59690  Biso   1.000  H
  H496     1.0000 0.07150  0.95080  0.90310  Biso   1.000  H
  H497     1.0000 0.53010  0.54890  0.40500  Biso   1.000  H
  H498     1.0000 0.46990  0.54890  0.09500  Biso   1.000  H
  H499     1.0000 0.03010  0.04890  0.40500  Biso   1.000  H
  H500     1.0000 0.96990  0.04890  0.09500  Biso   1.000  H
  H501     1.0000 0.46990  0.45110  0.59500  Biso   1.000  H
  H502     1.0000 0.53010  0.45110  0.90500  Biso   1.000  H
  H503     1.0000 0.96990  0.95110  0.59500  Biso   1.000  H
  H504     1.0000 0.03010  0.95110  0.90500  Biso   1.000  H
  O201     1.0000 0.59250  0.38020  0.24410  Biso   1.000  O
  O202     1.0000 0.40750  0.38020  0.25590  Biso   1.000  O
  O203     1.0000 0.09250  0.88020  0.24410  Biso   1.000  O
  O204     1.0000 0.90750  0.88020  0.25590  Biso   1.000  O
  O205     1.0000 0.40750  0.61980  0.75590  Biso   1.000  O
  O206     1.0000 0.59250  0.61980  0.74410  Biso   1.000  O
  O207     1.0000 0.90750  0.11980  0.75590  Biso   1.000  O
  O208     1.0000 0.09250  0.11980  0.74410  Biso   1.000  O
  O209     1.0000 0.79140  0.78780  0.58160  Biso   1.000  O
  O210     1.0000 0.20860  0.78780  0.91840  Biso   1.000  O
  O211     1.0000 0.29140  0.28780  0.58160  Biso   1.000  O
  O212     1.0000 0.70860  0.28780  0.91840  Biso   1.000  O
  O213     1.0000 0.20860  0.21220  0.41840  Biso   1.000  O
  O214     1.0000 0.79140  0.21220  0.08160  Biso   1.000  O
  O215     1.0000 0.70860  0.71220  0.41840  Biso   1.000  O
  O216     1.0000 0.29140  0.71220  0.08160  Biso   1.000  O
  O217     1.0000 0.24980  0.08900  0.28080  Biso   1.000  O
  O218     1.0000 0.75020  0.08900  0.21920  Biso   1.000  O
  O219     1.0000 0.74980  0.58900  0.28080  Biso   1.000  O
  O220     1.0000 0.25020  0.58900  0.21920  Biso   1.000  O
  O221     1.0000 0.75020  0.91100  0.71920  Biso   1.000  O
  O222     1.0000 0.24980  0.91100  0.78080  Biso   1.000  O
  O223     1.0000 0.25020  0.41100  0.71920  Biso   1.000  O
  O224     1.0000 0.74980  0.41100  0.78080  Biso   1.000  O
  O225     1.0000 0.64030  0.08030  0.26210  Biso   1.000  O
  O226     1.0000 0.35970  0.08030  0.23790  Biso   1.000  O
  O227     1.0000 0.14030  0.58030  0.26210  Biso   1.000  O
  O228     1.0000 0.85970  0.58030  0.23790  Biso   1.000  O
  O229     1.0000 0.35970  0.91970  0.73790  Biso   1.000  O
  O230     1.0000 0.64030  0.91970  0.76210  Biso   1.000  O
  O231     1.0000 0.85970  0.41970  0.73790  Biso   1.000  O
  O232     1.0000 0.14030  0.41970  0.76210  Biso   1.000  O
  O233     1.0000 0.53580  0.31600  0.25200  Biso   1.000  O
  O234     1.0000 0.46420  0.31600  0.24800  Biso   1.000  O
  O235     1.0000 0.03580  0.81600  0.25200  Biso   1.000  O
  O236     1.0000 0.96420  0.81600  0.24800  Biso   1.000  O
  O237     1.0000 0.46420  0.68400  0.74800  Biso   1.000  O
  O238     1.0000 0.53580  0.68400  0.75200  Biso   1.000  O
  O239     1.0000 0.96420  0.18400  0.74800  Biso   1.000  O
  O240     1.0000 0.03580  0.18400  0.75200  Biso   1.000  O
  O241     1.0000 0.81210  0.97990  0.28460  Biso   1.000  O
  O242     1.0000 0.18790  0.97990  0.21540  Biso   1.000  O
  O243     1.0000 0.31210  0.47990  0.28460  Biso   1.000  O
  O244     1.0000 0.68790  0.47990  0.21540  Biso   1.000  O
  O245     1.0000 0.18790  0.02010  0.71540  Biso   1.000  O
  O246     1.0000 0.81210  0.02010  0.78460  Biso   1.000  O
  O247     1.0000 0.68790  0.52010  0.71540  Biso   1.000  O
  O248     1.0000 0.31210  0.52010  0.78460  Biso   1.000  O
  O249     1.0000 0.41910  0.07440  0.51650  Biso   1.000  O
  O250     1.0000 0.58090  0.07440  0.98350  Biso   1.000  O
  O251     1.0000 0.91910  0.57440  0.51650  Biso   1.000  O
  O252     1.0000 0.08090  0.57440  0.98350  Biso   1.000  O
  O253     1.0000 0.58090  0.92560  0.48350  Biso   1.000  O
  O254     1.0000 0.41910  0.92560  0.01650  Biso   1.000  O
  O255     1.0000 0.08090  0.42560  0.48350  Biso   1.000  O
  O256     1.0000 0.91910  0.42560  0.01650  Biso   1.000  O
  O257     1.0000 0.65540  0.99980  0.52290  Biso   1.000  O
  O258     1.0000 0.34460  0.99980  0.97710  Biso   1.000  O
  O259     1.0000 0.15540  0.49980  0.52290  Biso   1.000  O
  O260     1.0000 0.84460  0.49980  0.97710  Biso   1.000  O
  O261     1.0000 0.34460  0.00020  0.47710  Biso   1.000  O
  O262     1.0000 0.65540  0.00020  0.02290  Biso   1.000  O
  O263     1.0000 0.84460  0.50020  0.47710  Biso   1.000  O
  O264     1.0000 0.15540  0.50020  0.02290  Biso   1.000  O
  O265     1.0000 0.23180  0.28900  0.27050  Biso   1.000  O
  O266     1.0000 0.76820  0.28900  0.22950  Biso   1.000  O
  O267     1.0000 0.73180  0.78900  0.27050  Biso   1.000  O
  O268     1.0000 0.26820  0.78900  0.22950  Biso   1.000  O
  O269     1.0000 0.76820  0.71100  0.72950  Biso   1.000  O
  O270     1.0000 0.23180  0.71100  0.77050  Biso   1.000  O
  O271     1.0000 0.26820  0.21100  0.72950  Biso   1.000  O
  O272     1.0000 0.73180  0.21100  0.77050  Biso   1.000  O
  O273     1.0000 0.67130  0.63730  0.32660  Biso   1.000  O
  O274     1.0000 0.32870  0.63730  0.17340  Biso   1.000  O
  O275     1.0000 0.17130  0.13730  0.32660  Biso   1.000  O
  O276     1.0000 0.82870  0.13730  0.17340  Biso   1.000  O
  O277     1.0000 0.32870  0.36270  0.67340  Biso   1.000  O
  O278     1.0000 0.67130  0.36270  0.82660  Biso   1.000  O
  O279     1.0000 0.82870  0.86270  0.67340  Biso   1.000  O
  O280     1.0000 0.17130  0.86270  0.82660  Biso   1.000  O
  O281     1.0000 0.49680  0.00630  0.57410  Biso   1.000  O
  O282     1.0000 0.50320  0.00630  0.92590  Biso   1.000  O
  O283     1.0000 0.99680  0.50630  0.57410  Biso   1.000  O
  O284     1.0000 0.00320  0.50630  0.92590  Biso   1.000  O
  O285     1.0000 0.50320  0.99370  0.42590  Biso   1.000  O
  O286     1.0000 0.49680  0.99370  0.07410  Biso   1.000  O
  O287     1.0000 0.00320  0.49370  0.42590  Biso   1.000  O
  O288     1.0000 0.99680  0.49370  0.07410  Biso   1.000  O
  O289     1.0000 0.53860  0.46350  0.57620  Biso   1.000  O
  O290     1.0000 0.46140  0.46350  0.92380  Biso   1.000  O
  O291     1.0000 0.03860  0.96350  0.57620  Biso   1.000  O
  O292     1.0000 0.96140  0.96350  0.92380  Biso   1.000  O
  O293     1.0000 0.46140  0.53650  0.42380  Biso   1.000  O
  O294     1.0000 0.53860  0.53650  0.07620  Biso   1.000  O
  O295     1.0000 0.96140  0.03650  0.42380  Biso   1.000  O
  O296     1.0000 0.03860  0.03650  0.07620  Biso   1.000  O
  O297     1.0000 0.24170  0.41180  0.26950  Biso   1.000  O
  O298     1.0000 0.75830  0.41180  0.23050  Biso   1.000  O
  O299     1.0000 0.74170  0.91180  0.26950  Biso   1.000  O
  O300     1.0000 0.25830  0.91180  0.23050  Biso   1.000  O
  O301     1.0000 0.75830  0.58820  0.73050  Biso   1.000  O
  O302     1.0000 0.24170  0.58820  0.76950  Biso   1.000  O
  O303     1.0000 0.25830  0.08820  0.73050  Biso   1.000  O
  O304     1.0000 0.74170  0.08820  0.76950  Biso   1.000  O
  O305     1.0000 0.70340  0.02350  0.25400  Biso   1.000  O
  O306     1.0000 0.29660  0.02350  0.24600  Biso   1.000  O
  O307     1.0000 0.20340  0.52350  0.25400  Biso   1.000  O
  O308     1.0000 0.79660  0.52350  0.24600  Biso   1.000  O
  O309     1.0000 0.29660  0.97650  0.74600  Biso   1.000  O
  O310     1.0000 0.70340  0.97650  0.75400  Biso   1.000  O
  O311     1.0000 0.79660  0.47650  0.74600  Biso   1.000  O
  O312     1.0000 0.20340  0.47650  0.75400  Biso   1.000  O
  O313     1.0000 0.33800  0.32250  0.53130  Biso   1.000  O
  O314     1.0000 0.66200  0.32250  0.96870  Biso   1.000  O
  O315     1.0000 0.83800  0.82250  0.53130  Biso   1.000  O
  O316     1.0000 0.16200  0.82250  0.96870  Biso   1.000  O
  O317     1.0000 0.66200  0.67750  0.46870  Biso   1.000  O
  O318     1.0000 0.33800  0.67750  0.03130  Biso   1.000  O
  O319     1.0000 0.16200  0.17750  0.46870  Biso   1.000  O
  O320     1.0000 0.83800  0.17750  0.03130  Biso   1.000  O
  O321     1.0000 0.55780  0.19390  0.28040  Biso   1.000  O
  O322     1.0000 0.44220  0.19390  0.21960  Biso   1.000  O
  O323     1.0000 0.05780  0.69390  0.28040  Biso   1.000  O
  O324     1.0000 0.94220  0.69390  0.21960  Biso   1.000  O
  O325     1.0000 0.44220  0.80610  0.71960  Biso   1.000  O
  O326     1.0000 0.55780  0.80610  0.78040  Biso   1.000  O
  O327     1.0000 0.94220  0.30610  0.71960  Biso   1.000  O
  O328     1.0000 0.05780  0.30610  0.78040  Biso   1.000  O
  C385     1.0000 0.59780  0.48990  0.55260  Biso   1.000  C
  C386     1.0000 0.40220  0.48990  0.94740  Biso   1.000  C
  C387     1.0000 0.09780  0.98990  0.55260  Biso   1.000  C
  C388     1.0000 0.90220  0.98990  0.94740  Biso   1.000  C
  C389     1.0000 0.40220  0.51010  0.44740  Biso   1.000  C
  C390     1.0000 0.59780  0.51010  0.05260  Biso   1.000  C
  C391     1.0000 0.90220  0.01010  0.44740  Biso   1.000  C
  C392     1.0000 0.09780  0.01010  0.05260  Biso   1.000  C
  C393     1.0000 0.59560  0.57080  0.51100  Biso   1.000  C
  C394     1.0000 0.40440  0.57080  0.98900  Biso   1.000  C
  C395     1.0000 0.09560  0.07080  0.51100  Biso   1.000  C
  C396     1.0000 0.90440  0.07080  0.98900  Biso   1.000  C
  C397     1.0000 0.40440  0.42920  0.48900  Biso   1.000  C
  C398     1.0000 0.59560  0.42920  0.01100  Biso   1.000  C
  C399     1.0000 0.90440  0.92920  0.48900  Biso   1.000  C
  C400     1.0000 0.09560  0.92920  0.01100  Biso   1.000  C
  H505     1.0000 0.59540  0.44810  0.55910  Biso   1.000  H
  H506     1.0000 0.40460  0.44810  0.94090  Biso   1.000  H
  H507     1.0000 0.09540  0.94810  0.55910  Biso   1.000  H
  H508     1.0000 0.90460  0.94810  0.94090  Biso   1.000  H
  H509     1.0000 0.40460  0.55190  0.44090  Biso   1.000  H
  H510     1.0000 0.59540  0.55190  0.05910  Biso   1.000  H
  H511     1.0000 0.90460  0.05190  0.44090  Biso   1.000  H
  H512     1.0000 0.09540  0.05190  0.05910  Biso   1.000  H
  H513     1.0000 0.59170  0.60000  0.48350  Biso   1.000  H
  H514     1.0000 0.40830  0.60000  0.01650  Biso   1.000  H
  H515     1.0000 0.09170  0.10000  0.48350  Biso   1.000  H
  H516     1.0000 0.90830  0.10000  0.01650  Biso   1.000  H
  H517     1.0000 0.40830  0.40000  0.51650  Biso   1.000  H
  H518     1.0000 0.59170  0.40000  0.98350  Biso   1.000  H
  H519     1.0000 0.90830  0.90000  0.51650  Biso   1.000  H
  H520     1.0000 0.09170  0.90000  0.98350  Biso   1.000  H
  N217     1.0000 0.61110  0.53010  0.59220  Biso   1.000  N
  N218     1.0000 0.38890  0.53010  0.90780  Biso   1.000  N
  N219     1.0000 0.11110  0.03010  0.59220  Biso   1.000  N
  N220     1.0000 0.88890  0.03010  0.90780  Biso   1.000  N
  N221     1.0000 0.38890  0.46990  0.40780  Biso   1.000  N
  N222     1.0000 0.61110  0.46990  0.09220  Biso   1.000  N
  N223     1.0000 0.88890  0.96990  0.40780  Biso   1.000  N
  N224     1.0000 0.11110  0.96990  0.09220  Biso   1.000  N
  O329     1.0000 0.80520  0.05670  0.34750  Biso   1.000  O
  O330     1.0000 0.19480  0.05670  0.15250  Biso   1.000  O
  O331     1.0000 0.30520  0.55670  0.34750  Biso   1.000  O
  O332     1.0000 0.69480  0.55670  0.15250  Biso   1.000  O
  O333     1.0000 0.19480  0.94330  0.65250  Biso   1.000  O
  O334     1.0000 0.80520  0.94330  0.84750  Biso   1.000  O
  O335     1.0000 0.69480  0.44330  0.65250  Biso   1.000  O
  O336     1.0000 0.30520  0.44330  0.84750  Biso   1.000  O
  O337     1.0000 0.68190  0.52100  0.35090  Biso   1.000  O
  O338     1.0000 0.31810  0.52100  0.14910  Biso   1.000  O
  O339     1.0000 0.18190  0.02100  0.35090  Biso   1.000  O
  O340     1.0000 0.81810  0.02100  0.14910  Biso   1.000  O
  O341     1.0000 0.31810  0.47900  0.64910  Biso   1.000  O
  O342     1.0000 0.68190  0.47900  0.85090  Biso   1.000  O
  O343     1.0000 0.81810  0.97900  0.64910  Biso   1.000  O
  O344     1.0000 0.18190  0.97900  0.85090  Biso   1.000  O
  O345     1.0000 0.74290  0.50730  0.34860  Biso   1.000  O
  O346     1.0000 0.25710  0.50730  0.15140  Biso   1.000  O
  O347     1.0000 0.24290  0.00730  0.34860  Biso   1.000  O
  O348     1.0000 0.75710  0.00730  0.15140  Biso   1.000  O
  O349     1.0000 0.25710  0.49270  0.65140  Biso   1.000  O
  O350     1.0000 0.74290  0.49270  0.84860  Biso   1.000  O
  O351     1.0000 0.75710  0.99270  0.65140  Biso   1.000  O
  O352     1.0000 0.24290  0.99270  0.84860  Biso   1.000  O
  O353     1.0000 0.55020  0.20180  0.21300  Biso   1.000  O
  O354     1.0000 0.44980  0.20180  0.28700  Biso   1.000  O
  O355     1.0000 0.05020  0.70180  0.21300  Biso   1.000  O
  O356     1.0000 0.94980  0.70180  0.28700  Biso   1.000  O
  O357     1.0000 0.44980  0.79820  0.78700  Biso   1.000  O
  O358     1.0000 0.55020  0.79820  0.71300  Biso   1.000  O
  O359     1.0000 0.94980  0.29820  0.78700  Biso   1.000  O
  O360     1.0000 0.05020  0.29820  0.71300  Biso   1.000  O
  O361     1.0000 0.73360  0.46030  0.41750  Biso   1.000  O
  O362     1.0000 0.26640  0.46030  0.08250  Biso   1.000  O
  O363     1.0000 0.23360  0.96030  0.41750  Biso   1.000  O
  O364     1.0000 0.76640  0.96030  0.08250  Biso   1.000  O
  O365     1.0000 0.26640  0.53970  0.58250  Biso   1.000  O
  O366     1.0000 0.73360  0.53970  0.91750  Biso   1.000  O
  O367     1.0000 0.76640  0.03970  0.58250  Biso   1.000  O
  O368     1.0000 0.23360  0.03970  0.91750  Biso   1.000  O
  O369     1.0000 0.82560  0.12780  0.41940  Biso   1.000  O
  O370     1.0000 0.17440  0.12780  0.08060  Biso   1.000  O
  O371     1.0000 0.32560  0.62780  0.41940  Biso   1.000  O
  O372     1.0000 0.67440  0.62780  0.08060  Biso   1.000  O
  O373     1.0000 0.17440  0.87220  0.58060  Biso   1.000  O
  O374     1.0000 0.82560  0.87220  0.91940  Biso   1.000  O
  O375     1.0000 0.67440  0.37220  0.58060  Biso   1.000  O
  O376     1.0000 0.32560  0.37220  0.91940  Biso   1.000  O
  O377     1.0000 0.84180  0.14410  0.34870  Biso   1.000  O
  O378     1.0000 0.15820  0.14410  0.15130  Biso   1.000  O
  O379     1.0000 0.34180  0.64410  0.34870  Biso   1.000  O
  O380     1.0000 0.65820  0.64410  0.15130  Biso   1.000  O
  O381     1.0000 0.15820  0.85590  0.65130  Biso   1.000  O
  O382     1.0000 0.84180  0.85590  0.84870  Biso   1.000  O
  O383     1.0000 0.65820  0.35590  0.65130  Biso   1.000  O
  O384     1.0000 0.34180  0.35590  0.84870  Biso   1.000  O
