data_image0
_cell_length_a       24.7233
_cell_length_b       24.7233
_cell_length_c       24.7233
_cell_angle_alpha    90
_cell_angle_beta     90
_cell_angle_gamma    90

_symmetry_space_group_name_H-M    "P 1"
_symmetry_int_tables_number       1

loop_
  _symmetry_equiv_pos_as_xyz
  'x, y, z'

loop_
  _atom_site_label
  _atom_site_occupancy
  _atom_site_fract_x
  _atom_site_fract_y
  _atom_site_fract_z
  _atom_site_thermal_displace_type
  _atom_site_B_iso_or_equiv
  _atom_site_type_symbol
  Cu1      1.0000 0.80640  0.00000  0.05640  Biso   1.000  Cu
  Cu2      1.0000 0.05640  0.80640  0.00000  Biso   1.000  Cu
  Cu3      1.0000 0.00000  0.05640  0.80640  Biso   1.000  Cu
  Cu4      1.0000 0.75000  0.05640  0.94360  Biso   1.000  Cu
  Cu5      1.0000 0.25000  0.19360  0.80640  Biso   1.000  Cu
  Cu6      1.0000 0.00000  0.55640  0.30640  Biso   1.000  Cu
  Cu7      1.0000 0.55640  0.30640  0.00000  Biso   1.000  Cu
  Cu8      1.0000 0.19360  0.80640  0.25000  Biso   1.000  Cu
  Cu9      1.0000 0.05640  0.94360  0.75000  Biso   1.000  Cu
  Cu10     1.0000 0.80640  0.25000  0.19360  Biso   1.000  Cu
  Cu11     1.0000 0.30640  0.00000  0.55640  Biso   1.000  Cu
  Cu12     1.0000 0.94360  0.75000  0.05640  Biso   1.000  Cu
  Cu13     1.0000 0.80640  0.50000  0.55640  Biso   1.000  Cu
  Cu14     1.0000 0.44360  0.25000  0.05640  Biso   1.000  Cu
  Cu15     1.0000 0.05640  0.30640  0.50000  Biso   1.000  Cu
  Cu16     1.0000 0.19360  0.44360  0.00000  Biso   1.000  Cu
  Cu17     1.0000 0.25000  0.69360  0.30640  Biso   1.000  Cu
  Cu18     1.0000 0.19360  0.30640  0.75000  Biso   1.000  Cu
  Cu19     1.0000 0.05640  0.44360  0.25000  Biso   1.000  Cu
  Cu20     1.0000 0.30640  0.50000  0.05640  Biso   1.000  Cu
  Cu21     1.0000 0.94360  0.25000  0.55640  Biso   1.000  Cu
  Cu22     1.0000 0.55640  0.80640  0.50000  Biso   1.000  Cu
  Cu23     1.0000 0.50000  0.05640  0.30640  Biso   1.000  Cu
  Cu24     1.0000 0.00000  0.19360  0.44360  Biso   1.000  Cu
  Cu25     1.0000 0.25000  0.05640  0.44360  Biso   1.000  Cu
  Cu26     1.0000 0.75000  0.19360  0.30640  Biso   1.000  Cu
  Cu27     1.0000 0.55640  0.94360  0.25000  Biso   1.000  Cu
  Cu28     1.0000 0.30640  0.25000  0.69360  Biso   1.000  Cu
  Cu29     1.0000 0.44360  0.00000  0.19360  Biso   1.000  Cu
  Cu30     1.0000 0.50000  0.55640  0.80640  Biso   1.000  Cu
  Cu31     1.0000 0.25000  0.55640  0.94360  Biso   1.000  Cu
  Cu32     1.0000 0.69360  0.30640  0.25000  Biso   1.000  Cu
  Cu33     1.0000 0.30640  0.75000  0.19360  Biso   1.000  Cu
  Cu34     1.0000 0.44360  0.75000  0.55640  Biso   1.000  Cu
  Cu35     1.0000 0.94360  0.50000  0.19360  Biso   1.000  Cu
  Cu36     1.0000 0.55640  0.44360  0.75000  Biso   1.000  Cu
  Cu37     1.0000 0.19360  0.94360  0.50000  Biso   1.000  Cu
  Cu38     1.0000 0.75000  0.55640  0.44360  Biso   1.000  Cu
  Cu39     1.0000 0.50000  0.19360  0.94360  Biso   1.000  Cu
  Cu40     1.0000 0.50000  0.69360  0.44360  Biso   1.000  Cu
  Cu41     1.0000 0.69360  0.44360  0.50000  Biso   1.000  Cu
  Cu42     1.0000 0.44360  0.50000  0.69360  Biso   1.000  Cu
  Cu43     1.0000 0.94360  0.00000  0.69360  Biso   1.000  Cu
  Cu44     1.0000 0.69360  0.80640  0.75000  Biso   1.000  Cu
  Cu45     1.0000 0.69360  0.94360  0.00000  Biso   1.000  Cu
  Cu46     1.0000 0.80640  0.75000  0.69360  Biso   1.000  Cu
  Cu47     1.0000 0.75000  0.69360  0.80640  Biso   1.000  Cu
  Cu48     1.0000 0.00000  0.69360  0.94360  Biso   1.000  Cu
  Cu49     1.0000 0.19360  0.00000  0.94360  Biso   1.000  Cu
  Cu50     1.0000 0.94360  0.19360  0.00000  Biso   1.000  Cu
  Cu51     1.0000 0.00000  0.94360  0.19360  Biso   1.000  Cu
  Cu52     1.0000 0.75000  0.44360  0.05640  Biso   1.000  Cu
  Cu53     1.0000 0.25000  0.80640  0.69360  Biso   1.000  Cu
  Cu54     1.0000 0.80640  0.69360  0.25000  Biso   1.000  Cu
  Cu55     1.0000 0.44360  0.05640  0.75000  Biso   1.000  Cu
  Cu56     1.0000 0.69360  0.25000  0.80640  Biso   1.000  Cu
  Cu57     1.0000 0.05640  0.75000  0.44360  Biso   1.000  Cu
  Cu58     1.0000 0.19360  0.50000  0.44360  Biso   1.000  Cu
  Cu59     1.0000 0.05640  0.25000  0.94360  Biso   1.000  Cu
  Cu60     1.0000 0.94360  0.69360  0.50000  Biso   1.000  Cu
  Cu61     1.0000 0.30640  0.05640  0.00000  Biso   1.000  Cu
  Cu62     1.0000 0.00000  0.44360  0.69360  Biso   1.000  Cu
  Cu63     1.0000 0.25000  0.30640  0.19360  Biso   1.000  Cu
  Cu64     1.0000 0.80640  0.19360  0.75000  Biso   1.000  Cu
  Cu65     1.0000 0.44360  0.55640  0.25000  Biso   1.000  Cu
  Cu66     1.0000 0.69360  0.00000  0.44360  Biso   1.000  Cu
  Cu67     1.0000 0.19360  0.25000  0.30640  Biso   1.000  Cu
  Cu68     1.0000 0.44360  0.19360  0.50000  Biso   1.000  Cu
  Cu69     1.0000 0.94360  0.05640  0.25000  Biso   1.000  Cu
  Cu70     1.0000 0.50000  0.94360  0.69360  Biso   1.000  Cu
  Cu71     1.0000 0.00000  0.30640  0.05640  Biso   1.000  Cu
  Cu72     1.0000 0.25000  0.44360  0.55640  Biso   1.000  Cu
  Cu73     1.0000 0.75000  0.80640  0.19360  Biso   1.000  Cu
  Cu74     1.0000 0.69360  0.50000  0.94360  Biso   1.000  Cu
  Cu75     1.0000 0.05640  0.00000  0.30640  Biso   1.000  Cu
  Cu76     1.0000 0.44360  0.69360  0.00000  Biso   1.000  Cu
  Cu77     1.0000 0.30640  0.19360  0.25000  Biso   1.000  Cu
  Cu78     1.0000 0.50000  0.44360  0.19360  Biso   1.000  Cu
  Cu79     1.0000 0.25000  0.94360  0.05640  Biso   1.000  Cu
  Cu80     1.0000 0.19360  0.75000  0.80640  Biso   1.000  Cu
  Cu81     1.0000 0.55640  0.25000  0.44360  Biso   1.000  Cu
  Cu82     1.0000 0.55640  0.50000  0.30640  Biso   1.000  Cu
  Cu83     1.0000 0.30640  0.55640  0.50000  Biso   1.000  Cu
  Cu84     1.0000 0.50000  0.30640  0.55640  Biso   1.000  Cu
  Cu85     1.0000 0.55640  0.00000  0.80640  Biso   1.000  Cu
  Cu86     1.0000 0.69360  0.75000  0.30640  Biso   1.000  Cu
  Cu87     1.0000 0.75000  0.94360  0.55640  Biso   1.000  Cu
  Cu88     1.0000 0.50000  0.80640  0.05640  Biso   1.000  Cu
  Cu89     1.0000 0.55640  0.75000  0.94360  Biso   1.000  Cu
  Cu90     1.0000 0.05640  0.50000  0.80640  Biso   1.000  Cu
  Cu91     1.0000 0.80640  0.55640  0.00000  Biso   1.000  Cu
  Cu92     1.0000 0.30640  0.69360  0.75000  Biso   1.000  Cu
  Cu93     1.0000 0.94360  0.55640  0.75000  Biso   1.000  Cu
  Cu94     1.0000 0.80640  0.05640  0.50000  Biso   1.000  Cu
  Cu95     1.0000 0.00000  0.80640  0.55640  Biso   1.000  Cu
  Cu96     1.0000 0.75000  0.30640  0.69360  Biso   1.000  Cu
  N1       1.0000 0.77097  0.93643  0.08907  Biso   1.000  N
  N2       1.0000 0.08907  0.77097  0.93643  Biso   1.000  N
  N3       1.0000 0.93643  0.08907  0.77097  Biso   1.000  N
  N4       1.0000 0.68643  0.02097  0.91093  Biso   1.000  N
  N5       1.0000 0.18643  0.22903  0.83907  Biso   1.000  N
  N6       1.0000 0.06357  0.52097  0.33907  Biso   1.000  N
  N7       1.0000 0.52097  0.33907  0.06357  Biso   1.000  N
  N8       1.0000 0.22903  0.83907  0.18643  Biso   1.000  N
  N9       1.0000 0.02097  0.91093  0.68643  Biso   1.000  N
  N10      1.0000 0.83907  0.18643  0.22903  Biso   1.000  N
  N11      1.0000 0.33907  0.06357  0.52097  Biso   1.000  N
  N12      1.0000 0.91093  0.68643  0.02097  Biso   1.000  N
  N13      1.0000 0.77097  0.43643  0.58907  Biso   1.000  N
  N14      1.0000 0.47903  0.31357  0.08907  Biso   1.000  N
  N15      1.0000 0.08907  0.27097  0.43643  Biso   1.000  N
  N16      1.0000 0.16093  0.47903  0.93643  Biso   1.000  N
  N17      1.0000 0.93643  0.58907  0.27097  Biso   1.000  N
  N18      1.0000 0.31357  0.16093  0.77097  Biso   1.000  N
  N19      1.0000 0.18643  0.72903  0.33907  Biso   1.000  N
  N20      1.0000 0.06357  0.02097  0.83907  Biso   1.000  N
  N21      1.0000 0.22903  0.33907  0.68643  Biso   1.000  N
  N22      1.0000 0.02097  0.41093  0.18643  Biso   1.000  N
  N23      1.0000 0.33907  0.56357  0.02097  Biso   1.000  N
  N24      1.0000 0.91093  0.18643  0.52097  Biso   1.000  N
  N25      1.0000 0.27097  0.93643  0.58907  Biso   1.000  N
  N26      1.0000 0.77097  0.31357  0.16093  Biso   1.000  N
  N27      1.0000 0.58907  0.77097  0.43643  Biso   1.000  N
  N28      1.0000 0.08907  0.47903  0.31357  Biso   1.000  N
  N29      1.0000 0.43643  0.08907  0.27097  Biso   1.000  N
  N30      1.0000 0.93643  0.16093  0.47903  Biso   1.000  N
  N31      1.0000 0.18643  0.02097  0.41093  Biso   1.000  N
  N32      1.0000 0.68643  0.22903  0.33907  Biso   1.000  N
  N33      1.0000 0.02097  0.33907  0.56357  Biso   1.000  N
  N34      1.0000 0.52097  0.91093  0.18643  Biso   1.000  N
  N35      1.0000 0.33907  0.18643  0.72903  Biso   1.000  N
  N36      1.0000 0.83907  0.06357  0.02097  Biso   1.000  N
  N37      1.0000 0.27097  0.43643  0.08907  Biso   1.000  N
  N38      1.0000 0.47903  0.93643  0.16093  Biso   1.000  N
  N39      1.0000 0.58907  0.27097  0.93643  Biso   1.000  N
  N40      1.0000 0.16093  0.77097  0.31357  Biso   1.000  N
  N41      1.0000 0.43643  0.58907  0.77097  Biso   1.000  N
  N42      1.0000 0.31357  0.08907  0.47903  Biso   1.000  N
  N43      1.0000 0.18643  0.52097  0.91093  Biso   1.000  N
  N44      1.0000 0.56357  0.02097  0.33907  Biso   1.000  N
  N45      1.0000 0.02097  0.83907  0.06357  Biso   1.000  N
  N46      1.0000 0.72903  0.33907  0.18643  Biso   1.000  N
  N47      1.0000 0.33907  0.68643  0.22903  Biso   1.000  N
  N48      1.0000 0.41093  0.18643  0.02097  Biso   1.000  N
  N49      1.0000 0.47903  0.81357  0.58907  Biso   1.000  N
  N50      1.0000 0.97903  0.43643  0.16093  Biso   1.000  N
  N51      1.0000 0.27097  0.31357  0.66093  Biso   1.000  N
  N52      1.0000 0.58907  0.47903  0.81357  Biso   1.000  N
  N53      1.0000 0.16093  0.97903  0.43643  Biso   1.000  N
  N54      1.0000 0.66093  0.27097  0.31357  Biso   1.000  N
  N55      1.0000 0.81357  0.58907  0.47903  Biso   1.000  N
  N56      1.0000 0.43643  0.16093  0.97903  Biso   1.000  N
  N57      1.0000 0.31357  0.66093  0.27097  Biso   1.000  N
  N58      1.0000 0.56357  0.72903  0.41093  Biso   1.000  N
  N59      1.0000 0.72903  0.41093  0.56357  Biso   1.000  N
  N60      1.0000 0.41093  0.56357  0.72903  Biso   1.000  N
  N61      1.0000 0.97903  0.93643  0.66093  Biso   1.000  N
  N62      1.0000 0.27097  0.81357  0.16093  Biso   1.000  N
  N63      1.0000 0.58907  0.97903  0.31357  Biso   1.000  N
  N64      1.0000 0.66093  0.77097  0.81357  Biso   1.000  N
  N65      1.0000 0.81357  0.08907  0.97903  Biso   1.000  N
  N66      1.0000 0.43643  0.66093  0.47903  Biso   1.000  N
  N67      1.0000 0.68643  0.52097  0.41093  Biso   1.000  N
  N68      1.0000 0.56357  0.22903  0.91093  Biso   1.000  N
  N69      1.0000 0.52097  0.83907  0.56357  Biso   1.000  N
  N70      1.0000 0.72903  0.91093  0.06357  Biso   1.000  N
  N71      1.0000 0.83907  0.68643  0.72903  Biso   1.000  N
  N72      1.0000 0.41093  0.06357  0.22903  Biso   1.000  N
  N73      1.0000 0.97903  0.81357  0.08907  Biso   1.000  N
  N74      1.0000 0.47903  0.43643  0.66093  Biso   1.000  N
  N75      1.0000 0.66093  0.97903  0.93643  Biso   1.000  N
  N76      1.0000 0.16093  0.27097  0.81357  Biso   1.000  N
  N77      1.0000 0.31357  0.58907  0.97903  Biso   1.000  N
  N78      1.0000 0.81357  0.66093  0.77097  Biso   1.000  N
  N79      1.0000 0.06357  0.72903  0.91093  Biso   1.000  N
  N80      1.0000 0.56357  0.52097  0.83907  Biso   1.000  N
  N81      1.0000 0.72903  0.83907  0.68643  Biso   1.000  N
  N82      1.0000 0.22903  0.41093  0.06357  Biso   1.000  N
  N83      1.0000 0.41093  0.68643  0.52097  Biso   1.000  N
  N84      1.0000 0.91093  0.56357  0.22903  Biso   1.000  N
  N85      1.0000 0.97903  0.31357  0.58907  Biso   1.000  N
  N86      1.0000 0.77097  0.81357  0.66093  Biso   1.000  N
  N87      1.0000 0.08907  0.97903  0.81357  Biso   1.000  N
  N88      1.0000 0.66093  0.47903  0.43643  Biso   1.000  N
  N89      1.0000 0.93643  0.66093  0.97903  Biso   1.000  N
  N90      1.0000 0.81357  0.16093  0.27097  Biso   1.000  N
  N91      1.0000 0.06357  0.22903  0.41093  Biso   1.000  N
  N92      1.0000 0.68643  0.72903  0.83907  Biso   1.000  N
  N93      1.0000 0.22903  0.91093  0.56357  Biso   1.000  N
  N94      1.0000 0.52097  0.41093  0.68643  Biso   1.000  N
  N95      1.0000 0.83907  0.56357  0.52097  Biso   1.000  N
  N96      1.0000 0.91093  0.06357  0.72903  Biso   1.000  N
  N97      1.0000 0.22903  0.06357  0.91093  Biso   1.000  N
  N98      1.0000 0.91093  0.22903  0.06357  Biso   1.000  N
  N99      1.0000 0.06357  0.91093  0.22903  Biso   1.000  N
  N100     1.0000 0.81357  0.47903  0.08907  Biso   1.000  N
  N101     1.0000 0.31357  0.77097  0.66093  Biso   1.000  N
  N102     1.0000 0.93643  0.97903  0.16093  Biso   1.000  N
  N103     1.0000 0.97903  0.16093  0.93643  Biso   1.000  N
  N104     1.0000 0.77097  0.66093  0.31357  Biso   1.000  N
  N105     1.0000 0.47903  0.08907  0.81357  Biso   1.000  N
  N106     1.0000 0.66093  0.31357  0.77097  Biso   1.000  N
  N107     1.0000 0.16093  0.93643  0.97903  Biso   1.000  N
  N108     1.0000 0.08907  0.81357  0.47903  Biso   1.000  N
  N109     1.0000 0.22903  0.56357  0.41093  Biso   1.000  N
  N110     1.0000 0.02097  0.18643  0.91093  Biso   1.000  N
  N111     1.0000 0.91093  0.72903  0.56357  Biso   1.000  N
  N112     1.0000 0.33907  0.02097  0.06357  Biso   1.000  N
  N113     1.0000 0.06357  0.41093  0.72903  Biso   1.000  N
  N114     1.0000 0.18643  0.33907  0.22903  Biso   1.000  N
  N115     1.0000 0.31357  0.27097  0.16093  Biso   1.000  N
  N116     1.0000 0.93643  0.47903  0.66093  Biso   1.000  N
  N117     1.0000 0.77097  0.16093  0.81357  Biso   1.000  N
  N118     1.0000 0.47903  0.58907  0.31357  Biso   1.000  N
  N119     1.0000 0.16093  0.43643  0.47903  Biso   1.000  N
  N120     1.0000 0.08907  0.31357  0.97903  Biso   1.000  N
  N121     1.0000 0.72903  0.06357  0.41093  Biso   1.000  N
  N122     1.0000 0.22903  0.18643  0.33907  Biso   1.000  N
  N123     1.0000 0.41093  0.22903  0.56357  Biso   1.000  N
  N124     1.0000 0.91093  0.02097  0.18643  Biso   1.000  N
  N125     1.0000 0.56357  0.91093  0.72903  Biso   1.000  N
  N126     1.0000 0.06357  0.33907  0.02097  Biso   1.000  N
  N127     1.0000 0.31357  0.47903  0.58907  Biso   1.000  N
  N128     1.0000 0.81357  0.77097  0.16093  Biso   1.000  N
  N129     1.0000 0.47903  0.16093  0.43643  Biso   1.000  N
  N130     1.0000 0.97903  0.08907  0.31357  Biso   1.000  N
  N131     1.0000 0.16093  0.31357  0.27097  Biso   1.000  N
  N132     1.0000 0.66093  0.93643  0.47903  Biso   1.000  N
  N133     1.0000 0.72903  0.56357  0.91093  Biso   1.000  N
  N134     1.0000 0.02097  0.06357  0.33907  Biso   1.000  N
  N135     1.0000 0.41093  0.72903  0.06357  Biso   1.000  N
  N136     1.0000 0.33907  0.22903  0.18643  Biso   1.000  N
  N137     1.0000 0.56357  0.41093  0.22903  Biso   1.000  N
  N138     1.0000 0.18643  0.91093  0.02097  Biso   1.000  N
  N139     1.0000 0.31357  0.97903  0.08907  Biso   1.000  N
  N140     1.0000 0.43643  0.47903  0.16093  Biso   1.000  N
  N141     1.0000 0.47903  0.66093  0.93643  Biso   1.000  N
  N142     1.0000 0.27097  0.16093  0.31357  Biso   1.000  N
  N143     1.0000 0.16093  0.81357  0.77097  Biso   1.000  N
  N144     1.0000 0.58907  0.31357  0.47903  Biso   1.000  N
  N145     1.0000 0.02097  0.68643  0.41093  Biso   1.000  N
  N146     1.0000 0.52097  0.56357  0.33907  Biso   1.000  N
  N147     1.0000 0.72903  0.18643  0.83907  Biso   1.000  N
  N148     1.0000 0.41093  0.02097  0.68643  Biso   1.000  N
  N149     1.0000 0.33907  0.52097  0.56357  Biso   1.000  N
  N150     1.0000 0.83907  0.72903  0.18643  Biso   1.000  N
  N151     1.0000 0.68643  0.41093  0.02097  Biso   1.000  N
  N152     1.0000 0.56357  0.33907  0.52097  Biso   1.000  N
  N153     1.0000 0.18643  0.83907  0.72903  Biso   1.000  N
  N154     1.0000 0.43643  0.27097  0.58907  Biso   1.000  N
  N155     1.0000 0.27097  0.58907  0.43643  Biso   1.000  N
  N156     1.0000 0.58907  0.43643  0.27097  Biso   1.000  N
  N157     1.0000 0.52097  0.06357  0.83907  Biso   1.000  N
  N158     1.0000 0.72903  0.68643  0.33907  Biso   1.000  N
  N159     1.0000 0.41093  0.52097  0.18643  Biso   1.000  N
  N160     1.0000 0.83907  0.22903  0.68643  Biso   1.000  N
  N161     1.0000 0.68643  0.91093  0.52097  Biso   1.000  N
  N162     1.0000 0.56357  0.83907  0.02097  Biso   1.000  N
  N163     1.0000 0.81357  0.97903  0.58907  Biso   1.000  N
  N164     1.0000 0.43643  0.77097  0.08907  Biso   1.000  N
  N165     1.0000 0.97903  0.66093  0.43643  Biso   1.000  N
  N166     1.0000 0.27097  0.08907  0.93643  Biso   1.000  N
  N167     1.0000 0.66093  0.81357  0.27097  Biso   1.000  N
  N168     1.0000 0.58907  0.93643  0.77097  Biso   1.000  N
  N169     1.0000 0.52097  0.68643  0.91093  Biso   1.000  N
  N170     1.0000 0.02097  0.56357  0.83907  Biso   1.000  N
  N171     1.0000 0.83907  0.52097  0.06357  Biso   1.000  N
  N172     1.0000 0.33907  0.72903  0.68643  Biso   1.000  N
  N173     1.0000 0.18643  0.41093  0.52097  Biso   1.000  N
  N174     1.0000 0.68643  0.83907  0.22903  Biso   1.000  N
  N175     1.0000 0.93643  0.27097  0.08907  Biso   1.000  N
  N176     1.0000 0.43643  0.97903  0.66093  Biso   1.000  N
  N177     1.0000 0.27097  0.66093  0.81357  Biso   1.000  N
  N178     1.0000 0.77097  0.58907  0.93643  Biso   1.000  N
  N179     1.0000 0.58907  0.81357  0.97903  Biso   1.000  N
  N180     1.0000 0.08907  0.43643  0.77097  Biso   1.000  N
  N181     1.0000 0.52097  0.18643  0.41093  Biso   1.000  N
  N182     1.0000 0.22903  0.68643  0.83907  Biso   1.000  N
  N183     1.0000 0.91093  0.52097  0.68643  Biso   1.000  N
  N184     1.0000 0.83907  0.02097  0.56357  Biso   1.000  N
  N185     1.0000 0.06357  0.83907  0.52097  Biso   1.000  N
  N186     1.0000 0.68643  0.33907  0.72903  Biso   1.000  N
  N187     1.0000 0.93643  0.77097  0.58907  Biso   1.000  N
  N188     1.0000 0.81357  0.27097  0.66093  Biso   1.000  N
  N189     1.0000 0.77097  0.08907  0.43643  Biso   1.000  N
  N190     1.0000 0.97903  0.58907  0.81357  Biso   1.000  N
  N191     1.0000 0.66093  0.43643  0.97903  Biso   1.000  N
  N192     1.0000 0.08907  0.93643  0.27097  Biso   1.000  N
  C1       1.0000 0.78235  0.90698  0.13235  Biso   1.000  C
  C2       1.0000 0.13235  0.78235  0.90698  Biso   1.000  C
  C3       1.0000 0.90698  0.13235  0.78235  Biso   1.000  C
  C4       1.0000 0.65698  0.03235  0.86765  Biso   1.000  C
  C5       1.0000 0.15698  0.21765  0.88235  Biso   1.000  C
  C6       1.0000 0.09302  0.53235  0.38235  Biso   1.000  C
  C7       1.0000 0.53235  0.38235  0.09302  Biso   1.000  C
  C8       1.0000 0.21765  0.88235  0.15698  Biso   1.000  C
  C9       1.0000 0.03235  0.86765  0.65698  Biso   1.000  C
  C10      1.0000 0.88235  0.15698  0.21765  Biso   1.000  C
  C11      1.0000 0.38235  0.09302  0.53235  Biso   1.000  C
  C12      1.0000 0.86765  0.65698  0.03235  Biso   1.000  C
  C13      1.0000 0.78235  0.40698  0.63235  Biso   1.000  C
  C14      1.0000 0.46765  0.34302  0.13235  Biso   1.000  C
  C15      1.0000 0.13235  0.28235  0.40698  Biso   1.000  C
  C16      1.0000 0.11765  0.46765  0.90698  Biso   1.000  C
  C17      1.0000 0.90698  0.63235  0.28235  Biso   1.000  C
  C18      1.0000 0.34302  0.11765  0.78235  Biso   1.000  C
  C19      1.0000 0.15698  0.71765  0.38235  Biso   1.000  C
  C20      1.0000 0.09302  0.03235  0.88235  Biso   1.000  C
  C21      1.0000 0.21765  0.38235  0.65698  Biso   1.000  C
  C22      1.0000 0.03235  0.36765  0.15698  Biso   1.000  C
  C23      1.0000 0.38235  0.59302  0.03235  Biso   1.000  C
  C24      1.0000 0.86765  0.15698  0.53235  Biso   1.000  C
  C25      1.0000 0.28235  0.90698  0.63235  Biso   1.000  C
  C26      1.0000 0.78235  0.34302  0.11765  Biso   1.000  C
  C27      1.0000 0.63235  0.78235  0.40698  Biso   1.000  C
  C28      1.0000 0.13235  0.46765  0.34302  Biso   1.000  C
  C29      1.0000 0.40698  0.13235  0.28235  Biso   1.000  C
  C30      1.0000 0.90698  0.11765  0.46765  Biso   1.000  C
  C31      1.0000 0.15698  0.03235  0.36765  Biso   1.000  C
  C32      1.0000 0.65698  0.21765  0.38235  Biso   1.000  C
  C33      1.0000 0.03235  0.38235  0.59302  Biso   1.000  C
  C34      1.0000 0.53235  0.86765  0.15698  Biso   1.000  C
  C35      1.0000 0.38235  0.15698  0.71765  Biso   1.000  C
  C36      1.0000 0.88235  0.09302  0.03235  Biso   1.000  C
  C37      1.0000 0.28235  0.40698  0.13235  Biso   1.000  C
  C38      1.0000 0.46765  0.90698  0.11765  Biso   1.000  C
  C39      1.0000 0.63235  0.28235  0.90698  Biso   1.000  C
  C40      1.0000 0.11765  0.78235  0.34302  Biso   1.000  C
  C41      1.0000 0.40698  0.63235  0.78235  Biso   1.000  C
  C42      1.0000 0.34302  0.13235  0.46765  Biso   1.000  C
  C43      1.0000 0.15698  0.53235  0.86765  Biso   1.000  C
  C44      1.0000 0.59302  0.03235  0.38235  Biso   1.000  C
  C45      1.0000 0.03235  0.88235  0.09302  Biso   1.000  C
  C46      1.0000 0.71765  0.38235  0.15698  Biso   1.000  C
  C47      1.0000 0.38235  0.65698  0.21765  Biso   1.000  C
  C48      1.0000 0.36765  0.15698  0.03235  Biso   1.000  C
  C49      1.0000 0.46765  0.84302  0.63235  Biso   1.000  C
  C50      1.0000 0.96765  0.40698  0.11765  Biso   1.000  C
  C51      1.0000 0.28235  0.34302  0.61765  Biso   1.000  C
  C52      1.0000 0.63235  0.46765  0.84302  Biso   1.000  C
  C53      1.0000 0.11765  0.96765  0.40698  Biso   1.000  C
  C54      1.0000 0.61765  0.28235  0.34302  Biso   1.000  C
  C55      1.0000 0.84302  0.63235  0.46765  Biso   1.000  C
  C56      1.0000 0.40698  0.11765  0.96765  Biso   1.000  C
  C57      1.0000 0.34302  0.61765  0.28235  Biso   1.000  C
  C58      1.0000 0.59302  0.71765  0.36765  Biso   1.000  C
  C59      1.0000 0.71765  0.36765  0.59302  Biso   1.000  C
  C60      1.0000 0.36765  0.59302  0.71765  Biso   1.000  C
  C61      1.0000 0.96765  0.90698  0.61765  Biso   1.000  C
  C62      1.0000 0.28235  0.84302  0.11765  Biso   1.000  C
  C63      1.0000 0.63235  0.96765  0.34302  Biso   1.000  C
  C64      1.0000 0.61765  0.78235  0.84302  Biso   1.000  C
  C65      1.0000 0.84302  0.13235  0.96765  Biso   1.000  C
  C66      1.0000 0.40698  0.61765  0.46765  Biso   1.000  C
  C67      1.0000 0.65698  0.53235  0.36765  Biso   1.000  C
  C68      1.0000 0.59302  0.21765  0.86765  Biso   1.000  C
  C69      1.0000 0.53235  0.88235  0.59302  Biso   1.000  C
  C70      1.0000 0.71765  0.86765  0.09302  Biso   1.000  C
  C71      1.0000 0.88235  0.65698  0.71765  Biso   1.000  C
  C72      1.0000 0.36765  0.09302  0.21765  Biso   1.000  C
  C73      1.0000 0.96765  0.84302  0.13235  Biso   1.000  C
  C74      1.0000 0.46765  0.40698  0.61765  Biso   1.000  C
  C75      1.0000 0.61765  0.96765  0.90698  Biso   1.000  C
  C76      1.0000 0.11765  0.28235  0.84302  Biso   1.000  C
  C77      1.0000 0.34302  0.63235  0.96765  Biso   1.000  C
  C78      1.0000 0.84302  0.61765  0.78235  Biso   1.000  C
  C79      1.0000 0.09302  0.71765  0.86765  Biso   1.000  C
  C80      1.0000 0.59302  0.53235  0.88235  Biso   1.000  C
  C81      1.0000 0.71765  0.88235  0.65698  Biso   1.000  C
  C82      1.0000 0.21765  0.36765  0.09302  Biso   1.000  C
  C83      1.0000 0.36765  0.65698  0.53235  Biso   1.000  C
  C84      1.0000 0.86765  0.59302  0.21765  Biso   1.000  C
  C85      1.0000 0.96765  0.34302  0.63235  Biso   1.000  C
  C86      1.0000 0.78235  0.84302  0.61765  Biso   1.000  C
  C87      1.0000 0.13235  0.96765  0.84302  Biso   1.000  C
  C88      1.0000 0.61765  0.46765  0.40698  Biso   1.000  C
  C89      1.0000 0.90698  0.61765  0.96765  Biso   1.000  C
  C90      1.0000 0.84302  0.11765  0.28235  Biso   1.000  C
  C91      1.0000 0.09302  0.21765  0.36765  Biso   1.000  C
  C92      1.0000 0.65698  0.71765  0.88235  Biso   1.000  C
  C93      1.0000 0.21765  0.86765  0.59302  Biso   1.000  C
  C94      1.0000 0.53235  0.36765  0.65698  Biso   1.000  C
  C95      1.0000 0.88235  0.59302  0.53235  Biso   1.000  C
  C96      1.0000 0.86765  0.09302  0.71765  Biso   1.000  C
  C97      1.0000 0.21765  0.09302  0.86765  Biso   1.000  C
  C98      1.0000 0.86765  0.21765  0.09302  Biso   1.000  C
  C99      1.0000 0.09302  0.86765  0.21765  Biso   1.000  C
  C100     1.0000 0.84302  0.46765  0.13235  Biso   1.000  C
  C101     1.0000 0.34302  0.78235  0.61765  Biso   1.000  C
  C102     1.0000 0.90698  0.96765  0.11765  Biso   1.000  C
  C103     1.0000 0.96765  0.11765  0.90698  Biso   1.000  C
  C104     1.0000 0.78235  0.61765  0.34302  Biso   1.000  C
  C105     1.0000 0.46765  0.13235  0.84302  Biso   1.000  C
  C106     1.0000 0.61765  0.34302  0.78235  Biso   1.000  C
  C107     1.0000 0.11765  0.90698  0.96765  Biso   1.000  C
  C108     1.0000 0.13235  0.84302  0.46765  Biso   1.000  C
  C109     1.0000 0.21765  0.59302  0.36765  Biso   1.000  C
  C110     1.0000 0.03235  0.15698  0.86765  Biso   1.000  C
  C111     1.0000 0.86765  0.71765  0.59302  Biso   1.000  C
  C112     1.0000 0.38235  0.03235  0.09302  Biso   1.000  C
  C113     1.0000 0.09302  0.36765  0.71765  Biso   1.000  C
  C114     1.0000 0.15698  0.38235  0.21765  Biso   1.000  C
  C115     1.0000 0.34302  0.28235  0.11765  Biso   1.000  C
  C116     1.0000 0.90698  0.46765  0.61765  Biso   1.000  C
  C117     1.0000 0.78235  0.11765  0.84302  Biso   1.000  C
  C118     1.0000 0.46765  0.63235  0.34302  Biso   1.000  C
  C119     1.0000 0.11765  0.40698  0.46765  Biso   1.000  C
  C120     1.0000 0.13235  0.34302  0.96765  Biso   1.000  C
  C121     1.0000 0.71765  0.09302  0.36765  Biso   1.000  C
  C122     1.0000 0.21765  0.15698  0.38235  Biso   1.000  C
  C123     1.0000 0.36765  0.21765  0.59302  Biso   1.000  C
  C124     1.0000 0.86765  0.03235  0.15698  Biso   1.000  C
  C125     1.0000 0.59302  0.86765  0.71765  Biso   1.000  C
  C126     1.0000 0.09302  0.38235  0.03235  Biso   1.000  C
  C127     1.0000 0.34302  0.46765  0.63235  Biso   1.000  C
  C128     1.0000 0.84302  0.78235  0.11765  Biso   1.000  C
  C129     1.0000 0.46765  0.11765  0.40698  Biso   1.000  C
  C130     1.0000 0.96765  0.13235  0.34302  Biso   1.000  C
  C131     1.0000 0.11765  0.34302  0.28235  Biso   1.000  C
  C132     1.0000 0.61765  0.90698  0.46765  Biso   1.000  C
  C133     1.0000 0.71765  0.59302  0.86765  Biso   1.000  C
  C134     1.0000 0.03235  0.09302  0.38235  Biso   1.000  C
  C135     1.0000 0.36765  0.71765  0.09302  Biso   1.000  C
  C136     1.0000 0.38235  0.21765  0.15698  Biso   1.000  C
  C137     1.0000 0.59302  0.36765  0.21765  Biso   1.000  C
  C138     1.0000 0.15698  0.86765  0.03235  Biso   1.000  C
  C139     1.0000 0.34302  0.96765  0.13235  Biso   1.000  C
  C140     1.0000 0.40698  0.46765  0.11765  Biso   1.000  C
  C141     1.0000 0.46765  0.61765  0.90698  Biso   1.000  C
  C142     1.0000 0.28235  0.11765  0.34302  Biso   1.000  C
  C143     1.0000 0.11765  0.84302  0.78235  Biso   1.000  C
  C144     1.0000 0.63235  0.34302  0.46765  Biso   1.000  C
  C145     1.0000 0.03235  0.65698  0.36765  Biso   1.000  C
  C146     1.0000 0.53235  0.59302  0.38235  Biso   1.000  C
  C147     1.0000 0.71765  0.15698  0.88235  Biso   1.000  C
  C148     1.0000 0.36765  0.03235  0.65698  Biso   1.000  C
  C149     1.0000 0.38235  0.53235  0.59302  Biso   1.000  C
  C150     1.0000 0.88235  0.71765  0.15698  Biso   1.000  C
  C151     1.0000 0.65698  0.36765  0.03235  Biso   1.000  C
  C152     1.0000 0.59302  0.38235  0.53235  Biso   1.000  C
  C153     1.0000 0.15698  0.88235  0.71765  Biso   1.000  C
  C154     1.0000 0.40698  0.28235  0.63235  Biso   1.000  C
  C155     1.0000 0.28235  0.63235  0.40698  Biso   1.000  C
  C156     1.0000 0.63235  0.40698  0.28235  Biso   1.000  C
  C157     1.0000 0.53235  0.09302  0.88235  Biso   1.000  C
  C158     1.0000 0.71765  0.65698  0.38235  Biso   1.000  C
  C159     1.0000 0.36765  0.53235  0.15698  Biso   1.000  C
  C160     1.0000 0.88235  0.21765  0.65698  Biso   1.000  C
  C161     1.0000 0.65698  0.86765  0.53235  Biso   1.000  C
  C162     1.0000 0.59302  0.88235  0.03235  Biso   1.000  C
  C163     1.0000 0.84302  0.96765  0.63235  Biso   1.000  C
  C164     1.0000 0.40698  0.78235  0.13235  Biso   1.000  C
  C165     1.0000 0.96765  0.61765  0.40698  Biso   1.000  C
  C166     1.0000 0.28235  0.13235  0.90698  Biso   1.000  C
  C167     1.0000 0.61765  0.84302  0.28235  Biso   1.000  C
  C168     1.0000 0.63235  0.90698  0.78235  Biso   1.000  C
  C169     1.0000 0.53235  0.65698  0.86765  Biso   1.000  C
  C170     1.0000 0.03235  0.59302  0.88235  Biso   1.000  C
  C171     1.0000 0.88235  0.53235  0.09302  Biso   1.000  C
  C172     1.0000 0.38235  0.71765  0.65698  Biso   1.000  C
  C173     1.0000 0.15698  0.36765  0.53235  Biso   1.000  C
  C174     1.0000 0.65698  0.88235  0.21765  Biso   1.000  C
  C175     1.0000 0.90698  0.28235  0.13235  Biso   1.000  C
  C176     1.0000 0.40698  0.96765  0.61765  Biso   1.000  C
  C177     1.0000 0.28235  0.61765  0.84302  Biso   1.000  C
  C178     1.0000 0.78235  0.63235  0.90698  Biso   1.000  C
  C179     1.0000 0.63235  0.84302  0.96765  Biso   1.000  C
  C180     1.0000 0.13235  0.40698  0.78235  Biso   1.000  C
  C181     1.0000 0.53235  0.15698  0.36765  Biso   1.000  C
  C182     1.0000 0.21765  0.65698  0.88235  Biso   1.000  C
  C183     1.0000 0.86765  0.53235  0.65698  Biso   1.000  C
  C184     1.0000 0.88235  0.03235  0.59302  Biso   1.000  C
  C185     1.0000 0.09302  0.88235  0.53235  Biso   1.000  C
  C186     1.0000 0.65698  0.38235  0.71765  Biso   1.000  C
  C187     1.0000 0.90698  0.78235  0.63235  Biso   1.000  C
  C188     1.0000 0.84302  0.28235  0.61765  Biso   1.000  C
  C189     1.0000 0.78235  0.13235  0.40698  Biso   1.000  C
  C190     1.0000 0.96765  0.63235  0.84302  Biso   1.000  C
  C191     1.0000 0.61765  0.40698  0.96765  Biso   1.000  C
  C192     1.0000 0.13235  0.90698  0.28235  Biso   1.000  C
  H1       1.0000 0.81010  0.91550  0.15750  Biso   1.000  H
  H2       1.0000 0.15750  0.81010  0.91550  Biso   1.000  H
  H3       1.0000 0.91550  0.15750  0.81010  Biso   1.000  H
  H4       1.0000 0.66550  0.06010  0.84250  Biso   1.000  H
  H5       1.0000 0.16550  0.18990  0.90750  Biso   1.000  H
  H6       1.0000 0.08450  0.56010  0.40750  Biso   1.000  H
  H7       1.0000 0.56010  0.40750  0.08450  Biso   1.000  H
  H8       1.0000 0.18990  0.90750  0.16550  Biso   1.000  H
  H9       1.0000 0.06010  0.84250  0.66550  Biso   1.000  H
  H10      1.0000 0.90750  0.16550  0.18990  Biso   1.000  H
  H11      1.0000 0.40750  0.08450  0.56010  Biso   1.000  H
  H12      1.0000 0.84250  0.66550  0.06010  Biso   1.000  H
  H13      1.0000 0.81010  0.41550  0.65750  Biso   1.000  H
  H14      1.0000 0.43990  0.33450  0.15750  Biso   1.000  H
  H15      1.0000 0.15750  0.31010  0.41550  Biso   1.000  H
  H16      1.0000 0.09250  0.43990  0.91550  Biso   1.000  H
  H17      1.0000 0.91550  0.65750  0.31010  Biso   1.000  H
  H18      1.0000 0.33450  0.09250  0.81010  Biso   1.000  H
  H19      1.0000 0.16550  0.68990  0.40750  Biso   1.000  H
  H20      1.0000 0.08450  0.06010  0.90750  Biso   1.000  H
  H21      1.0000 0.18990  0.40750  0.66550  Biso   1.000  H
  H22      1.0000 0.06010  0.34250  0.16550  Biso   1.000  H
  H23      1.0000 0.40750  0.58450  0.06010  Biso   1.000  H
  H24      1.0000 0.84250  0.16550  0.56010  Biso   1.000  H
  H25      1.0000 0.31010  0.91550  0.65750  Biso   1.000  H
  H26      1.0000 0.81010  0.33450  0.09250  Biso   1.000  H
  H27      1.0000 0.65750  0.81010  0.41550  Biso   1.000  H
  H28      1.0000 0.15750  0.43990  0.33450  Biso   1.000  H
  H29      1.0000 0.41550  0.15750  0.31010  Biso   1.000  H
  H30      1.0000 0.91550  0.09250  0.43990  Biso   1.000  H
  H31      1.0000 0.16550  0.06010  0.34250  Biso   1.000  H
  H32      1.0000 0.66550  0.18990  0.40750  Biso   1.000  H
  H33      1.0000 0.06010  0.40750  0.58450  Biso   1.000  H
  H34      1.0000 0.56010  0.84250  0.16550  Biso   1.000  H
  H35      1.0000 0.40750  0.16550  0.68990  Biso   1.000  H
  H36      1.0000 0.90750  0.08450  0.06010  Biso   1.000  H
  H37      1.0000 0.31010  0.41550  0.15750  Biso   1.000  H
  H38      1.0000 0.43990  0.91550  0.09250  Biso   1.000  H
  H39      1.0000 0.65750  0.31010  0.91550  Biso   1.000  H
  H40      1.0000 0.09250  0.81010  0.33450  Biso   1.000  H
  H41      1.0000 0.41550  0.65750  0.81010  Biso   1.000  H
  H42      1.0000 0.33450  0.15750  0.43990  Biso   1.000  H
  H43      1.0000 0.16550  0.56010  0.84250  Biso   1.000  H
  H44      1.0000 0.58450  0.06010  0.40750  Biso   1.000  H
  H45      1.0000 0.06010  0.90750  0.08450  Biso   1.000  H
  H46      1.0000 0.68990  0.40750  0.16550  Biso   1.000  H
  H47      1.0000 0.40750  0.66550  0.18990  Biso   1.000  H
  H48      1.0000 0.34250  0.16550  0.06010  Biso   1.000  H
  H49      1.0000 0.43990  0.83450  0.65750  Biso   1.000  H
  H50      1.0000 0.93990  0.41550  0.09250  Biso   1.000  H
  H51      1.0000 0.31010  0.33450  0.59250  Biso   1.000  H
  H52      1.0000 0.65750  0.43990  0.83450  Biso   1.000  H
  H53      1.0000 0.09250  0.93990  0.41550  Biso   1.000  H
  H54      1.0000 0.59250  0.31010  0.33450  Biso   1.000  H
  H55      1.0000 0.83450  0.65750  0.43990  Biso   1.000  H
  H56      1.0000 0.41550  0.09250  0.93990  Biso   1.000  H
  H57      1.0000 0.33450  0.59250  0.31010  Biso   1.000  H
  H58      1.0000 0.58450  0.68990  0.34250  Biso   1.000  H
  H59      1.0000 0.68990  0.34250  0.58450  Biso   1.000  H
  H60      1.0000 0.34250  0.58450  0.68990  Biso   1.000  H
  H61      1.0000 0.93990  0.91550  0.59250  Biso   1.000  H
  H62      1.0000 0.31010  0.83450  0.09250  Biso   1.000  H
  H63      1.0000 0.65750  0.93990  0.33450  Biso   1.000  H
  H64      1.0000 0.59250  0.81010  0.83450  Biso   1.000  H
  H65      1.0000 0.83450  0.15750  0.93990  Biso   1.000  H
  H66      1.0000 0.41550  0.59250  0.43990  Biso   1.000  H
  H67      1.0000 0.66550  0.56010  0.34250  Biso   1.000  H
  H68      1.0000 0.58450  0.18990  0.84250  Biso   1.000  H
  H69      1.0000 0.56010  0.90750  0.58450  Biso   1.000  H
  H70      1.0000 0.68990  0.84250  0.08450  Biso   1.000  H
  H71      1.0000 0.90750  0.66550  0.68990  Biso   1.000  H
  H72      1.0000 0.34250  0.08450  0.18990  Biso   1.000  H
  H73      1.0000 0.93990  0.83450  0.15750  Biso   1.000  H
  H74      1.0000 0.43990  0.41550  0.59250  Biso   1.000  H
  H75      1.0000 0.59250  0.93990  0.91550  Biso   1.000  H
  H76      1.0000 0.09250  0.31010  0.83450  Biso   1.000  H
  H77      1.0000 0.33450  0.65750  0.93990  Biso   1.000  H
  H78      1.0000 0.83450  0.59250  0.81010  Biso   1.000  H
  H79      1.0000 0.08450  0.68990  0.84250  Biso   1.000  H
  H80      1.0000 0.58450  0.56010  0.90750  Biso   1.000  H
  H81      1.0000 0.68990  0.90750  0.66550  Biso   1.000  H
  H82      1.0000 0.18990  0.34250  0.08450  Biso   1.000  H
  H83      1.0000 0.34250  0.66550  0.56010  Biso   1.000  H
  H84      1.0000 0.84250  0.58450  0.18990  Biso   1.000  H
  H85      1.0000 0.93990  0.33450  0.65750  Biso   1.000  H
  H86      1.0000 0.81010  0.83450  0.59250  Biso   1.000  H
  H87      1.0000 0.15750  0.93990  0.83450  Biso   1.000  H
  H88      1.0000 0.59250  0.43990  0.41550  Biso   1.000  H
  H89      1.0000 0.91550  0.59250  0.93990  Biso   1.000  H
  H90      1.0000 0.83450  0.09250  0.31010  Biso   1.000  H
  H91      1.0000 0.08450  0.18990  0.34250  Biso   1.000  H
  H92      1.0000 0.66550  0.68990  0.90750  Biso   1.000  H
  H93      1.0000 0.18990  0.84250  0.58450  Biso   1.000  H
  H94      1.0000 0.56010  0.34250  0.66550  Biso   1.000  H
  H95      1.0000 0.90750  0.58450  0.56010  Biso   1.000  H
  H96      1.0000 0.84250  0.08450  0.68990  Biso   1.000  H
  H97      1.0000 0.18990  0.08450  0.84250  Biso   1.000  H
  H98      1.0000 0.84250  0.18990  0.08450  Biso   1.000  H
  H99      1.0000 0.08450  0.84250  0.18990  Biso   1.000  H
  H100     1.0000 0.83450  0.43990  0.15750  Biso   1.000  H
  H101     1.0000 0.33450  0.81010  0.59250  Biso   1.000  H
  H102     1.0000 0.91550  0.93990  0.09250  Biso   1.000  H
  H103     1.0000 0.93990  0.09250  0.91550  Biso   1.000  H
  H104     1.0000 0.81010  0.59250  0.33450  Biso   1.000  H
  H105     1.0000 0.43990  0.15750  0.83450  Biso   1.000  H
  H106     1.0000 0.59250  0.33450  0.81010  Biso   1.000  H
  H107     1.0000 0.09250  0.91550  0.93990  Biso   1.000  H
  H108     1.0000 0.15750  0.83450  0.43990  Biso   1.000  H
  H109     1.0000 0.18990  0.58450  0.34250  Biso   1.000  H
  H110     1.0000 0.06010  0.16550  0.84250  Biso   1.000  H
  H111     1.0000 0.84250  0.68990  0.58450  Biso   1.000  H
  H112     1.0000 0.40750  0.06010  0.08450  Biso   1.000  H
  H113     1.0000 0.08450  0.34250  0.68990  Biso   1.000  H
  H114     1.0000 0.16550  0.40750  0.18990  Biso   1.000  H
  H115     1.0000 0.33450  0.31010  0.09250  Biso   1.000  H
  H116     1.0000 0.91550  0.43990  0.59250  Biso   1.000  H
  H117     1.0000 0.81010  0.09250  0.83450  Biso   1.000  H
  H118     1.0000 0.43990  0.65750  0.33450  Biso   1.000  H
  H119     1.0000 0.09250  0.41550  0.43990  Biso   1.000  H
  H120     1.0000 0.15750  0.33450  0.93990  Biso   1.000  H
  H121     1.0000 0.68990  0.08450  0.34250  Biso   1.000  H
  H122     1.0000 0.18990  0.16550  0.40750  Biso   1.000  H
  H123     1.0000 0.34250  0.18990  0.58450  Biso   1.000  H
  H124     1.0000 0.84250  0.06010  0.16550  Biso   1.000  H
  H125     1.0000 0.58450  0.84250  0.68990  Biso   1.000  H
  H126     1.0000 0.08450  0.40750  0.06010  Biso   1.000  H
  H127     1.0000 0.33450  0.43990  0.65750  Biso   1.000  H
  H128     1.0000 0.83450  0.81010  0.09250  Biso   1.000  H
  H129     1.0000 0.43990  0.09250  0.41550  Biso   1.000  H
  H130     1.0000 0.93990  0.15750  0.33450  Biso   1.000  H
  H131     1.0000 0.09250  0.33450  0.31010  Biso   1.000  H
  H132     1.0000 0.59250  0.91550  0.43990  Biso   1.000  H
  H133     1.0000 0.68990  0.58450  0.84250  Biso   1.000  H
  H134     1.0000 0.06010  0.08450  0.40750  Biso   1.000  H
  H135     1.0000 0.34250  0.68990  0.08450  Biso   1.000  H
  H136     1.0000 0.40750  0.18990  0.16550  Biso   1.000  H
  H137     1.0000 0.58450  0.34250  0.18990  Biso   1.000  H
  H138     1.0000 0.16550  0.84250  0.06010  Biso   1.000  H
  H139     1.0000 0.33450  0.93990  0.15750  Biso   1.000  H
  H140     1.0000 0.41550  0.43990  0.09250  Biso   1.000  H
  H141     1.0000 0.43990  0.59250  0.91550  Biso   1.000  H
  H142     1.0000 0.31010  0.09250  0.33450  Biso   1.000  H
  H143     1.0000 0.09250  0.83450  0.81010  Biso   1.000  H
  H144     1.0000 0.65750  0.33450  0.43990  Biso   1.000  H
  H145     1.0000 0.06010  0.66550  0.34250  Biso   1.000  H
  H146     1.0000 0.56010  0.58450  0.40750  Biso   1.000  H
  H147     1.0000 0.68990  0.16550  0.90750  Biso   1.000  H
  H148     1.0000 0.34250  0.06010  0.66550  Biso   1.000  H
  H149     1.0000 0.40750  0.56010  0.58450  Biso   1.000  H
  H150     1.0000 0.90750  0.68990  0.16550  Biso   1.000  H
  H151     1.0000 0.66550  0.34250  0.06010  Biso   1.000  H
  H152     1.0000 0.58450  0.40750  0.56010  Biso   1.000  H
  H153     1.0000 0.16550  0.90750  0.68990  Biso   1.000  H
  H154     1.0000 0.41550  0.31010  0.65750  Biso   1.000  H
  H155     1.0000 0.31010  0.65750  0.41550  Biso   1.000  H
  H156     1.0000 0.65750  0.41550  0.31010  Biso   1.000  H
  H157     1.0000 0.56010  0.08450  0.90750  Biso   1.000  H
  H158     1.0000 0.68990  0.66550  0.40750  Biso   1.000  H
  H159     1.0000 0.34250  0.56010  0.16550  Biso   1.000  H
  H160     1.0000 0.90750  0.18990  0.66550  Biso   1.000  H
  H161     1.0000 0.66550  0.84250  0.56010  Biso   1.000  H
  H162     1.0000 0.58450  0.90750  0.06010  Biso   1.000  H
  H163     1.0000 0.83450  0.93990  0.65750  Biso   1.000  H
  H164     1.0000 0.41550  0.81010  0.15750  Biso   1.000  H
  H165     1.0000 0.93990  0.59250  0.41550  Biso   1.000  H
  H166     1.0000 0.31010  0.15750  0.91550  Biso   1.000  H
  H167     1.0000 0.59250  0.83450  0.31010  Biso   1.000  H
  H168     1.0000 0.65750  0.91550  0.81010  Biso   1.000  H
  H169     1.0000 0.56010  0.66550  0.84250  Biso   1.000  H
  H170     1.0000 0.06010  0.58450  0.90750  Biso   1.000  H
  H171     1.0000 0.90750  0.56010  0.08450  Biso   1.000  H
  H172     1.0000 0.40750  0.68990  0.66550  Biso   1.000  H
  H173     1.0000 0.16550  0.34250  0.56010  Biso   1.000  H
  H174     1.0000 0.66550  0.90750  0.18990  Biso   1.000  H
  H175     1.0000 0.91550  0.31010  0.15750  Biso   1.000  H
  H176     1.0000 0.41550  0.93990  0.59250  Biso   1.000  H
  H177     1.0000 0.31010  0.59250  0.83450  Biso   1.000  H
  H178     1.0000 0.81010  0.65750  0.91550  Biso   1.000  H
  H179     1.0000 0.65750  0.83450  0.93990  Biso   1.000  H
  H180     1.0000 0.15750  0.41550  0.81010  Biso   1.000  H
  H181     1.0000 0.56010  0.16550  0.34250  Biso   1.000  H
  H182     1.0000 0.18990  0.66550  0.90750  Biso   1.000  H
  H183     1.0000 0.84250  0.56010  0.66550  Biso   1.000  H
  H184     1.0000 0.90750  0.06010  0.58450  Biso   1.000  H
  H185     1.0000 0.08450  0.90750  0.56010  Biso   1.000  H
  H186     1.0000 0.66550  0.40750  0.68990  Biso   1.000  H
  H187     1.0000 0.91550  0.81010  0.65750  Biso   1.000  H
  H188     1.0000 0.83450  0.31010  0.59250  Biso   1.000  H
  H189     1.0000 0.81010  0.15750  0.41550  Biso   1.000  H
  H190     1.0000 0.93990  0.65750  0.83450  Biso   1.000  H
  H191     1.0000 0.59250  0.41550  0.93990  Biso   1.000  H
  H192     1.0000 0.15750  0.91550  0.31010  Biso   1.000  H
  N193     1.0000 0.75000  0.86372  0.13628  Biso   1.000  N
  N194     1.0000 0.13628  0.75000  0.86372  Biso   1.000  N
  N195     1.0000 0.86372  0.13628  0.75000  Biso   1.000  N
  N196     1.0000 0.61372  0.00000  0.86372  Biso   1.000  N
  N197     1.0000 0.11372  0.25000  0.88628  Biso   1.000  N
  N198     1.0000 0.13628  0.50000  0.38628  Biso   1.000  N
  N199     1.0000 0.50000  0.38628  0.13628  Biso   1.000  N
  N200     1.0000 0.25000  0.88628  0.11372  Biso   1.000  N
  N201     1.0000 0.00000  0.86372  0.61372  Biso   1.000  N
  N202     1.0000 0.88628  0.11372  0.25000  Biso   1.000  N
  N203     1.0000 0.38628  0.13628  0.50000  Biso   1.000  N
  N204     1.0000 0.86372  0.61372  0.00000  Biso   1.000  N
  N205     1.0000 0.75000  0.36372  0.63628  Biso   1.000  N
  N206     1.0000 0.13628  0.25000  0.36372  Biso   1.000  N
  N207     1.0000 0.11372  0.50000  0.86372  Biso   1.000  N
  N208     1.0000 0.86372  0.63628  0.25000  Biso   1.000  N
  N209     1.0000 0.38628  0.11372  0.75000  Biso   1.000  N
  N210     1.0000 0.11372  0.75000  0.38628  Biso   1.000  N
  N211     1.0000 0.13628  0.00000  0.88628  Biso   1.000  N
  N212     1.0000 0.25000  0.38628  0.61372  Biso   1.000  N
  N213     1.0000 0.00000  0.36372  0.11372  Biso   1.000  N
  N214     1.0000 0.38628  0.63628  0.00000  Biso   1.000  N
  N215     1.0000 0.86372  0.11372  0.50000  Biso   1.000  N
  N216     1.0000 0.25000  0.86372  0.63628  Biso   1.000  N
  N217     1.0000 0.75000  0.38628  0.11372  Biso   1.000  N
  N218     1.0000 0.63628  0.75000  0.36372  Biso   1.000  N
  N219     1.0000 0.36372  0.13628  0.25000  Biso   1.000  N
  N220     1.0000 0.11372  0.00000  0.36372  Biso   1.000  N
  N221     1.0000 0.61372  0.25000  0.38628  Biso   1.000  N
  N222     1.0000 0.00000  0.38628  0.63628  Biso   1.000  N
  N223     1.0000 0.50000  0.86372  0.11372  Biso   1.000  N
  N224     1.0000 0.88628  0.13628  0.00000  Biso   1.000  N
  N225     1.0000 0.25000  0.36372  0.13628  Biso   1.000  N
  N226     1.0000 0.63628  0.25000  0.86372  Biso   1.000  N
  N227     1.0000 0.36372  0.63628  0.75000  Biso   1.000  N
  N228     1.0000 0.63628  0.00000  0.38628  Biso   1.000  N
  N229     1.0000 0.00000  0.88628  0.13628  Biso   1.000  N
  N230     1.0000 0.38628  0.61372  0.25000  Biso   1.000  N
  N231     1.0000 0.36372  0.11372  0.00000  Biso   1.000  N
  N232     1.0000 0.50000  0.88628  0.63628  Biso   1.000  N
  N233     1.0000 0.63628  0.50000  0.88628  Biso   1.000  N
  N234     1.0000 0.88628  0.63628  0.50000  Biso   1.000  N
  N235     1.0000 0.61372  0.75000  0.88628  Biso   1.000  N
  N236     1.0000 0.36372  0.61372  0.50000  Biso   1.000  N
  N237     1.0000 0.61372  0.50000  0.36372  Biso   1.000  N
  N238     1.0000 0.88628  0.61372  0.75000  Biso   1.000  N
  N239     1.0000 0.50000  0.36372  0.61372  Biso   1.000  N
  N240     1.0000 0.75000  0.88628  0.61372  Biso   1.000  N
  N241     1.0000 0.25000  0.13628  0.86372  Biso   1.000  N
  N242     1.0000 0.86372  0.25000  0.13628  Biso   1.000  N
  N243     1.0000 0.13628  0.86372  0.25000  Biso   1.000  N
  N244     1.0000 0.88628  0.50000  0.13628  Biso   1.000  N
  N245     1.0000 0.38628  0.75000  0.61372  Biso   1.000  N
  N246     1.0000 0.86372  0.00000  0.11372  Biso   1.000  N
  N247     1.0000 0.00000  0.11372  0.86372  Biso   1.000  N
  N248     1.0000 0.75000  0.61372  0.38628  Biso   1.000  N
  N249     1.0000 0.50000  0.13628  0.88628  Biso   1.000  N
  N250     1.0000 0.61372  0.38628  0.75000  Biso   1.000  N
  N251     1.0000 0.11372  0.86372  0.00000  Biso   1.000  N
  N252     1.0000 0.13628  0.88628  0.50000  Biso   1.000  N
  N253     1.0000 0.25000  0.63628  0.36372  Biso   1.000  N
  N254     1.0000 0.86372  0.75000  0.63628  Biso   1.000  N
  N255     1.0000 0.38628  0.00000  0.13628  Biso   1.000  N
  N256     1.0000 0.13628  0.36372  0.75000  Biso   1.000  N
  N257     1.0000 0.11372  0.38628  0.25000  Biso   1.000  N
  N258     1.0000 0.38628  0.25000  0.11372  Biso   1.000  N
  N259     1.0000 0.86372  0.50000  0.61372  Biso   1.000  N
  N260     1.0000 0.75000  0.11372  0.88628  Biso   1.000  N
  N261     1.0000 0.50000  0.63628  0.38628  Biso   1.000  N
  N262     1.0000 0.11372  0.36372  0.50000  Biso   1.000  N
  N263     1.0000 0.13628  0.38628  0.00000  Biso   1.000  N
  N264     1.0000 0.75000  0.13628  0.36372  Biso   1.000  N
  N265     1.0000 0.25000  0.11372  0.38628  Biso   1.000  N
  N266     1.0000 0.36372  0.25000  0.63628  Biso   1.000  N
  N267     1.0000 0.63628  0.86372  0.75000  Biso   1.000  N
  N268     1.0000 0.38628  0.50000  0.63628  Biso   1.000  N
  N269     1.0000 0.88628  0.75000  0.11372  Biso   1.000  N
  N270     1.0000 0.50000  0.11372  0.36372  Biso   1.000  N
  N271     1.0000 0.00000  0.13628  0.38628  Biso   1.000  N
  N272     1.0000 0.61372  0.86372  0.50000  Biso   1.000  N
  N273     1.0000 0.75000  0.63628  0.86372  Biso   1.000  N
  N274     1.0000 0.36372  0.75000  0.13628  Biso   1.000  N
  N275     1.0000 0.63628  0.36372  0.25000  Biso   1.000  N
  N276     1.0000 0.36372  0.50000  0.11372  Biso   1.000  N
  N277     1.0000 0.50000  0.61372  0.86372  Biso   1.000  N
  N278     1.0000 0.11372  0.88628  0.75000  Biso   1.000  N
  N279     1.0000 0.63628  0.38628  0.50000  Biso   1.000  N
  N280     1.0000 0.00000  0.61372  0.36372  Biso   1.000  N
  N281     1.0000 0.36372  0.00000  0.61372  Biso   1.000  N
  N282     1.0000 0.61372  0.36372  0.00000  Biso   1.000  N
  N283     1.0000 0.88628  0.25000  0.61372  Biso   1.000  N
  N284     1.0000 0.63628  0.88628  0.00000  Biso   1.000  N
  N285     1.0000 0.88628  0.00000  0.63628  Biso   1.000  N
  N286     1.0000 0.61372  0.88628  0.25000  Biso   1.000  N
  N287     1.0000 0.00000  0.63628  0.88628  Biso   1.000  N
  N288     1.0000 0.25000  0.61372  0.88628  Biso   1.000  N
  O1       1.0000 0.73882  0.01118  0.01118  Biso   1.000  O
  O2       1.0000 0.01118  0.73882  0.01118  Biso   1.000  O
  O3       1.0000 0.01118  0.01118  0.73882  Biso   1.000  O
  O4       1.0000 0.76118  0.98882  0.98882  Biso   1.000  O
  O5       1.0000 0.26118  0.26118  0.76118  Biso   1.000  O
  O6       1.0000 0.98882  0.48882  0.26118  Biso   1.000  O
  O7       1.0000 0.48882  0.26118  0.98882  Biso   1.000  O
  O8       1.0000 0.26118  0.76118  0.26118  Biso   1.000  O
  O9       1.0000 0.98882  0.98882  0.76118  Biso   1.000  O
  O10      1.0000 0.76118  0.26118  0.26118  Biso   1.000  O
  O11      1.0000 0.26118  0.98882  0.48882  Biso   1.000  O
  O12      1.0000 0.98882  0.76118  0.98882  Biso   1.000  O
  O13      1.0000 0.73882  0.51118  0.51118  Biso   1.000  O
  O14      1.0000 0.51118  0.23882  0.01118  Biso   1.000  O
  O15      1.0000 0.01118  0.23882  0.51118  Biso   1.000  O
  O16      1.0000 0.23882  0.51118  0.01118  Biso   1.000  O
  O17      1.0000 0.01118  0.51118  0.23882  Biso   1.000  O
  O18      1.0000 0.23882  0.23882  0.73882  Biso   1.000  O
  O19      1.0000 0.26118  0.48882  0.98882  Biso   1.000  O
  O20      1.0000 0.98882  0.26118  0.48882  Biso   1.000  O
  O21      1.0000 0.23882  0.01118  0.51118  Biso   1.000  O
  O22      1.0000 0.73882  0.23882  0.23882  Biso   1.000  O
  O23      1.0000 0.51118  0.73882  0.51118  Biso   1.000  O
  O24      1.0000 0.51118  0.01118  0.23882  Biso   1.000  O
  O25      1.0000 0.48882  0.98882  0.26118  Biso   1.000  O
  O26      1.0000 0.23882  0.73882  0.23882  Biso   1.000  O
  O27      1.0000 0.51118  0.51118  0.73882  Biso   1.000  O
  O28      1.0000 0.48882  0.76118  0.48882  Biso   1.000  O
  O29      1.0000 0.76118  0.48882  0.48882  Biso   1.000  O
  O30      1.0000 0.48882  0.48882  0.76118  Biso   1.000  O
  O31      1.0000 0.73882  0.73882  0.73882  Biso   1.000  O
  O32      1.0000 0.76118  0.76118  0.76118  Biso   1.000  O
  O33      1.0000 0.26118  0.98882  0.98882  Biso   1.000  O
  O34      1.0000 0.98882  0.26118  0.98882  Biso   1.000  O
  O35      1.0000 0.98882  0.98882  0.26118  Biso   1.000  O
  O36      1.0000 0.73882  0.51118  0.01118  Biso   1.000  O
  O37      1.0000 0.23882  0.73882  0.73882  Biso   1.000  O
  O38      1.0000 0.01118  0.01118  0.23882  Biso   1.000  O
  O39      1.0000 0.01118  0.23882  0.01118  Biso   1.000  O
  O40      1.0000 0.73882  0.73882  0.23882  Biso   1.000  O
  O41      1.0000 0.51118  0.01118  0.73882  Biso   1.000  O
  O42      1.0000 0.73882  0.23882  0.73882  Biso   1.000  O
  O43      1.0000 0.23882  0.01118  0.01118  Biso   1.000  O
  O44      1.0000 0.01118  0.73882  0.51118  Biso   1.000  O
  O45      1.0000 0.26118  0.48882  0.48882  Biso   1.000  O
  O46      1.0000 0.98882  0.76118  0.48882  Biso   1.000  O
  O47      1.0000 0.98882  0.48882  0.76118  Biso   1.000  O
  O48      1.0000 0.26118  0.26118  0.26118  Biso   1.000  O
  O49      1.0000 0.23882  0.23882  0.23882  Biso   1.000  O
  O50      1.0000 0.01118  0.51118  0.73882  Biso   1.000  O
  O51      1.0000 0.51118  0.51118  0.23882  Biso   1.000  O
  O52      1.0000 0.23882  0.51118  0.51118  Biso   1.000  O
  O53      1.0000 0.76118  0.98882  0.48882  Biso   1.000  O
  O54      1.0000 0.48882  0.26118  0.48882  Biso   1.000  O
  O55      1.0000 0.48882  0.98882  0.76118  Biso   1.000  O
  O56      1.0000 0.51118  0.23882  0.51118  Biso   1.000  O
  O57      1.0000 0.73882  0.01118  0.51118  Biso   1.000  O
  O58      1.0000 0.76118  0.48882  0.98882  Biso   1.000  O
  O59      1.0000 0.48882  0.76118  0.98882  Biso   1.000  O
  O60      1.0000 0.48882  0.48882  0.26118  Biso   1.000  O
  O61      1.0000 0.51118  0.73882  0.01118  Biso   1.000  O
  O62      1.0000 0.76118  0.26118  0.76118  Biso   1.000  O
  O63      1.0000 0.76118  0.76118  0.26118  Biso   1.000  O
  O64      1.0000 0.26118  0.76118  0.76118  Biso   1.000  O
  O65      1.0000 0.84840  0.94990  0.00410  Biso   1.000  O
  O66      1.0000 0.00410  0.84840  0.94990  Biso   1.000  O
  O67      1.0000 0.94990  0.00410  0.84840  Biso   1.000  O
  O68      1.0000 0.69990  0.09840  0.99590  Biso   1.000  O
  O69      1.0000 0.19990  0.15160  0.75410  Biso   1.000  O
  O70      1.0000 0.05010  0.59840  0.25410  Biso   1.000  O
  O71      1.0000 0.59840  0.25410  0.05010  Biso   1.000  O
  O72      1.0000 0.15160  0.75410  0.19990  Biso   1.000  O
  O73      1.0000 0.09840  0.99590  0.69990  Biso   1.000  O
  O74      1.0000 0.75410  0.19990  0.15160  Biso   1.000  O
  O75      1.0000 0.25410  0.05010  0.59840  Biso   1.000  O
  O76      1.0000 0.99590  0.69990  0.09840  Biso   1.000  O
  O77      1.0000 0.84840  0.44990  0.50410  Biso   1.000  O
  O78      1.0000 0.40160  0.30010  0.00410  Biso   1.000  O
  O79      1.0000 0.00410  0.34840  0.44990  Biso   1.000  O
  O80      1.0000 0.24590  0.40160  0.94990  Biso   1.000  O
  O81      1.0000 0.94990  0.50410  0.34840  Biso   1.000  O
  O82      1.0000 0.30010  0.24590  0.84840  Biso   1.000  O
  O83      1.0000 0.19990  0.65160  0.25410  Biso   1.000  O
  O84      1.0000 0.05010  0.09840  0.75410  Biso   1.000  O
  O85      1.0000 0.15160  0.25410  0.69990  Biso   1.000  O
  O86      1.0000 0.09840  0.49590  0.19990  Biso   1.000  O
  O87      1.0000 0.25410  0.55010  0.09840  Biso   1.000  O
  O88      1.0000 0.99590  0.19990  0.59840  Biso   1.000  O
  O89      1.0000 0.34840  0.94990  0.50410  Biso   1.000  O
  O90      1.0000 0.84840  0.30010  0.24590  Biso   1.000  O
  O91      1.0000 0.50410  0.84840  0.44990  Biso   1.000  O
  O92      1.0000 0.00410  0.40160  0.30010  Biso   1.000  O
  O93      1.0000 0.44990  0.00410  0.34840  Biso   1.000  O
  O94      1.0000 0.94990  0.24590  0.40160  Biso   1.000  O
  O95      1.0000 0.19990  0.09840  0.49590  Biso   1.000  O
  O96      1.0000 0.69990  0.15160  0.25410  Biso   1.000  O
  O97      1.0000 0.09840  0.25410  0.55010  Biso   1.000  O
  O98      1.0000 0.59840  0.99590  0.19990  Biso   1.000  O
  O99      1.0000 0.25410  0.19990  0.65160  Biso   1.000  O
  O100     1.0000 0.75410  0.05010  0.09840  Biso   1.000  O
  O101     1.0000 0.34840  0.44990  0.00410  Biso   1.000  O
  O102     1.0000 0.40160  0.94990  0.24590  Biso   1.000  O
  O103     1.0000 0.50410  0.34840  0.94990  Biso   1.000  O
  O104     1.0000 0.24590  0.84840  0.30010  Biso   1.000  O
  O105     1.0000 0.44990  0.50410  0.84840  Biso   1.000  O
  O106     1.0000 0.30010  0.00410  0.40160  Biso   1.000  O
  O107     1.0000 0.19990  0.59840  0.99590  Biso   1.000  O
  O108     1.0000 0.55010  0.09840  0.25410  Biso   1.000  O
  O109     1.0000 0.09840  0.75410  0.05010  Biso   1.000  O
  O110     1.0000 0.65160  0.25410  0.19990  Biso   1.000  O
  O111     1.0000 0.25410  0.69990  0.15160  Biso   1.000  O
  O112     1.0000 0.49590  0.19990  0.09840  Biso   1.000  O
  O113     1.0000 0.40160  0.80010  0.50410  Biso   1.000  O
  O114     1.0000 0.90160  0.44990  0.24590  Biso   1.000  O
  O115     1.0000 0.34840  0.30010  0.74590  Biso   1.000  O
  O116     1.0000 0.50410  0.40160  0.80010  Biso   1.000  O
  O117     1.0000 0.24590  0.90160  0.44990  Biso   1.000  O
  O118     1.0000 0.74590  0.34840  0.30010  Biso   1.000  O
  O119     1.0000 0.80010  0.50410  0.40160  Biso   1.000  O
  O120     1.0000 0.44990  0.24590  0.90160  Biso   1.000  O
  O121     1.0000 0.30010  0.74590  0.34840  Biso   1.000  O
  O122     1.0000 0.55010  0.65160  0.49590  Biso   1.000  O
  O123     1.0000 0.65160  0.49590  0.55010  Biso   1.000  O
  O124     1.0000 0.49590  0.55010  0.65160  Biso   1.000  O
  O125     1.0000 0.90160  0.94990  0.74590  Biso   1.000  O
  O126     1.0000 0.34840  0.80010  0.24590  Biso   1.000  O
  O127     1.0000 0.50410  0.90160  0.30010  Biso   1.000  O
  O128     1.0000 0.74590  0.84840  0.80010  Biso   1.000  O
  O129     1.0000 0.80010  0.00410  0.90160  Biso   1.000  O
  O130     1.0000 0.44990  0.74590  0.40160  Biso   1.000  O
  O131     1.0000 0.69990  0.59840  0.49590  Biso   1.000  O
  O132     1.0000 0.55010  0.15160  0.99590  Biso   1.000  O
  O133     1.0000 0.59840  0.75410  0.55010  Biso   1.000  O
  O134     1.0000 0.65160  0.99590  0.05010  Biso   1.000  O
  O135     1.0000 0.75410  0.69990  0.65160  Biso   1.000  O
  O136     1.0000 0.49590  0.05010  0.15160  Biso   1.000  O
  O137     1.0000 0.90160  0.80010  0.00410  Biso   1.000  O
  O138     1.0000 0.40160  0.44990  0.74590  Biso   1.000  O
  O139     1.0000 0.74590  0.90160  0.94990  Biso   1.000  O
  O140     1.0000 0.24590  0.34840  0.80010  Biso   1.000  O
  O141     1.0000 0.30010  0.50410  0.90160  Biso   1.000  O
  O142     1.0000 0.80010  0.74590  0.84840  Biso   1.000  O
  O143     1.0000 0.05010  0.65160  0.99590  Biso   1.000  O
  O144     1.0000 0.55010  0.59840  0.75410  Biso   1.000  O
  O145     1.0000 0.65160  0.75410  0.69990  Biso   1.000  O
  O146     1.0000 0.15160  0.49590  0.05010  Biso   1.000  O
  O147     1.0000 0.49590  0.69990  0.59840  Biso   1.000  O
  O148     1.0000 0.99590  0.55010  0.15160  Biso   1.000  O
  O149     1.0000 0.90160  0.30010  0.50410  Biso   1.000  O
  O150     1.0000 0.84840  0.80010  0.74590  Biso   1.000  O
  O151     1.0000 0.00410  0.90160  0.80010  Biso   1.000  O
  O152     1.0000 0.74590  0.40160  0.44990  Biso   1.000  O
  O153     1.0000 0.94990  0.74590  0.90160  Biso   1.000  O
  O154     1.0000 0.80010  0.24590  0.34840  Biso   1.000  O
  O155     1.0000 0.05010  0.15160  0.49590  Biso   1.000  O
  O156     1.0000 0.69990  0.65160  0.75410  Biso   1.000  O
  O157     1.0000 0.15160  0.99590  0.55010  Biso   1.000  O
  O158     1.0000 0.59840  0.49590  0.69990  Biso   1.000  O
  O159     1.0000 0.75410  0.55010  0.59840  Biso   1.000  O
  O160     1.0000 0.99590  0.05010  0.65160  Biso   1.000  O
  O161     1.0000 0.15160  0.05010  0.99590  Biso   1.000  O
  O162     1.0000 0.99590  0.15160  0.05010  Biso   1.000  O
  O163     1.0000 0.05010  0.99590  0.15160  Biso   1.000  O
  O164     1.0000 0.80010  0.40160  0.00410  Biso   1.000  O
  O165     1.0000 0.30010  0.84840  0.74590  Biso   1.000  O
  O166     1.0000 0.94990  0.90160  0.24590  Biso   1.000  O
  O167     1.0000 0.90160  0.24590  0.94990  Biso   1.000  O
  O168     1.0000 0.84840  0.74590  0.30010  Biso   1.000  O
  O169     1.0000 0.40160  0.00410  0.80010  Biso   1.000  O
  O170     1.0000 0.74590  0.30010  0.84840  Biso   1.000  O
  O171     1.0000 0.24590  0.94990  0.90160  Biso   1.000  O
  O172     1.0000 0.00410  0.80010  0.40160  Biso   1.000  O
  O173     1.0000 0.15160  0.55010  0.49590  Biso   1.000  O
  O174     1.0000 0.09840  0.19990  0.99590  Biso   1.000  O
  O175     1.0000 0.99590  0.65160  0.55010  Biso   1.000  O
  O176     1.0000 0.25410  0.09840  0.05010  Biso   1.000  O
  O177     1.0000 0.05010  0.49590  0.65160  Biso   1.000  O
  O178     1.0000 0.19990  0.25410  0.15160  Biso   1.000  O
  O179     1.0000 0.30010  0.34840  0.24590  Biso   1.000  O
  O180     1.0000 0.94990  0.40160  0.74590  Biso   1.000  O
  O181     1.0000 0.84840  0.24590  0.80010  Biso   1.000  O
  O182     1.0000 0.40160  0.50410  0.30010  Biso   1.000  O
  O183     1.0000 0.24590  0.44990  0.40160  Biso   1.000  O
  O184     1.0000 0.00410  0.30010  0.90160  Biso   1.000  O
  O185     1.0000 0.65160  0.05010  0.49590  Biso   1.000  O
  O186     1.0000 0.15160  0.19990  0.25410  Biso   1.000  O
  O187     1.0000 0.49590  0.15160  0.55010  Biso   1.000  O
  O188     1.0000 0.99590  0.09840  0.19990  Biso   1.000  O
  O189     1.0000 0.55010  0.99590  0.65160  Biso   1.000  O
  O190     1.0000 0.05010  0.25410  0.09840  Biso   1.000  O
  O191     1.0000 0.30010  0.40160  0.50410  Biso   1.000  O
  O192     1.0000 0.80010  0.84840  0.24590  Biso   1.000  O
  O193     1.0000 0.40160  0.24590  0.44990  Biso   1.000  O
  O194     1.0000 0.90160  0.00410  0.30010  Biso   1.000  O
  O195     1.0000 0.24590  0.30010  0.34840  Biso   1.000  O
  O196     1.0000 0.74590  0.94990  0.40160  Biso   1.000  O
  O197     1.0000 0.65160  0.55010  0.99590  Biso   1.000  O
  O198     1.0000 0.09840  0.05010  0.25410  Biso   1.000  O
  O199     1.0000 0.49590  0.65160  0.05010  Biso   1.000  O
  O200     1.0000 0.25410  0.15160  0.19990  Biso   1.000  O
  O201     1.0000 0.55010  0.49590  0.15160  Biso   1.000  O
  O202     1.0000 0.19990  0.99590  0.09840  Biso   1.000  O
  O203     1.0000 0.30010  0.90160  0.00410  Biso   1.000  O
  O204     1.0000 0.44990  0.40160  0.24590  Biso   1.000  O
  O205     1.0000 0.40160  0.74590  0.94990  Biso   1.000  O
  O206     1.0000 0.34840  0.24590  0.30010  Biso   1.000  O
  O207     1.0000 0.24590  0.80010  0.84840  Biso   1.000  O
  O208     1.0000 0.50410  0.30010  0.40160  Biso   1.000  O
  O209     1.0000 0.09840  0.69990  0.49590  Biso   1.000  O
  O210     1.0000 0.59840  0.55010  0.25410  Biso   1.000  O
  O211     1.0000 0.65160  0.19990  0.75410  Biso   1.000  O
  O212     1.0000 0.49590  0.09840  0.69990  Biso   1.000  O
  O213     1.0000 0.25410  0.59840  0.55010  Biso   1.000  O
  O214     1.0000 0.75410  0.65160  0.19990  Biso   1.000  O
  O215     1.0000 0.69990  0.49590  0.09840  Biso   1.000  O
  O216     1.0000 0.55010  0.25410  0.59840  Biso   1.000  O
  O217     1.0000 0.19990  0.75410  0.65160  Biso   1.000  O
  O218     1.0000 0.44990  0.34840  0.50410  Biso   1.000  O
  O219     1.0000 0.34840  0.50410  0.44990  Biso   1.000  O
  O220     1.0000 0.50410  0.44990  0.34840  Biso   1.000  O
  O221     1.0000 0.59840  0.05010  0.75410  Biso   1.000  O
  O222     1.0000 0.65160  0.69990  0.25410  Biso   1.000  O
  O223     1.0000 0.49590  0.59840  0.19990  Biso   1.000  O
  O224     1.0000 0.75410  0.15160  0.69990  Biso   1.000  O
  O225     1.0000 0.69990  0.99590  0.59840  Biso   1.000  O
  O226     1.0000 0.55010  0.75410  0.09840  Biso   1.000  O
  O227     1.0000 0.80010  0.90160  0.50410  Biso   1.000  O
  O228     1.0000 0.44990  0.84840  0.00410  Biso   1.000  O
  O229     1.0000 0.90160  0.74590  0.44990  Biso   1.000  O
  O230     1.0000 0.34840  0.00410  0.94990  Biso   1.000  O
  O231     1.0000 0.74590  0.80010  0.34840  Biso   1.000  O
  O232     1.0000 0.50410  0.94990  0.84840  Biso   1.000  O
  O233     1.0000 0.59840  0.69990  0.99590  Biso   1.000  O
  O234     1.0000 0.09840  0.55010  0.75410  Biso   1.000  O
  O235     1.0000 0.75410  0.59840  0.05010  Biso   1.000  O
  O236     1.0000 0.25410  0.65160  0.69990  Biso   1.000  O
  O237     1.0000 0.19990  0.49590  0.59840  Biso   1.000  O
  O238     1.0000 0.69990  0.75410  0.15160  Biso   1.000  O
  O239     1.0000 0.94990  0.34840  0.00410  Biso   1.000  O
  O240     1.0000 0.44990  0.90160  0.74590  Biso   1.000  O
  O241     1.0000 0.34840  0.74590  0.80010  Biso   1.000  O
  O242     1.0000 0.84840  0.50410  0.94990  Biso   1.000  O
  O243     1.0000 0.50410  0.80010  0.90160  Biso   1.000  O
  O244     1.0000 0.00410  0.44990  0.84840  Biso   1.000  O
  O245     1.0000 0.59840  0.19990  0.49590  Biso   1.000  O
  O246     1.0000 0.15160  0.69990  0.75410  Biso   1.000  O
  O247     1.0000 0.99590  0.59840  0.69990  Biso   1.000  O
  O248     1.0000 0.75410  0.09840  0.55010  Biso   1.000  O
  O249     1.0000 0.05010  0.75410  0.59840  Biso   1.000  O
  O250     1.0000 0.69990  0.25410  0.65160  Biso   1.000  O
  O251     1.0000 0.94990  0.84840  0.50410  Biso   1.000  O
  O252     1.0000 0.80010  0.34840  0.74590  Biso   1.000  O
  O253     1.0000 0.84840  0.00410  0.44990  Biso   1.000  O
  O254     1.0000 0.90160  0.50410  0.80010  Biso   1.000  O
  O255     1.0000 0.74590  0.44990  0.90160  Biso   1.000  O
  O256     1.0000 0.00410  0.94990  0.34840  Biso   1.000  O
