data_image0
_cell_length_a       14.58
_cell_length_b       25.614
_cell_length_c       22.27
_cell_angle_alpha    90
_cell_angle_beta     99.109
_cell_angle_gamma    90

_symmetry_space_group_name_H-M    "P 1"
_symmetry_int_tables_number       1

loop_
  _symmetry_equiv_pos_as_xyz
  'x, y, z'

loop_
  _atom_site_label
  _atom_site_occupancy
  _atom_site_fract_x
  _atom_site_fract_y
  _atom_site_fract_z
  _atom_site_thermal_displace_type
  _atom_site_B_iso_or_equiv
  _atom_site_type_symbol
  Pt1      1.0000 0.04619  0.22433  0.20039  Biso   1.000  Pt
  Pt2      1.0000 0.54619  0.72433  0.20039  Biso   1.000  Pt
  Pt3      1.0000 0.95381  0.22433  0.29961  Biso   1.000  Pt
  Pt4      1.0000 0.45381  0.72433  0.29961  Biso   1.000  Pt
  Pt5      1.0000 0.95381  0.77567  0.79961  Biso   1.000  Pt
  Pt6      1.0000 0.45381  0.27567  0.79961  Biso   1.000  Pt
  Pt7      1.0000 0.04619  0.77567  0.70039  Biso   1.000  Pt
  Pt8      1.0000 0.54619  0.27567  0.70039  Biso   1.000  Pt
  Pt9      1.0000 0.15083  0.23149  0.10670  Biso   1.000  Pt
  Pt10     1.0000 0.65083  0.73149  0.10670  Biso   1.000  Pt
  Pt11     1.0000 0.84917  0.23149  0.39330  Biso   1.000  Pt
  Pt12     1.0000 0.34917  0.73149  0.39330  Biso   1.000  Pt
  Pt13     1.0000 0.84917  0.76851  0.89330  Biso   1.000  Pt
  Pt14     1.0000 0.34917  0.26851  0.89330  Biso   1.000  Pt
  Pt15     1.0000 0.15083  0.76851  0.60670  Biso   1.000  Pt
  Pt16     1.0000 0.65083  0.26851  0.60670  Biso   1.000  Pt
  Pt17     1.0000 0.25000  0.25000  0.00000  Biso   1.000  Pt
  Pt18     1.0000 0.75000  0.75000  0.00000  Biso   1.000  Pt
  Pt19     1.0000 0.75000  0.25000  0.50000  Biso   1.000  Pt
  Pt20     1.0000 0.25000  0.75000  0.50000  Biso   1.000  Pt
  Cu1      1.0000 0.54104  0.08785  0.12027  Biso   1.000  Cu
  Cu2      1.0000 0.04104  0.58785  0.12027  Biso   1.000  Cu
  Cu3      1.0000 0.45896  0.08785  0.37973  Biso   1.000  Cu
  Cu4      1.0000 0.95896  0.58785  0.37973  Biso   1.000  Cu
  Cu5      1.0000 0.45896  0.91215  0.87973  Biso   1.000  Cu
  Cu6      1.0000 0.95896  0.41215  0.87973  Biso   1.000  Cu
  Cu7      1.0000 0.54104  0.91215  0.62027  Biso   1.000  Cu
  Cu8      1.0000 0.04104  0.41215  0.62027  Biso   1.000  Cu
  Cu9      1.0000 0.60140  0.38960  0.11346  Biso   1.000  Cu
  Cu10     1.0000 0.10140  0.88960  0.11346  Biso   1.000  Cu
  Cu11     1.0000 0.39860  0.38960  0.38654  Biso   1.000  Cu
  Cu12     1.0000 0.89860  0.88960  0.38654  Biso   1.000  Cu
  Cu13     1.0000 0.39860  0.61040  0.88654  Biso   1.000  Cu
  Cu14     1.0000 0.89860  0.11040  0.88654  Biso   1.000  Cu
  Cu15     1.0000 0.60140  0.61040  0.61346  Biso   1.000  Cu
  Cu16     1.0000 0.10140  0.11040  0.61346  Biso   1.000  Cu
  O1       1.0000 0.08760  0.15020  0.21550  Biso   1.000  O
  O2       1.0000 0.58760  0.65020  0.21550  Biso   1.000  O
  O3       1.0000 0.91240  0.15020  0.28450  Biso   1.000  O
  O4       1.0000 0.41240  0.65020  0.28450  Biso   1.000  O
  O5       1.0000 0.91240  0.84980  0.78450  Biso   1.000  O
  O6       1.0000 0.41240  0.34980  0.78450  Biso   1.000  O
  O7       1.0000 0.08760  0.84980  0.71550  Biso   1.000  O
  O8       1.0000 0.58760  0.34980  0.71550  Biso   1.000  O
  O9       1.0000 0.16320  0.23990  0.25770  Biso   1.000  O
  O10      1.0000 0.66320  0.73990  0.25770  Biso   1.000  O
  O11      1.0000 0.83680  0.23990  0.24230  Biso   1.000  O
  O12      1.0000 0.33680  0.73990  0.24230  Biso   1.000  O
  O13      1.0000 0.83680  0.76010  0.74230  Biso   1.000  O
  O14      1.0000 0.33680  0.26010  0.74230  Biso   1.000  O
  O15      1.0000 0.16320  0.76010  0.75770  Biso   1.000  O
  O16      1.0000 0.66320  0.26010  0.75770  Biso   1.000  O
  O17      1.0000 0.93140  0.20770  0.14060  Biso   1.000  O
  O18      1.0000 0.43140  0.70770  0.14060  Biso   1.000  O
  O19      1.0000 0.06860  0.20770  0.35940  Biso   1.000  O
  O20      1.0000 0.56860  0.70770  0.35940  Biso   1.000  O
  O21      1.0000 0.06860  0.79230  0.85940  Biso   1.000  O
  O22      1.0000 0.56860  0.29230  0.85940  Biso   1.000  O
  O23      1.0000 0.93140  0.79230  0.64060  Biso   1.000  O
  O24      1.0000 0.43140  0.29230  0.64060  Biso   1.000  O
  O25      1.0000 0.00200  0.29810  0.18670  Biso   1.000  O
  O26      1.0000 0.50200  0.79810  0.18670  Biso   1.000  O
  O27      1.0000 0.99800  0.29810  0.31330  Biso   1.000  O
  O28      1.0000 0.49800  0.79810  0.31330  Biso   1.000  O
  O29      1.0000 0.99800  0.70190  0.81330  Biso   1.000  O
  O30      1.0000 0.49800  0.20190  0.81330  Biso   1.000  O
  O31      1.0000 0.00200  0.70190  0.68670  Biso   1.000  O
  O32      1.0000 0.50200  0.20190  0.68670  Biso   1.000  O
  O33      1.0000 0.19530  0.10460  0.27470  Biso   1.000  O
  O34      1.0000 0.69530  0.60460  0.27470  Biso   1.000  O
  O35      1.0000 0.80470  0.10460  0.22530  Biso   1.000  O
  O36      1.0000 0.30470  0.60460  0.22530  Biso   1.000  O
  O37      1.0000 0.80470  0.89540  0.72530  Biso   1.000  O
  O38      1.0000 0.30470  0.39540  0.72530  Biso   1.000  O
  O39      1.0000 0.19530  0.89540  0.77470  Biso   1.000  O
  O40      1.0000 0.69530  0.39540  0.77470  Biso   1.000  O
  O41      1.0000 0.27730  0.19730  0.31440  Biso   1.000  O
  O42      1.0000 0.77730  0.69730  0.31440  Biso   1.000  O
  O43      1.0000 0.72270  0.19730  0.18560  Biso   1.000  O
  O44      1.0000 0.22270  0.69730  0.18560  Biso   1.000  O
  O45      1.0000 0.72270  0.80270  0.68560  Biso   1.000  O
  O46      1.0000 0.22270  0.30270  0.68560  Biso   1.000  O
  O47      1.0000 0.27730  0.80270  0.81440  Biso   1.000  O
  O48      1.0000 0.77730  0.30270  0.81440  Biso   1.000  O
  O49      1.0000 0.81290  0.24940  0.08800  Biso   1.000  O
  O50      1.0000 0.31290  0.74940  0.08800  Biso   1.000  O
  O51      1.0000 0.18710  0.24940  0.41200  Biso   1.000  O
  O52      1.0000 0.68710  0.74940  0.41200  Biso   1.000  O
  O53      1.0000 0.18710  0.75060  0.91200  Biso   1.000  O
  O54      1.0000 0.68710  0.25060  0.91200  Biso   1.000  O
  O55      1.0000 0.81290  0.75060  0.58800  Biso   1.000  O
  O56      1.0000 0.31290  0.25060  0.58800  Biso   1.000  O
  O57      1.0000 0.87000  0.33950  0.15110  Biso   1.000  O
  O58      1.0000 0.37000  0.83950  0.15110  Biso   1.000  O
  O59      1.0000 0.13000  0.33950  0.34890  Biso   1.000  O
  O60      1.0000 0.63000  0.83950  0.34890  Biso   1.000  O
  O61      1.0000 0.13000  0.66050  0.84890  Biso   1.000  O
  O62      1.0000 0.63000  0.16050  0.84890  Biso   1.000  O
  O63      1.0000 0.87000  0.66050  0.65110  Biso   1.000  O
  O64      1.0000 0.37000  0.16050  0.65110  Biso   1.000  O
  O65      1.0000 0.26310  0.19970  0.15530  Biso   1.000  O
  O66      1.0000 0.76310  0.69970  0.15530  Biso   1.000  O
  O67      1.0000 0.73690  0.19970  0.34470  Biso   1.000  O
  O68      1.0000 0.23690  0.69970  0.34470  Biso   1.000  O
  O69      1.0000 0.73690  0.80030  0.84470  Biso   1.000  O
  O70      1.0000 0.23690  0.30030  0.84470  Biso   1.000  O
  O71      1.0000 0.26310  0.80030  0.65530  Biso   1.000  O
  O72      1.0000 0.76310  0.30030  0.65530  Biso   1.000  O
  O73      1.0000 0.20630  0.29760  0.14440  Biso   1.000  O
  O74      1.0000 0.70630  0.79760  0.14440  Biso   1.000  O
  O75      1.0000 0.79370  0.29760  0.35560  Biso   1.000  O
  O76      1.0000 0.29370  0.79760  0.35560  Biso   1.000  O
  O77      1.0000 0.79370  0.70240  0.85560  Biso   1.000  O
  O78      1.0000 0.29370  0.20240  0.85560  Biso   1.000  O
  O79      1.0000 0.20630  0.70240  0.64440  Biso   1.000  O
  O80      1.0000 0.70630  0.20240  0.64440  Biso   1.000  O
  O81      1.0000 0.10160  0.16490  0.06700  Biso   1.000  O
  O82      1.0000 0.60160  0.66490  0.06700  Biso   1.000  O
  O83      1.0000 0.89840  0.16490  0.43300  Biso   1.000  O
  O84      1.0000 0.39840  0.66490  0.43300  Biso   1.000  O
  O85      1.0000 0.89840  0.83510  0.93300  Biso   1.000  O
  O86      1.0000 0.39840  0.33510  0.93300  Biso   1.000  O
  O87      1.0000 0.10160  0.83510  0.56700  Biso   1.000  O
  O88      1.0000 0.60160  0.33510  0.56700  Biso   1.000  O
  O89      1.0000 0.04160  0.26260  0.05280  Biso   1.000  O
  O90      1.0000 0.54160  0.76260  0.05280  Biso   1.000  O
  O91      1.0000 0.95840  0.26260  0.44720  Biso   1.000  O
  O92      1.0000 0.45840  0.76260  0.44720  Biso   1.000  O
  O93      1.0000 0.95840  0.73740  0.94720  Biso   1.000  O
  O94      1.0000 0.45840  0.23740  0.94720  Biso   1.000  O
  O95      1.0000 0.04160  0.73740  0.55280  Biso   1.000  O
  O96      1.0000 0.54160  0.23740  0.55280  Biso   1.000  O
  O97      1.0000 0.39460  0.22070  0.21370  Biso   1.000  O
  O98      1.0000 0.89460  0.72070  0.21370  Biso   1.000  O
  O99      1.0000 0.60540  0.22070  0.28630  Biso   1.000  O
  O100     1.0000 0.10540  0.72070  0.28630  Biso   1.000  O
  O101     1.0000 0.60540  0.77930  0.78630  Biso   1.000  O
  O102     1.0000 0.10540  0.27930  0.78630  Biso   1.000  O
  O103     1.0000 0.39460  0.77930  0.71370  Biso   1.000  O
  O104     1.0000 0.89460  0.27930  0.71370  Biso   1.000  O
  O105     1.0000 0.32970  0.32410  0.20780  Biso   1.000  O
  O106     1.0000 0.82970  0.82410  0.20780  Biso   1.000  O
  O107     1.0000 0.67030  0.32410  0.29220  Biso   1.000  O
  O108     1.0000 0.17030  0.82410  0.29220  Biso   1.000  O
  O109     1.0000 0.67030  0.67590  0.79220  Biso   1.000  O
  O110     1.0000 0.17030  0.17590  0.79220  Biso   1.000  O
  O111     1.0000 0.32970  0.67590  0.70780  Biso   1.000  O
  O112     1.0000 0.82970  0.17590  0.70780  Biso   1.000  O
  O113     1.0000 0.99070  0.13730  0.99510  Biso   1.000  O
  O114     1.0000 0.49070  0.63730  0.99510  Biso   1.000  O
  O115     1.0000 0.00930  0.13730  0.50490  Biso   1.000  O
  O116     1.0000 0.50930  0.63730  0.50490  Biso   1.000  O
  O117     1.0000 0.00930  0.86270  0.00490  Biso   1.000  O
  O118     1.0000 0.50930  0.36270  0.00490  Biso   1.000  O
  O119     1.0000 0.99070  0.86270  0.49510  Biso   1.000  O
  O120     1.0000 0.49070  0.36270  0.49510  Biso   1.000  O
  O121     1.0000 0.92770  0.24000  0.97980  Biso   1.000  O
  O122     1.0000 0.42770  0.74000  0.97980  Biso   1.000  O
  O123     1.0000 0.07230  0.24000  0.52020  Biso   1.000  O
  O124     1.0000 0.57230  0.74000  0.52020  Biso   1.000  O
  O125     1.0000 0.07230  0.76000  0.02020  Biso   1.000  O
  O126     1.0000 0.57230  0.26000  0.02020  Biso   1.000  O
  O127     1.0000 0.92770  0.76000  0.47980  Biso   1.000  O
  O128     1.0000 0.42770  0.26000  0.47980  Biso   1.000  O
  O129     1.0000 0.32480  0.18450  0.01670  Biso   1.000  O
  O130     1.0000 0.82480  0.68450  0.01670  Biso   1.000  O
  O131     1.0000 0.67520  0.18450  0.48330  Biso   1.000  O
  O132     1.0000 0.17520  0.68450  0.48330  Biso   1.000  O
  O133     1.0000 0.67520  0.81550  0.98330  Biso   1.000  O
  O134     1.0000 0.17520  0.31550  0.98330  Biso   1.000  O
  O135     1.0000 0.32480  0.81550  0.51670  Biso   1.000  O
  O136     1.0000 0.82480  0.31550  0.51670  Biso   1.000  O
  O137     1.0000 0.16240  0.20320  0.94650  Biso   1.000  O
  O138     1.0000 0.66240  0.70320  0.94650  Biso   1.000  O
  O139     1.0000 0.83760  0.20320  0.55350  Biso   1.000  O
  O140     1.0000 0.33760  0.70320  0.55350  Biso   1.000  O
  O141     1.0000 0.83760  0.79680  0.05350  Biso   1.000  O
  O142     1.0000 0.33760  0.29680  0.05350  Biso   1.000  O
  O143     1.0000 0.16240  0.79680  0.44650  Biso   1.000  O
  O144     1.0000 0.66240  0.29680  0.44650  Biso   1.000  O
  O145     1.0000 0.33270  0.10490  0.97760  Biso   1.000  O
  O146     1.0000 0.83270  0.60490  0.97760  Biso   1.000  O
  O147     1.0000 0.66730  0.10490  0.52240  Biso   1.000  O
  O148     1.0000 0.16730  0.60490  0.52240  Biso   1.000  O
  O149     1.0000 0.66730  0.89510  0.02240  Biso   1.000  O
  O150     1.0000 0.16730  0.39510  0.02240  Biso   1.000  O
  O151     1.0000 0.33270  0.89510  0.47760  Biso   1.000  O
  O152     1.0000 0.83270  0.39510  0.47760  Biso   1.000  O
  O153     1.0000 0.15280  0.12190  0.91340  Biso   1.000  O
  O154     1.0000 0.65280  0.62190  0.91340  Biso   1.000  O
  O155     1.0000 0.84720  0.12190  0.58660  Biso   1.000  O
  O156     1.0000 0.34720  0.62190  0.58660  Biso   1.000  O
  O157     1.0000 0.84720  0.87810  0.08660  Biso   1.000  O
  O158     1.0000 0.34720  0.37810  0.08660  Biso   1.000  O
  O159     1.0000 0.15280  0.87810  0.41340  Biso   1.000  O
  O160     1.0000 0.65280  0.37810  0.41340  Biso   1.000  O
  O161     1.0000 0.66930  0.10870  0.11030  Biso   1.000  O
  O162     1.0000 0.16930  0.60870  0.11030  Biso   1.000  O
  O163     1.0000 0.33070  0.10870  0.38970  Biso   1.000  O
  O164     1.0000 0.83070  0.60870  0.38970  Biso   1.000  O
  O165     1.0000 0.33070  0.89130  0.88970  Biso   1.000  O
  O166     1.0000 0.83070  0.39130  0.88970  Biso   1.000  O
  O167     1.0000 0.66930  0.89130  0.61030  Biso   1.000  O
  O168     1.0000 0.16930  0.39130  0.61030  Biso   1.000  O
  H1       1.0000 0.69750  0.08310  0.10070  Biso   1.000  H
  H2       1.0000 0.19750  0.58310  0.10070  Biso   1.000  H
  H3       1.0000 0.30250  0.08310  0.39930  Biso   1.000  H
  H4       1.0000 0.80250  0.58310  0.39930  Biso   1.000  H
  H5       1.0000 0.30250  0.91690  0.89930  Biso   1.000  H
  H6       1.0000 0.80250  0.41690  0.89930  Biso   1.000  H
  H7       1.0000 0.69750  0.91690  0.60070  Biso   1.000  H
  H8       1.0000 0.19750  0.41690  0.60070  Biso   1.000  H
  O169     1.0000 0.49470  0.15770  0.09040  Biso   1.000  O
  O170     1.0000 0.99470  0.65770  0.09040  Biso   1.000  O
  O171     1.0000 0.50530  0.15770  0.40960  Biso   1.000  O
  O172     1.0000 0.00530  0.65770  0.40960  Biso   1.000  O
  O173     1.0000 0.50530  0.84230  0.90960  Biso   1.000  O
  O174     1.0000 0.00530  0.34230  0.90960  Biso   1.000  O
  O175     1.0000 0.49470  0.84230  0.59040  Biso   1.000  O
  O176     1.0000 0.99470  0.34230  0.59040  Biso   1.000  O
  H9       1.0000 0.43810  0.15660  0.08050  Biso   1.000  H
  H10      1.0000 0.93810  0.65660  0.08050  Biso   1.000  H
  H11      1.0000 0.56190  0.15660  0.41950  Biso   1.000  H
  H12      1.0000 0.06190  0.65660  0.41950  Biso   1.000  H
  H13      1.0000 0.56190  0.84340  0.91950  Biso   1.000  H
  H14      1.0000 0.06190  0.34340  0.91950  Biso   1.000  H
  H15      1.0000 0.43810  0.84340  0.58050  Biso   1.000  H
  H16      1.0000 0.93810  0.34340  0.58050  Biso   1.000  H
  O177     1.0000 0.58310  0.11820  0.22410  Biso   1.000  O
  O178     1.0000 0.08310  0.61820  0.22410  Biso   1.000  O
  O179     1.0000 0.41690  0.11820  0.27590  Biso   1.000  O
  O180     1.0000 0.91690  0.61820  0.27590  Biso   1.000  O
  O181     1.0000 0.41690  0.88180  0.77590  Biso   1.000  O
  O182     1.0000 0.91690  0.38180  0.77590  Biso   1.000  O
  O183     1.0000 0.58310  0.88180  0.72410  Biso   1.000  O
  O184     1.0000 0.08310  0.38180  0.72410  Biso   1.000  O
  H17      1.0000 0.53860  0.11480  0.24220  Biso   1.000  H
  H18      1.0000 0.03860  0.61480  0.24220  Biso   1.000  H
  H19      1.0000 0.46140  0.11480  0.25780  Biso   1.000  H
  H20      1.0000 0.96140  0.61480  0.25780  Biso   1.000  H
  H21      1.0000 0.46140  0.88520  0.75780  Biso   1.000  H
  H22      1.0000 0.96140  0.38520  0.75780  Biso   1.000  H
  H23      1.0000 0.53860  0.88520  0.74220  Biso   1.000  H
  H24      1.0000 0.03860  0.38520  0.74220  Biso   1.000  H
  O185     1.0000 0.50310  0.05540  0.01260  Biso   1.000  O
  O186     1.0000 0.00310  0.55540  0.01260  Biso   1.000  O
  O187     1.0000 0.49690  0.05540  0.48740  Biso   1.000  O
  O188     1.0000 0.99690  0.55540  0.48740  Biso   1.000  O
  O189     1.0000 0.49690  0.94460  0.98740  Biso   1.000  O
  O190     1.0000 0.99690  0.44460  0.98740  Biso   1.000  O
  O191     1.0000 0.50310  0.94460  0.51260  Biso   1.000  O
  O192     1.0000 0.00310  0.44460  0.51260  Biso   1.000  O
  O193     1.0000 0.51590  0.34520  0.14850  Biso   1.000  O
  O194     1.0000 0.01590  0.84520  0.14850  Biso   1.000  O
  O195     1.0000 0.48410  0.34520  0.35150  Biso   1.000  O
  O196     1.0000 0.98410  0.84520  0.35150  Biso   1.000  O
  O197     1.0000 0.48410  0.65480  0.85150  Biso   1.000  O
  O198     1.0000 0.98410  0.15480  0.85150  Biso   1.000  O
  O199     1.0000 0.51590  0.65480  0.64850  Biso   1.000  O
  O200     1.0000 0.01590  0.15480  0.64850  Biso   1.000  O
  H25      1.0000 0.46550  0.34490  0.12620  Biso   1.000  H
  H26      1.0000 0.96550  0.84490  0.12620  Biso   1.000  H
  H27      1.0000 0.53450  0.34490  0.37380  Biso   1.000  H
  H28      1.0000 0.03450  0.84490  0.37380  Biso   1.000  H
  H29      1.0000 0.53450  0.65510  0.87380  Biso   1.000  H
  H30      1.0000 0.03450  0.15510  0.87380  Biso   1.000  H
  H31      1.0000 0.46550  0.65510  0.62620  Biso   1.000  H
  H32      1.0000 0.96550  0.15510  0.62620  Biso   1.000  H
  O201     1.0000 0.67330  0.32740  0.09180  Biso   1.000  O
  O202     1.0000 0.17330  0.82740  0.09180  Biso   1.000  O
  O203     1.0000 0.32670  0.32740  0.40820  Biso   1.000  O
  O204     1.0000 0.82670  0.82740  0.40820  Biso   1.000  O
  O205     1.0000 0.32670  0.67260  0.90820  Biso   1.000  O
  O206     1.0000 0.82670  0.17260  0.90820  Biso   1.000  O
  O207     1.0000 0.67330  0.67260  0.59180  Biso   1.000  O
  O208     1.0000 0.17330  0.17260  0.59180  Biso   1.000  O
  H33      1.0000 0.63720  0.30550  0.07470  Biso   1.000  H
  H34      1.0000 0.13720  0.80550  0.07470  Biso   1.000  H
  H35      1.0000 0.36280  0.30550  0.42530  Biso   1.000  H
  H36      1.0000 0.86280  0.80550  0.42530  Biso   1.000  H
  H37      1.0000 0.36280  0.69450  0.92530  Biso   1.000  H
  H38      1.0000 0.86280  0.19450  0.92530  Biso   1.000  H
  H39      1.0000 0.63720  0.69450  0.57470  Biso   1.000  H
  H40      1.0000 0.13720  0.19450  0.57470  Biso   1.000  H
  O209     1.0000 0.71150  0.39050  0.20180  Biso   1.000  O
  O210     1.0000 0.21150  0.89050  0.20180  Biso   1.000  O
  O211     1.0000 0.28850  0.39050  0.29820  Biso   1.000  O
  O212     1.0000 0.78850  0.89050  0.29820  Biso   1.000  O
  O213     1.0000 0.28850  0.60950  0.79820  Biso   1.000  O
  O214     1.0000 0.78850  0.10950  0.79820  Biso   1.000  O
  O215     1.0000 0.71150  0.60950  0.70180  Biso   1.000  O
  O216     1.0000 0.21150  0.10950  0.70180  Biso   1.000  O
  H41      1.0000 0.75720  0.37370  0.19610  Biso   1.000  H
  H42      1.0000 0.25720  0.87370  0.19610  Biso   1.000  H
  H43      1.0000 0.24280  0.37370  0.30390  Biso   1.000  H
  H44      1.0000 0.74280  0.87370  0.30390  Biso   1.000  H
  H45      1.0000 0.24280  0.62630  0.80390  Biso   1.000  H
  H46      1.0000 0.74280  0.12630  0.80390  Biso   1.000  H
  H47      1.0000 0.75720  0.62630  0.69610  Biso   1.000  H
  H48      1.0000 0.25720  0.12630  0.69610  Biso   1.000  H
  N1       1.0000 0.58090  0.01620  0.14820  Biso   1.000  N
  N2       1.0000 0.08090  0.51620  0.14820  Biso   1.000  N
  N3       1.0000 0.41910  0.01620  0.35180  Biso   1.000  N
  N4       1.0000 0.91910  0.51620  0.35180  Biso   1.000  N
  N5       1.0000 0.41910  0.98380  0.85180  Biso   1.000  N
  N6       1.0000 0.91910  0.48380  0.85180  Biso   1.000  N
  N7       1.0000 0.58090  0.98380  0.64820  Biso   1.000  N
  N8       1.0000 0.08090  0.48380  0.64820  Biso   1.000  N
  N9       1.0000 0.42070  0.06130  0.13600  Biso   1.000  N
  N10      1.0000 0.92070  0.56130  0.13600  Biso   1.000  N
  N11      1.0000 0.57930  0.06130  0.36400  Biso   1.000  N
  N12      1.0000 0.07930  0.56130  0.36400  Biso   1.000  N
  N13      1.0000 0.57930  0.93870  0.86400  Biso   1.000  N
  N14      1.0000 0.07930  0.43870  0.86400  Biso   1.000  N
  N15      1.0000 0.42070  0.93870  0.63600  Biso   1.000  N
  N16      1.0000 0.92070  0.43870  0.63600  Biso   1.000  N
  N17      1.0000 0.52920  0.45370  0.12940  Biso   1.000  N
  N18      1.0000 0.02920  0.95370  0.12940  Biso   1.000  N
  N19      1.0000 0.47080  0.45370  0.37060  Biso   1.000  N
  N20      1.0000 0.97080  0.95370  0.37060  Biso   1.000  N
  N21      1.0000 0.47080  0.54630  0.87060  Biso   1.000  N
  N22      1.0000 0.97080  0.04630  0.87060  Biso   1.000  N
  N23      1.0000 0.52920  0.54630  0.62940  Biso   1.000  N
  N24      1.0000 0.02920  0.04630  0.62940  Biso   1.000  N
  N25      1.0000 0.65770  0.43970  0.06420  Biso   1.000  N
  N26      1.0000 0.15770  0.93970  0.06420  Biso   1.000  N
  N27      1.0000 0.34230  0.43970  0.43580  Biso   1.000  N
  N28      1.0000 0.84230  0.93970  0.43580  Biso   1.000  N
  N29      1.0000 0.34230  0.56030  0.93580  Biso   1.000  N
  N30      1.0000 0.84230  0.06030  0.93580  Biso   1.000  N
  N31      1.0000 0.65770  0.56030  0.56420  Biso   1.000  N
  N32      1.0000 0.15770  0.06030  0.56420  Biso   1.000  N
  C1       1.0000 0.16020  0.14490  0.25610  Biso   1.000  C
  C2       1.0000 0.66020  0.64490  0.25610  Biso   1.000  C
  C3       1.0000 0.83980  0.14490  0.24390  Biso   1.000  C
  C4       1.0000 0.33980  0.64490  0.24390  Biso   1.000  C
  C5       1.0000 0.83980  0.85510  0.74390  Biso   1.000  C
  C6       1.0000 0.33980  0.35510  0.74390  Biso   1.000  C
  C7       1.0000 0.16020  0.85510  0.75610  Biso   1.000  C
  C8       1.0000 0.66020  0.35510  0.75610  Biso   1.000  C
  C9       1.0000 0.20730  0.19820  0.27880  Biso   1.000  C
  C10      1.0000 0.70730  0.69820  0.27880  Biso   1.000  C
  C11      1.0000 0.79270  0.19820  0.22120  Biso   1.000  C
  C12      1.0000 0.29270  0.69820  0.22120  Biso   1.000  C
  C13      1.0000 0.79270  0.80180  0.72120  Biso   1.000  C
  C14      1.0000 0.29270  0.30180  0.72120  Biso   1.000  C
  C15      1.0000 0.20730  0.80180  0.77880  Biso   1.000  C
  C16      1.0000 0.70730  0.30180  0.77880  Biso   1.000  C
  C17      1.0000 0.88170  0.24890  0.12490  Biso   1.000  C
  C18      1.0000 0.38170  0.74890  0.12490  Biso   1.000  C
  C19      1.0000 0.11830  0.24890  0.37510  Biso   1.000  C
  C20      1.0000 0.61830  0.74890  0.37510  Biso   1.000  C
  C21      1.0000 0.11830  0.75110  0.87510  Biso   1.000  C
  C22      1.0000 0.61830  0.25110  0.87510  Biso   1.000  C
  C23      1.0000 0.88170  0.75110  0.62490  Biso   1.000  C
  C24      1.0000 0.38170  0.25110  0.62490  Biso   1.000  C
  C25      1.0000 0.91910  0.30070  0.15690  Biso   1.000  C
  C26      1.0000 0.41910  0.80070  0.15690  Biso   1.000  C
  C27      1.0000 0.08090  0.30070  0.34310  Biso   1.000  C
  C28      1.0000 0.58090  0.80070  0.34310  Biso   1.000  C
  C29      1.0000 0.08090  0.69930  0.84310  Biso   1.000  C
  C30      1.0000 0.58090  0.19930  0.84310  Biso   1.000  C
  C31      1.0000 0.91910  0.69930  0.65690  Biso   1.000  C
  C32      1.0000 0.41910  0.19930  0.65690  Biso   1.000  C
  C33      1.0000 0.32130  0.23340  0.18400  Biso   1.000  C
  C34      1.0000 0.82130  0.73340  0.18400  Biso   1.000  C
  C35      1.0000 0.67870  0.23340  0.31600  Biso   1.000  C
  C36      1.0000 0.17870  0.73340  0.31600  Biso   1.000  C
  C37      1.0000 0.67870  0.76660  0.81600  Biso   1.000  C
  C38      1.0000 0.17870  0.26660  0.81600  Biso   1.000  C
  C39      1.0000 0.32130  0.76660  0.68400  Biso   1.000  C
  C40      1.0000 0.82130  0.26660  0.68400  Biso   1.000  C
  C41      1.0000 0.28690  0.28950  0.17970  Biso   1.000  C
  C42      1.0000 0.78690  0.78950  0.17970  Biso   1.000  C
  C43      1.0000 0.71310  0.28950  0.32030  Biso   1.000  C
  C44      1.0000 0.21310  0.78950  0.32030  Biso   1.000  C
  C45      1.0000 0.71310  0.71050  0.82030  Biso   1.000  C
  C46      1.0000 0.21310  0.21050  0.82030  Biso   1.000  C
  C47      1.0000 0.28690  0.71050  0.67970  Biso   1.000  C
  C48      1.0000 0.78690  0.21050  0.67970  Biso   1.000  C
  C49      1.0000 0.02990  0.17190  0.02500  Biso   1.000  C
  C50      1.0000 0.52990  0.67190  0.02500  Biso   1.000  C
  C51      1.0000 0.97010  0.17190  0.47500  Biso   1.000  C
  C52      1.0000 0.47010  0.67190  0.47500  Biso   1.000  C
  C53      1.0000 0.97010  0.82810  0.97500  Biso   1.000  C
  C54      1.0000 0.47010  0.32810  0.97500  Biso   1.000  C
  C55      1.0000 0.02990  0.82810  0.52500  Biso   1.000  C
  C56      1.0000 0.52990  0.32810  0.52500  Biso   1.000  C
  C57      1.0000 0.99520  0.22920  0.01750  Biso   1.000  C
  C58      1.0000 0.49520  0.72920  0.01750  Biso   1.000  C
  C59      1.0000 0.00480  0.22920  0.48250  Biso   1.000  C
  C60      1.0000 0.50480  0.72920  0.48250  Biso   1.000  C
  C61      1.0000 0.00480  0.77080  0.98250  Biso   1.000  C
  C62      1.0000 0.50480  0.27080  0.98250  Biso   1.000  C
  C63      1.0000 0.99520  0.77080  0.51750  Biso   1.000  C
  C64      1.0000 0.49520  0.27080  0.51750  Biso   1.000  C
  C65      1.0000 0.29030  0.14610  0.98090  Biso   1.000  C
  C66      1.0000 0.79030  0.64610  0.98090  Biso   1.000  C
  C67      1.0000 0.70970  0.14610  0.51910  Biso   1.000  C
  C68      1.0000 0.20970  0.64610  0.51910  Biso   1.000  C
  C69      1.0000 0.70970  0.85390  0.01910  Biso   1.000  C
  C70      1.0000 0.20970  0.35390  0.01910  Biso   1.000  C
  C71      1.0000 0.29030  0.85390  0.48090  Biso   1.000  C
  C72      1.0000 0.79030  0.35390  0.48090  Biso   1.000  C
  C73      1.0000 0.19520  0.15630  0.94380  Biso   1.000  C
  C74      1.0000 0.69520  0.65630  0.94380  Biso   1.000  C
  C75      1.0000 0.80480  0.15630  0.55620  Biso   1.000  C
  C76      1.0000 0.30480  0.65630  0.55620  Biso   1.000  C
  C77      1.0000 0.80480  0.84370  0.05620  Biso   1.000  C
  C78      1.0000 0.30480  0.34370  0.05620  Biso   1.000  C
  C79      1.0000 0.19520  0.84370  0.44380  Biso   1.000  C
  C80      1.0000 0.69520  0.34370  0.44380  Biso   1.000  C
  C81      1.0000 0.66820  0.99460  0.14650  Biso   1.000  C
  C82      1.0000 0.16820  0.49460  0.14650  Biso   1.000  C
  C83      1.0000 0.33180  0.99460  0.35350  Biso   1.000  C
  C84      1.0000 0.83180  0.49460  0.35350  Biso   1.000  C
  C85      1.0000 0.33180  0.00540  0.85350  Biso   1.000  C
  C86      1.0000 0.83180  0.50540  0.85350  Biso   1.000  C
  C87      1.0000 0.66820  0.00540  0.64650  Biso   1.000  C
  C88      1.0000 0.16820  0.50540  0.64650  Biso   1.000  C
  H49      1.0000 0.71560  0.01540  0.13610  Biso   1.000  H
  H50      1.0000 0.21560  0.51540  0.13610  Biso   1.000  H
  H51      1.0000 0.28440  0.01540  0.36390  Biso   1.000  H
  H52      1.0000 0.78440  0.51540  0.36390  Biso   1.000  H
  H53      1.0000 0.28440  0.98460  0.86390  Biso   1.000  H
  H54      1.0000 0.78440  0.48460  0.86390  Biso   1.000  H
  H55      1.0000 0.71560  0.98460  0.63610  Biso   1.000  H
  H56      1.0000 0.21560  0.48460  0.63610  Biso   1.000  H
  C89      1.0000 0.68470  0.94260  0.16020  Biso   1.000  C
  C90      1.0000 0.18470  0.44260  0.16020  Biso   1.000  C
  C91      1.0000 0.31530  0.94260  0.33980  Biso   1.000  C
  C92      1.0000 0.81530  0.44260  0.33980  Biso   1.000  C
  C93      1.0000 0.31530  0.05740  0.83980  Biso   1.000  C
  C94      1.0000 0.81530  0.55740  0.83980  Biso   1.000  C
  C95      1.0000 0.68470  0.05740  0.66020  Biso   1.000  C
  C96      1.0000 0.18470  0.55740  0.66020  Biso   1.000  C
  H57      1.0000 0.74350  0.92840  0.16040  Biso   1.000  H
  H58      1.0000 0.24350  0.42840  0.16040  Biso   1.000  H
  H59      1.0000 0.25650  0.92840  0.33960  Biso   1.000  H
  H60      1.0000 0.75650  0.42840  0.33960  Biso   1.000  H
  H61      1.0000 0.25650  0.07160  0.83960  Biso   1.000  H
  H62      1.0000 0.75650  0.57160  0.83960  Biso   1.000  H
  H63      1.0000 0.74350  0.07160  0.66040  Biso   1.000  H
  H64      1.0000 0.24350  0.57160  0.66040  Biso   1.000  H
  C97      1.0000 0.61260  0.91180  0.17360  Biso   1.000  C
  C98      1.0000 0.11260  0.41180  0.17360  Biso   1.000  C
  C99      1.0000 0.38740  0.91180  0.32640  Biso   1.000  C
  C100     1.0000 0.88740  0.41180  0.32640  Biso   1.000  C
  C101     1.0000 0.38740  0.08820  0.82640  Biso   1.000  C
  C102     1.0000 0.88740  0.58820  0.82640  Biso   1.000  C
  C103     1.0000 0.61260  0.08820  0.67360  Biso   1.000  C
  C104     1.0000 0.11260  0.58820  0.67360  Biso   1.000  C
  H65      1.0000 0.62280  0.87700  0.18430  Biso   1.000  H
  H66      1.0000 0.12280  0.37700  0.18430  Biso   1.000  H
  H67      1.0000 0.37720  0.87700  0.31570  Biso   1.000  H
  H68      1.0000 0.87720  0.37700  0.31570  Biso   1.000  H
  H69      1.0000 0.37720  0.12300  0.81570  Biso   1.000  H
  H70      1.0000 0.87720  0.62300  0.81570  Biso   1.000  H
  H71      1.0000 0.62280  0.12300  0.68430  Biso   1.000  H
  H72      1.0000 0.12280  0.62300  0.68430  Biso   1.000  H
  C105     1.0000 0.52800  0.93280  0.17090  Biso   1.000  C
  C106     1.0000 0.02800  0.43280  0.17090  Biso   1.000  C
  C107     1.0000 0.47200  0.93280  0.32910  Biso   1.000  C
  C108     1.0000 0.97200  0.43280  0.32910  Biso   1.000  C
  C109     1.0000 0.47200  0.06720  0.82910  Biso   1.000  C
  C110     1.0000 0.97200  0.56720  0.82910  Biso   1.000  C
  C111     1.0000 0.52800  0.06720  0.67090  Biso   1.000  C
  C112     1.0000 0.02800  0.56720  0.67090  Biso   1.000  C
  H73      1.0000 0.47790  0.91190  0.17650  Biso   1.000  H
  H74      1.0000 0.97790  0.41190  0.17650  Biso   1.000  H
  H75      1.0000 0.52210  0.91190  0.32350  Biso   1.000  H
  H76      1.0000 0.02210  0.41190  0.32350  Biso   1.000  H
  H77      1.0000 0.52210  0.08810  0.82350  Biso   1.000  H
  H78      1.0000 0.02210  0.58810  0.82350  Biso   1.000  H
  H79      1.0000 0.47790  0.08810  0.67650  Biso   1.000  H
  H80      1.0000 0.97790  0.58810  0.67650  Biso   1.000  H
  C113     1.0000 0.51500  0.98580  0.15990  Biso   1.000  C
  C114     1.0000 0.01500  0.48580  0.15990  Biso   1.000  C
  C115     1.0000 0.48500  0.98580  0.34010  Biso   1.000  C
  C116     1.0000 0.98500  0.48580  0.34010  Biso   1.000  C
  C117     1.0000 0.48500  0.01420  0.84010  Biso   1.000  C
  C118     1.0000 0.98500  0.51420  0.84010  Biso   1.000  C
  C119     1.0000 0.51500  0.01420  0.65990  Biso   1.000  C
  C120     1.0000 0.01500  0.51420  0.65990  Biso   1.000  C
  C121     1.0000 0.42190  0.01260  0.16000  Biso   1.000  C
  C122     1.0000 0.92190  0.51260  0.16000  Biso   1.000  C
  C123     1.0000 0.57810  0.01260  0.34000  Biso   1.000  C
  C124     1.0000 0.07810  0.51260  0.34000  Biso   1.000  C
  C125     1.0000 0.57810  0.98740  0.84000  Biso   1.000  C
  C126     1.0000 0.07810  0.48740  0.84000  Biso   1.000  C
  C127     1.0000 0.42190  0.98740  0.66000  Biso   1.000  C
  C128     1.0000 0.92190  0.48740  0.66000  Biso   1.000  C
  C129     1.0000 0.34780  0.99070  0.17910  Biso   1.000  C
  C130     1.0000 0.84780  0.49070  0.17910  Biso   1.000  C
  C131     1.0000 0.65220  0.99070  0.32090  Biso   1.000  C
  C132     1.0000 0.15220  0.49070  0.32090  Biso   1.000  C
  C133     1.0000 0.65220  0.00930  0.82090  Biso   1.000  C
  C134     1.0000 0.15220  0.50930  0.82090  Biso   1.000  C
  C135     1.0000 0.34780  0.00930  0.67910  Biso   1.000  C
  C136     1.0000 0.84780  0.50930  0.67910  Biso   1.000  C
  H81      1.0000 0.35060  0.95670  0.19400  Biso   1.000  H
  H82      1.0000 0.85060  0.45670  0.19400  Biso   1.000  H
  H83      1.0000 0.64940  0.95670  0.30600  Biso   1.000  H
  H84      1.0000 0.14940  0.45670  0.30600  Biso   1.000  H
  H85      1.0000 0.64940  0.04330  0.80600  Biso   1.000  H
  H86      1.0000 0.14940  0.54330  0.80600  Biso   1.000  H
  H87      1.0000 0.35060  0.04330  0.69400  Biso   1.000  H
  H88      1.0000 0.85060  0.54330  0.69400  Biso   1.000  H
  C137     1.0000 0.26990  0.01910  0.17620  Biso   1.000  C
  C138     1.0000 0.76990  0.51910  0.17620  Biso   1.000  C
  C139     1.0000 0.73010  0.01910  0.32380  Biso   1.000  C
  C140     1.0000 0.23010  0.51910  0.32380  Biso   1.000  C
  C141     1.0000 0.73010  0.98090  0.82380  Biso   1.000  C
  C142     1.0000 0.23010  0.48090  0.82380  Biso   1.000  C
  C143     1.0000 0.26990  0.98090  0.67620  Biso   1.000  C
  C144     1.0000 0.76990  0.48090  0.67620  Biso   1.000  C
  H89      1.0000 0.21920  0.00510  0.19140  Biso   1.000  H
  H90      1.0000 0.71920  0.50510  0.19140  Biso   1.000  H
  H91      1.0000 0.78080  0.00510  0.30860  Biso   1.000  H
  H92      1.0000 0.28080  0.50510  0.30860  Biso   1.000  H
  H93      1.0000 0.78080  0.99490  0.80860  Biso   1.000  H
  H94      1.0000 0.28080  0.49490  0.80860  Biso   1.000  H
  H95      1.0000 0.21920  0.99490  0.69140  Biso   1.000  H
  H96      1.0000 0.71920  0.49490  0.69140  Biso   1.000  H
  C145     1.0000 0.26320  0.06890  0.15090  Biso   1.000  C
  C146     1.0000 0.76320  0.56890  0.15090  Biso   1.000  C
  C147     1.0000 0.73680  0.06890  0.34910  Biso   1.000  C
  C148     1.0000 0.23680  0.56890  0.34910  Biso   1.000  C
  C149     1.0000 0.73680  0.93110  0.84910  Biso   1.000  C
  C150     1.0000 0.23680  0.43110  0.84910  Biso   1.000  C
  C151     1.0000 0.26320  0.93110  0.65090  Biso   1.000  C
  C152     1.0000 0.76320  0.43110  0.65090  Biso   1.000  C
  H97      1.0000 0.20790  0.08770  0.14550  Biso   1.000  H
  H98      1.0000 0.70790  0.58770  0.14550  Biso   1.000  H
  H99      1.0000 0.79210  0.08770  0.35450  Biso   1.000  H
  H100     1.0000 0.29210  0.58770  0.35450  Biso   1.000  H
  H101     1.0000 0.79210  0.91230  0.85450  Biso   1.000  H
  H102     1.0000 0.29210  0.41230  0.85450  Biso   1.000  H
  H103     1.0000 0.20790  0.91230  0.64550  Biso   1.000  H
  H104     1.0000 0.70790  0.41230  0.64550  Biso   1.000  H
  C153     1.0000 0.33830  0.08760  0.13530  Biso   1.000  C
  C154     1.0000 0.83830  0.58760  0.13530  Biso   1.000  C
  C155     1.0000 0.66170  0.08760  0.36470  Biso   1.000  C
  C156     1.0000 0.16170  0.58760  0.36470  Biso   1.000  C
  C157     1.0000 0.66170  0.91240  0.86470  Biso   1.000  C
  C158     1.0000 0.16170  0.41240  0.86470  Biso   1.000  C
  C159     1.0000 0.33830  0.91240  0.63530  Biso   1.000  C
  C160     1.0000 0.83830  0.41240  0.63530  Biso   1.000  C
  H105     1.0000 0.33640  0.12210  0.12240  Biso   1.000  H
  H106     1.0000 0.83640  0.62210  0.12240  Biso   1.000  H
  H107     1.0000 0.66360  0.12210  0.37760  Biso   1.000  H
  H108     1.0000 0.16360  0.62210  0.37760  Biso   1.000  H
  H109     1.0000 0.66360  0.87790  0.87760  Biso   1.000  H
  H110     1.0000 0.16360  0.37790  0.87760  Biso   1.000  H
  H111     1.0000 0.33640  0.87790  0.62240  Biso   1.000  H
  H112     1.0000 0.83640  0.37790  0.62240  Biso   1.000  H
  C161     1.0000 0.47030  0.45780  0.17010  Biso   1.000  C
  C162     1.0000 0.97030  0.95780  0.17010  Biso   1.000  C
  C163     1.0000 0.52970  0.45780  0.32990  Biso   1.000  C
  C164     1.0000 0.02970  0.95780  0.32990  Biso   1.000  C
  C165     1.0000 0.52970  0.54220  0.82990  Biso   1.000  C
  C166     1.0000 0.02970  0.04220  0.82990  Biso   1.000  C
  C167     1.0000 0.47030  0.54220  0.67010  Biso   1.000  C
  C168     1.0000 0.97030  0.04220  0.67010  Biso   1.000  C
  H113     1.0000 0.45830  0.42820  0.19170  Biso   1.000  H
  H114     1.0000 0.95830  0.92820  0.19170  Biso   1.000  H
  H115     1.0000 0.54170  0.42820  0.30830  Biso   1.000  H
  H116     1.0000 0.04170  0.92820  0.30830  Biso   1.000  H
  H117     1.0000 0.54170  0.57180  0.80830  Biso   1.000  H
  H118     1.0000 0.04170  0.07180  0.80830  Biso   1.000  H
  H119     1.0000 0.45830  0.57180  0.69170  Biso   1.000  H
  H120     1.0000 0.95830  0.07180  0.69170  Biso   1.000  H
  C169     1.0000 0.42570  0.50500  0.18150  Biso   1.000  C
  C170     1.0000 0.92570  0.00500  0.18150  Biso   1.000  C
  C171     1.0000 0.57430  0.50500  0.31850  Biso   1.000  C
  C172     1.0000 0.07430  0.00500  0.31850  Biso   1.000  C
  C173     1.0000 0.57430  0.49500  0.81850  Biso   1.000  C
  C174     1.0000 0.07430  0.99500  0.81850  Biso   1.000  C
  C175     1.0000 0.42570  0.49500  0.68150  Biso   1.000  C
  C176     1.0000 0.92570  0.99500  0.68150  Biso   1.000  C
  H121     1.0000 0.38440  0.50730  0.20920  Biso   1.000  H
  H122     1.0000 0.88440  0.00730  0.20920  Biso   1.000  H
  H123     1.0000 0.61560  0.50730  0.29080  Biso   1.000  H
  H124     1.0000 0.11560  0.00730  0.29080  Biso   1.000  H
  H125     1.0000 0.61560  0.49270  0.79080  Biso   1.000  H
  H126     1.0000 0.11560  0.99270  0.79080  Biso   1.000  H
  H127     1.0000 0.38440  0.49270  0.70920  Biso   1.000  H
  H128     1.0000 0.88440  0.99270  0.70920  Biso   1.000  H
  C177     1.0000 0.44890  0.54820  0.14760  Biso   1.000  C
  C178     1.0000 0.94890  0.04820  0.14760  Biso   1.000  C
  C179     1.0000 0.55110  0.54820  0.35240  Biso   1.000  C
  C180     1.0000 0.05110  0.04820  0.35240  Biso   1.000  C
  C181     1.0000 0.55110  0.45180  0.85240  Biso   1.000  C
  C182     1.0000 0.05110  0.95180  0.85240  Biso   1.000  C
  C183     1.0000 0.44890  0.45180  0.64760  Biso   1.000  C
  C184     1.0000 0.94890  0.95180  0.64760  Biso   1.000  C
  H129     1.0000 0.42290  0.58060  0.15320  Biso   1.000  H
  H130     1.0000 0.92290  0.08060  0.15320  Biso   1.000  H
  H131     1.0000 0.57710  0.58060  0.34680  Biso   1.000  H
  H132     1.0000 0.07710  0.08060  0.34680  Biso   1.000  H
  H133     1.0000 0.57710  0.41940  0.84680  Biso   1.000  H
  H134     1.0000 0.07710  0.91940  0.84680  Biso   1.000  H
  H135     1.0000 0.42290  0.41940  0.65320  Biso   1.000  H
  H136     1.0000 0.92290  0.91940  0.65320  Biso   1.000  H
  C185     1.0000 0.50770  0.54330  0.10730  Biso   1.000  C
  C186     1.0000 0.00770  0.04330  0.10730  Biso   1.000  C
  C187     1.0000 0.49230  0.54330  0.39270  Biso   1.000  C
  C188     1.0000 0.99230  0.04330  0.39270  Biso   1.000  C
  C189     1.0000 0.49230  0.45670  0.89270  Biso   1.000  C
  C190     1.0000 0.99230  0.95670  0.89270  Biso   1.000  C
  C191     1.0000 0.50770  0.45670  0.60730  Biso   1.000  C
  C192     1.0000 0.00770  0.95670  0.60730  Biso   1.000  C
  H137     1.0000 0.52130  0.57220  0.08500  Biso   1.000  H
  H138     1.0000 0.02130  0.07220  0.08500  Biso   1.000  H
  H139     1.0000 0.47870  0.57220  0.41500  Biso   1.000  H
  H140     1.0000 0.97870  0.07220  0.41500  Biso   1.000  H
  H141     1.0000 0.47870  0.42780  0.91500  Biso   1.000  H
  H142     1.0000 0.97870  0.92780  0.91500  Biso   1.000  H
  H143     1.0000 0.52130  0.42780  0.58500  Biso   1.000  H
  H144     1.0000 0.02130  0.92780  0.58500  Biso   1.000  H
  C193     1.0000 0.54780  0.49600  0.09880  Biso   1.000  C
  C194     1.0000 0.04780  0.99600  0.09880  Biso   1.000  C
  C195     1.0000 0.45220  0.49600  0.40120  Biso   1.000  C
  C196     1.0000 0.95220  0.99600  0.40120  Biso   1.000  C
  C197     1.0000 0.45220  0.50400  0.90120  Biso   1.000  C
  C198     1.0000 0.95220  0.00400  0.90120  Biso   1.000  C
  C199     1.0000 0.54780  0.50400  0.59880  Biso   1.000  C
  C200     1.0000 0.04780  0.00400  0.59880  Biso   1.000  C
  C201     1.0000 0.61550  0.48720  0.05690  Biso   1.000  C
  C202     1.0000 0.11550  0.98720  0.05690  Biso   1.000  C
  C203     1.0000 0.38450  0.48720  0.44310  Biso   1.000  C
  C204     1.0000 0.88450  0.98720  0.44310  Biso   1.000  C
  C205     1.0000 0.38450  0.51280  0.94310  Biso   1.000  C
  C206     1.0000 0.88450  0.01280  0.94310  Biso   1.000  C
  C207     1.0000 0.61550  0.51280  0.55690  Biso   1.000  C
  C208     1.0000 0.11550  0.01280  0.55690  Biso   1.000  C
  C209     1.0000 0.63950  0.52290  0.01600  Biso   1.000  C
  C210     1.0000 0.13950  0.02290  0.01600  Biso   1.000  C
  C211     1.0000 0.36050  0.52290  0.48400  Biso   1.000  C
  C212     1.0000 0.86050  0.02290  0.48400  Biso   1.000  C
  C213     1.0000 0.36050  0.47710  0.98400  Biso   1.000  C
  C214     1.0000 0.86050  0.97710  0.98400  Biso   1.000  C
  C215     1.0000 0.63950  0.47710  0.51600  Biso   1.000  C
  C216     1.0000 0.13950  0.97710  0.51600  Biso   1.000  C
  H145     1.0000 0.60960  0.55500  0.01150  Biso   1.000  H
  H146     1.0000 0.10960  0.05500  0.01150  Biso   1.000  H
  H147     1.0000 0.39040  0.55500  0.48850  Biso   1.000  H
  H148     1.0000 0.89040  0.05500  0.48850  Biso   1.000  H
  H149     1.0000 0.39040  0.44500  0.98850  Biso   1.000  H
  H150     1.0000 0.89040  0.94500  0.98850  Biso   1.000  H
  H151     1.0000 0.60960  0.44500  0.51150  Biso   1.000  H
  H152     1.0000 0.10960  0.94500  0.51150  Biso   1.000  H
  C217     1.0000 0.70790  0.51140  0.98160  Biso   1.000  C
  C218     1.0000 0.20790  0.01140  0.98160  Biso   1.000  C
  C219     1.0000 0.29210  0.51140  0.51840  Biso   1.000  C
  C220     1.0000 0.79210  0.01140  0.51840  Biso   1.000  C
  C221     1.0000 0.29210  0.48860  0.01840  Biso   1.000  C
  C222     1.0000 0.79210  0.98860  0.01840  Biso   1.000  C
  C223     1.0000 0.70790  0.48860  0.48160  Biso   1.000  C
  C224     1.0000 0.20790  0.98860  0.48160  Biso   1.000  C
  H153     1.0000 0.72370  0.53490  0.95310  Biso   1.000  H
  H154     1.0000 0.22370  0.03490  0.95310  Biso   1.000  H
  H155     1.0000 0.27630  0.53490  0.54690  Biso   1.000  H
  H156     1.0000 0.77630  0.03490  0.54690  Biso   1.000  H
  H157     1.0000 0.27630  0.46510  0.04690  Biso   1.000  H
  H158     1.0000 0.77630  0.96510  0.04690  Biso   1.000  H
  H159     1.0000 0.72370  0.46510  0.45310  Biso   1.000  H
  H160     1.0000 0.22370  0.96510  0.45310  Biso   1.000  H
  C225     1.0000 0.75150  0.46380  0.99090  Biso   1.000  C
  C226     1.0000 0.25150  0.96380  0.99090  Biso   1.000  C
  C227     1.0000 0.24850  0.46380  0.50910  Biso   1.000  C
  C228     1.0000 0.74850  0.96380  0.50910  Biso   1.000  C
  C229     1.0000 0.24850  0.53620  0.00910  Biso   1.000  C
  C230     1.0000 0.74850  0.03620  0.00910  Biso   1.000  C
  C231     1.0000 0.75150  0.53620  0.49090  Biso   1.000  C
  C232     1.0000 0.25150  0.03620  0.49090  Biso   1.000  C
  H161     1.0000 0.79960  0.45610  0.96950  Biso   1.000  H
  H162     1.0000 0.29960  0.95610  0.96950  Biso   1.000  H
  H163     1.0000 0.20040  0.45610  0.53050  Biso   1.000  H
  H164     1.0000 0.70040  0.95610  0.53050  Biso   1.000  H
  H165     1.0000 0.20040  0.54390  0.03050  Biso   1.000  H
  H166     1.0000 0.70040  0.04390  0.03050  Biso   1.000  H
  H167     1.0000 0.79960  0.54390  0.46950  Biso   1.000  H
  H168     1.0000 0.29960  0.04390  0.46950  Biso   1.000  H
  C233     1.0000 0.72830  0.42880  0.02890  Biso   1.000  C
  C234     1.0000 0.22830  0.92880  0.02890  Biso   1.000  C
  C235     1.0000 0.27170  0.42880  0.47110  Biso   1.000  C
  C236     1.0000 0.77170  0.92880  0.47110  Biso   1.000  C
  C237     1.0000 0.27170  0.57120  0.97110  Biso   1.000  C
  C238     1.0000 0.77170  0.07120  0.97110  Biso   1.000  C
  C239     1.0000 0.72830  0.57120  0.52890  Biso   1.000  C
  C240     1.0000 0.22830  0.07120  0.52890  Biso   1.000  C
  H169     1.0000 0.75820  0.39670  0.03260  Biso   1.000  H
  H170     1.0000 0.25820  0.89670  0.03260  Biso   1.000  H
  H171     1.0000 0.24180  0.39670  0.46740  Biso   1.000  H
  H172     1.0000 0.74180  0.89670  0.46740  Biso   1.000  H
  H173     1.0000 0.24180  0.60330  0.96740  Biso   1.000  H
  H174     1.0000 0.74180  0.10330  0.96740  Biso   1.000  H
  H175     1.0000 0.75820  0.60330  0.53260  Biso   1.000  H
  H176     1.0000 0.25820  0.10330  0.53260  Biso   1.000  H
  O217     1.0000 0.69440  0.17380  0.02840  Biso   1.000  O
  O218     1.0000 0.19440  0.67380  0.02840  Biso   1.000  O
  O219     1.0000 0.30560  0.17380  0.47160  Biso   1.000  O
  O220     1.0000 0.80560  0.67380  0.47160  Biso   1.000  O
  O221     1.0000 0.30560  0.82620  0.97160  Biso   1.000  O
  O222     1.0000 0.80560  0.32620  0.97160  Biso   1.000  O
  O223     1.0000 0.69440  0.82620  0.52840  Biso   1.000  O
  O224     1.0000 0.19440  0.32620  0.52840  Biso   1.000  O
  O225     1.0000 0.55260  0.24320  0.15830  Biso   1.000  O
  O226     1.0000 0.05260  0.74320  0.15830  Biso   1.000  O
  O227     1.0000 0.44740  0.24320  0.34170  Biso   1.000  O
  O228     1.0000 0.94740  0.74320  0.34170  Biso   1.000  O
  O229     1.0000 0.44740  0.75680  0.84170  Biso   1.000  O
  O230     1.0000 0.94740  0.25680  0.84170  Biso   1.000  O
  O231     1.0000 0.55260  0.75680  0.65830  Biso   1.000  O
  O232     1.0000 0.05260  0.25680  0.65830  Biso   1.000  O
