data_image0
_cell_length_a       39.131
_cell_length_b       13.082
_cell_length_c       28.121
_cell_angle_alpha    90
_cell_angle_beta     114.53
_cell_angle_gamma    90

_symmetry_space_group_name_H-M    "P 1"
_symmetry_int_tables_number       1

loop_
  _symmetry_equiv_pos_as_xyz
  'x, y, z'

loop_
  _atom_site_label
  _atom_site_occupancy
  _atom_site_fract_x
  _atom_site_fract_y
  _atom_site_fract_z
  _atom_site_thermal_displace_type
  _atom_site_B_iso_or_equiv
  _atom_site_type_symbol
  Cu1      1.0000 0.70358  0.70598  0.61077  Biso   1.000  Cu
  Cu2      1.0000 0.20358  0.20598  0.61077  Biso   1.000  Cu
  Cu3      1.0000 0.29642  0.70598  0.88923  Biso   1.000  Cu
  Cu4      1.0000 0.79642  0.20598  0.88923  Biso   1.000  Cu
  Cu5      1.0000 0.29642  0.29402  0.38923  Biso   1.000  Cu
  Cu6      1.0000 0.79642  0.79402  0.38923  Biso   1.000  Cu
  Cu7      1.0000 0.70358  0.29402  0.11077  Biso   1.000  Cu
  Cu8      1.0000 0.20358  0.79402  0.11077  Biso   1.000  Cu
  Cu9      1.0000 0.47553  0.54515  0.57776  Biso   1.000  Cu
  Cu10     1.0000 0.97553  0.04515  0.57776  Biso   1.000  Cu
  Cu11     1.0000 0.52447  0.54515  0.92224  Biso   1.000  Cu
  Cu12     1.0000 0.02447  0.04515  0.92224  Biso   1.000  Cu
  Cu13     1.0000 0.52447  0.45485  0.42224  Biso   1.000  Cu
  Cu14     1.0000 0.02447  0.95485  0.42224  Biso   1.000  Cu
  Cu15     1.0000 0.47553  0.45485  0.07776  Biso   1.000  Cu
  Cu16     1.0000 0.97553  0.95485  0.07776  Biso   1.000  Cu
  Mn1      1.0000 0.62389  0.55077  0.71462  Biso   1.000  Mn
  Mn2      1.0000 0.12389  0.05077  0.71462  Biso   1.000  Mn
  Mn3      1.0000 0.37611  0.55077  0.78538  Biso   1.000  Mn
  Mn4      1.0000 0.87611  0.05077  0.78538  Biso   1.000  Mn
  Mn5      1.0000 0.37611  0.44923  0.28538  Biso   1.000  Mn
  Mn6      1.0000 0.87611  0.94923  0.28538  Biso   1.000  Mn
  Mn7      1.0000 0.62389  0.44923  0.21462  Biso   1.000  Mn
  Mn8      1.0000 0.12389  0.94923  0.21462  Biso   1.000  Mn
  N1       1.0000 0.69816  0.73410  0.67550  Biso   1.000  N
  N2       1.0000 0.19816  0.23410  0.67550  Biso   1.000  N
  N3       1.0000 0.30184  0.73410  0.82450  Biso   1.000  N
  N4       1.0000 0.80184  0.23410  0.82450  Biso   1.000  N
  N5       1.0000 0.30184  0.26590  0.32450  Biso   1.000  N
  N6       1.0000 0.80184  0.76590  0.32450  Biso   1.000  N
  N7       1.0000 0.69816  0.26590  0.17550  Biso   1.000  N
  N8       1.0000 0.19816  0.76590  0.17550  Biso   1.000  N
  N9       1.0000 0.67878  0.57670  0.61080  Biso   1.000  N
  N10      1.0000 0.17878  0.07670  0.61080  Biso   1.000  N
  N11      1.0000 0.32122  0.57670  0.88920  Biso   1.000  N
  N12      1.0000 0.82122  0.07670  0.88920  Biso   1.000  N
  N13      1.0000 0.32122  0.42330  0.38920  Biso   1.000  N
  N14      1.0000 0.82122  0.92330  0.38920  Biso   1.000  N
  N15      1.0000 0.67878  0.42330  0.11080  Biso   1.000  N
  N16      1.0000 0.17878  0.92330  0.11080  Biso   1.000  N
  N17      1.0000 0.69785  0.68760  0.53850  Biso   1.000  N
  N18      1.0000 0.19785  0.18760  0.53850  Biso   1.000  N
  N19      1.0000 0.30215  0.68760  0.96150  Biso   1.000  N
  N20      1.0000 0.80215  0.18760  0.96150  Biso   1.000  N
  N21      1.0000 0.30215  0.31240  0.46150  Biso   1.000  N
  N22      1.0000 0.80215  0.81240  0.46150  Biso   1.000  N
  N23      1.0000 0.69785  0.31240  0.03850  Biso   1.000  N
  N24      1.0000 0.19785  0.81240  0.03850  Biso   1.000  N
  N25      1.0000 0.70679  0.85280  0.59800  Biso   1.000  N
  N26      1.0000 0.20679  0.35280  0.59800  Biso   1.000  N
  N27      1.0000 0.29321  0.85280  0.90200  Biso   1.000  N
  N28      1.0000 0.79321  0.35280  0.90200  Biso   1.000  N
  N29      1.0000 0.29321  0.14720  0.40200  Biso   1.000  N
  N30      1.0000 0.79321  0.64720  0.40200  Biso   1.000  N
  N31      1.0000 0.70679  0.14720  0.09800  Biso   1.000  N
  N32      1.0000 0.20679  0.64720  0.09800  Biso   1.000  N
  N33      1.0000 0.51389  0.64730  0.60790  Biso   1.000  N
  N34      1.0000 0.01389  0.14730  0.60790  Biso   1.000  N
  N35      1.0000 0.48611  0.64730  0.89210  Biso   1.000  N
  N36      1.0000 0.98611  0.14730  0.89210  Biso   1.000  N
  N37      1.0000 0.48611  0.35270  0.39210  Biso   1.000  N
  N38      1.0000 0.98611  0.85270  0.39210  Biso   1.000  N
  N39      1.0000 0.51389  0.35270  0.10790  Biso   1.000  N
  N40      1.0000 0.01389  0.85270  0.10790  Biso   1.000  N
  N41      1.0000 0.51044  0.45520  0.63120  Biso   1.000  N
  N42      1.0000 0.01044  0.95520  0.63120  Biso   1.000  N
  N43      1.0000 0.48956  0.45520  0.86880  Biso   1.000  N
  N44      1.0000 0.98956  0.95520  0.86880  Biso   1.000  N
  N45      1.0000 0.48956  0.54480  0.36880  Biso   1.000  N
  N46      1.0000 0.98956  0.04480  0.36880  Biso   1.000  N
  N47      1.0000 0.51044  0.54480  0.13120  Biso   1.000  N
  N48      1.0000 0.01044  0.04480  0.13120  Biso   1.000  N
  N49      1.0000 0.44685  0.42770  0.53650  Biso   1.000  N
  N50      1.0000 0.94685  0.92770  0.53650  Biso   1.000  N
  N51      1.0000 0.55315  0.42770  0.96350  Biso   1.000  N
  N52      1.0000 0.05315  0.92770  0.96350  Biso   1.000  N
  N53      1.0000 0.55315  0.57230  0.46350  Biso   1.000  N
  N54      1.0000 0.05315  0.07230  0.46350  Biso   1.000  N
  N55      1.0000 0.44685  0.57230  0.03650  Biso   1.000  N
  N56      1.0000 0.94685  0.07230  0.03650  Biso   1.000  N
  N57      1.0000 0.45707  0.61720  0.50950  Biso   1.000  N
  N58      1.0000 0.95707  0.11720  0.50950  Biso   1.000  N
  N59      1.0000 0.54293  0.61720  0.99050  Biso   1.000  N
  N60      1.0000 0.04293  0.11720  0.99050  Biso   1.000  N
  N61      1.0000 0.54293  0.38280  0.49050  Biso   1.000  N
  N62      1.0000 0.04293  0.88280  0.49050  Biso   1.000  N
  N63      1.0000 0.45707  0.38280  0.00950  Biso   1.000  N
  N64      1.0000 0.95707  0.88280  0.00950  Biso   1.000  N
  O1       1.0000 0.66444  0.66610  0.71870  Biso   1.000  O
  O2       1.0000 0.16444  0.16610  0.71870  Biso   1.000  O
  O3       1.0000 0.33556  0.66610  0.78130  Biso   1.000  O
  O4       1.0000 0.83556  0.16610  0.78130  Biso   1.000  O
  O5       1.0000 0.33556  0.33390  0.28130  Biso   1.000  O
  O6       1.0000 0.83556  0.83390  0.28130  Biso   1.000  O
  O7       1.0000 0.66444  0.33390  0.21870  Biso   1.000  O
  O8       1.0000 0.16444  0.83390  0.21870  Biso   1.000  O
  O9       1.0000 0.63873  0.52020  0.64669  Biso   1.000  O
  O10      1.0000 0.13873  0.02020  0.64669  Biso   1.000  O
  O11      1.0000 0.36127  0.52020  0.85331  Biso   1.000  O
  O12      1.0000 0.86127  0.02020  0.85331  Biso   1.000  O
  O13      1.0000 0.36127  0.47980  0.35331  Biso   1.000  O
  O14      1.0000 0.86127  0.97980  0.35331  Biso   1.000  O
  O15      1.0000 0.63873  0.47980  0.14669  Biso   1.000  O
  O16      1.0000 0.13873  0.97980  0.14669  Biso   1.000  O
  O17      1.0000 0.57747  0.65090  0.66320  Biso   1.000  O
  O18      1.0000 0.07747  0.15090  0.66320  Biso   1.000  O
  O19      1.0000 0.42253  0.65090  0.83680  Biso   1.000  O
  O20      1.0000 0.92253  0.15090  0.83680  Biso   1.000  O
  O21      1.0000 0.42253  0.34910  0.33680  Biso   1.000  O
  O22      1.0000 0.92253  0.84910  0.33680  Biso   1.000  O
  O23      1.0000 0.57747  0.34910  0.16320  Biso   1.000  O
  O24      1.0000 0.07747  0.84910  0.16320  Biso   1.000  O
  O25      1.0000 0.57433  0.45490  0.68390  Biso   1.000  O
  O26      1.0000 0.07433  0.95490  0.68390  Biso   1.000  O
  O27      1.0000 0.42567  0.45490  0.81610  Biso   1.000  O
  O28      1.0000 0.92567  0.95490  0.81610  Biso   1.000  O
  O29      1.0000 0.42567  0.54510  0.31610  Biso   1.000  O
  O30      1.0000 0.92567  0.04510  0.31610  Biso   1.000  O
  O31      1.0000 0.57433  0.54510  0.18390  Biso   1.000  O
  O32      1.0000 0.07433  0.04510  0.18390  Biso   1.000  O
  O33      1.0000 0.71055  0.59790  0.44570  Biso   1.000  O
  O34      1.0000 0.21055  0.09790  0.44570  Biso   1.000  O
  O35      1.0000 0.28945  0.59790  0.05430  Biso   1.000  O
  O36      1.0000 0.78945  0.09790  0.05430  Biso   1.000  O
  O37      1.0000 0.28945  0.40210  0.55430  Biso   1.000  O
  O38      1.0000 0.78945  0.90210  0.55430  Biso   1.000  O
  O39      1.0000 0.71055  0.40210  0.94570  Biso   1.000  O
  O40      1.0000 0.21055  0.90210  0.94570  Biso   1.000  O
  O41      1.0000 0.64999  0.63690  0.42100  Biso   1.000  O
  O42      1.0000 0.14999  0.13690  0.42100  Biso   1.000  O
  O43      1.0000 0.35001  0.63690  0.07900  Biso   1.000  O
  O44      1.0000 0.85001  0.13690  0.07900  Biso   1.000  O
  O45      1.0000 0.35001  0.36310  0.57900  Biso   1.000  O
  O46      1.0000 0.85001  0.86310  0.57900  Biso   1.000  O
  O47      1.0000 0.64999  0.36310  0.92100  Biso   1.000  O
  O48      1.0000 0.14999  0.86310  0.92100  Biso   1.000  O
  O49      1.0000 0.68670  0.08220  0.59620  Biso   1.000  O
  O50      1.0000 0.18670  0.58220  0.59620  Biso   1.000  O
  O51      1.0000 0.31330  0.08220  0.90380  Biso   1.000  O
  O52      1.0000 0.81330  0.58220  0.90380  Biso   1.000  O
  O53      1.0000 0.31330  0.91780  0.40380  Biso   1.000  O
  O54      1.0000 0.81330  0.41780  0.40380  Biso   1.000  O
  O55      1.0000 0.68670  0.91780  0.09620  Biso   1.000  O
  O56      1.0000 0.18670  0.41780  0.09620  Biso   1.000  O
  O57      1.0000 0.74780  0.06000  0.61830  Biso   1.000  O
  O58      1.0000 0.24780  0.56000  0.61830  Biso   1.000  O
  O59      1.0000 0.25220  0.06000  0.88170  Biso   1.000  O
  O60      1.0000 0.75220  0.56000  0.88170  Biso   1.000  O
  O61      1.0000 0.25220  0.94000  0.38170  Biso   1.000  O
  O62      1.0000 0.75220  0.44000  0.38170  Biso   1.000  O
  O63      1.0000 0.74780  0.94000  0.11830  Biso   1.000  O
  O64      1.0000 0.24780  0.44000  0.11830  Biso   1.000  O
  O65      1.0000 0.38900  0.24750  0.51000  Biso   1.000  O
  O66      1.0000 0.88900  0.74750  0.51000  Biso   1.000  O
  O67      1.0000 0.61100  0.24750  0.99000  Biso   1.000  O
  O68      1.0000 0.11100  0.74750  0.99000  Biso   1.000  O
  O69      1.0000 0.61100  0.75250  0.49000  Biso   1.000  O
  O70      1.0000 0.11100  0.25250  0.49000  Biso   1.000  O
  O71      1.0000 0.38900  0.75250  0.01000  Biso   1.000  O
  O72      1.0000 0.88900  0.25250  0.01000  Biso   1.000  O
  O73      1.0000 0.43728  0.20960  0.48860  Biso   1.000  O
  O74      1.0000 0.93728  0.70960  0.48860  Biso   1.000  O
  O75      1.0000 0.56272  0.20960  0.01140  Biso   1.000  O
  O76      1.0000 0.06272  0.70960  0.01140  Biso   1.000  O
  O77      1.0000 0.56272  0.79040  0.51140  Biso   1.000  O
  O78      1.0000 0.06272  0.29040  0.51140  Biso   1.000  O
  O79      1.0000 0.43728  0.79040  0.98860  Biso   1.000  O
  O80      1.0000 0.93728  0.29040  0.98860  Biso   1.000  O
  C1       1.0000 0.67590  0.66690  0.68360  Biso   1.000  C
  C2       1.0000 0.17590  0.16690  0.68360  Biso   1.000  C
  C3       1.0000 0.32410  0.66690  0.81640  Biso   1.000  C
  C4       1.0000 0.82410  0.16690  0.81640  Biso   1.000  C
  C5       1.0000 0.32410  0.33310  0.31640  Biso   1.000  C
  C6       1.0000 0.82410  0.83310  0.31640  Biso   1.000  C
  C7       1.0000 0.67590  0.33310  0.18360  Biso   1.000  C
  C8       1.0000 0.17590  0.83310  0.18360  Biso   1.000  C
  C9       1.0000 0.66290  0.57850  0.64390  Biso   1.000  C
  C10      1.0000 0.16290  0.07850  0.64390  Biso   1.000  C
  C11      1.0000 0.33710  0.57850  0.85610  Biso   1.000  C
  C12      1.0000 0.83710  0.07850  0.85610  Biso   1.000  C
  C13      1.0000 0.33710  0.42150  0.35610  Biso   1.000  C
  C14      1.0000 0.83710  0.92150  0.35610  Biso   1.000  C
  C15      1.0000 0.66290  0.42150  0.14390  Biso   1.000  C
  C16      1.0000 0.16290  0.92150  0.14390  Biso   1.000  C
  C17      1.0000 0.67350  0.49620  0.57540  Biso   1.000  C
  C18      1.0000 0.17350  0.99620  0.57540  Biso   1.000  C
  C19      1.0000 0.32650  0.49620  0.92460  Biso   1.000  C
  C20      1.0000 0.82650  0.99620  0.92460  Biso   1.000  C
  C21      1.0000 0.32650  0.50380  0.42460  Biso   1.000  C
  C22      1.0000 0.82650  0.00380  0.42460  Biso   1.000  C
  C23      1.0000 0.67350  0.50380  0.07540  Biso   1.000  C
  C24      1.0000 0.17350  0.00380  0.07540  Biso   1.000  C
  C25      1.0000 0.66640  0.39710  0.58800  Biso   1.000  C
  C26      1.0000 0.16640  0.89710  0.58800  Biso   1.000  C
  C27      1.0000 0.33360  0.39710  0.91200  Biso   1.000  C
  C28      1.0000 0.83360  0.89710  0.91200  Biso   1.000  C
  C29      1.0000 0.33360  0.60290  0.41200  Biso   1.000  C
  C30      1.0000 0.83360  0.10290  0.41200  Biso   1.000  C
  C31      1.0000 0.66640  0.60290  0.08800  Biso   1.000  C
  C32      1.0000 0.16640  0.10290  0.08800  Biso   1.000  C
  H1       1.0000 0.66560  0.38430  0.62000  Biso   1.000  H
  H2       1.0000 0.16560  0.88430  0.62000  Biso   1.000  H
  H3       1.0000 0.33440  0.38430  0.88000  Biso   1.000  H
  H4       1.0000 0.83440  0.88430  0.88000  Biso   1.000  H
  H5       1.0000 0.33440  0.61570  0.38000  Biso   1.000  H
  H6       1.0000 0.83440  0.11570  0.38000  Biso   1.000  H
  H7       1.0000 0.66560  0.61570  0.12000  Biso   1.000  H
  H8       1.0000 0.16560  0.11570  0.12000  Biso   1.000  H
  C33      1.0000 0.66050  0.31780  0.55240  Biso   1.000  C
  C34      1.0000 0.16050  0.81780  0.55240  Biso   1.000  C
  C35      1.0000 0.33950  0.31780  0.94760  Biso   1.000  C
  C36      1.0000 0.83950  0.81780  0.94760  Biso   1.000  C
  C37      1.0000 0.33950  0.68220  0.44760  Biso   1.000  C
  C38      1.0000 0.83950  0.18220  0.44760  Biso   1.000  C
  C39      1.0000 0.66050  0.68220  0.05240  Biso   1.000  C
  C40      1.0000 0.16050  0.18220  0.05240  Biso   1.000  C
  H9       1.0000 0.65560  0.25240  0.56100  Biso   1.000  H
  H10      1.0000 0.15560  0.75240  0.56100  Biso   1.000  H
  H11      1.0000 0.34440  0.25240  0.93900  Biso   1.000  H
  H12      1.0000 0.84440  0.75240  0.93900  Biso   1.000  H
  H13      1.0000 0.34440  0.74760  0.43900  Biso   1.000  H
  H14      1.0000 0.84440  0.24760  0.43900  Biso   1.000  H
  H15      1.0000 0.65560  0.74760  0.06100  Biso   1.000  H
  H16      1.0000 0.15560  0.24760  0.06100  Biso   1.000  H
  C41      1.0000 0.66170  0.33430  0.50460  Biso   1.000  C
  C42      1.0000 0.16170  0.83430  0.50460  Biso   1.000  C
  C43      1.0000 0.33830  0.33430  0.99540  Biso   1.000  C
  C44      1.0000 0.83830  0.83430  0.99540  Biso   1.000  C
  C45      1.0000 0.33830  0.66570  0.49540  Biso   1.000  C
  C46      1.0000 0.83830  0.16570  0.49540  Biso   1.000  C
  C47      1.0000 0.66170  0.66570  0.00460  Biso   1.000  C
  C48      1.0000 0.16170  0.16570  0.00460  Biso   1.000  C
  H17      1.0000 0.65710  0.28130  0.48070  Biso   1.000  H
  H18      1.0000 0.15710  0.78130  0.48070  Biso   1.000  H
  H19      1.0000 0.34290  0.28130  0.01930  Biso   1.000  H
  H20      1.0000 0.84290  0.78130  0.01930  Biso   1.000  H
  H21      1.0000 0.34290  0.71870  0.51930  Biso   1.000  H
  H22      1.0000 0.84290  0.21870  0.51930  Biso   1.000  H
  H23      1.0000 0.65710  0.71870  0.98070  Biso   1.000  H
  H24      1.0000 0.15710  0.21870  0.98070  Biso   1.000  H
  C49      1.0000 0.66970  0.43030  0.49350  Biso   1.000  C
  C50      1.0000 0.16970  0.93030  0.49350  Biso   1.000  C
  C51      1.0000 0.33030  0.43030  0.00650  Biso   1.000  C
  C52      1.0000 0.83030  0.93030  0.00650  Biso   1.000  C
  C53      1.0000 0.33030  0.56970  0.50650  Biso   1.000  C
  C54      1.0000 0.83030  0.06970  0.50650  Biso   1.000  C
  C55      1.0000 0.66970  0.56970  0.99350  Biso   1.000  C
  C56      1.0000 0.16970  0.06970  0.99350  Biso   1.000  C
  H25      1.0000 0.67090  0.44140  0.46160  Biso   1.000  H
  H26      1.0000 0.17090  0.94140  0.46160  Biso   1.000  H
  H27      1.0000 0.32910  0.44140  0.03840  Biso   1.000  H
  H28      1.0000 0.82910  0.94140  0.03840  Biso   1.000  H
  H29      1.0000 0.32910  0.55860  0.53840  Biso   1.000  H
  H30      1.0000 0.82910  0.05860  0.53840  Biso   1.000  H
  H31      1.0000 0.67090  0.55860  0.96160  Biso   1.000  H
  H32      1.0000 0.17090  0.05860  0.96160  Biso   1.000  H
  C57      1.0000 0.67615  0.51190  0.52720  Biso   1.000  C
  C58      1.0000 0.17615  0.01190  0.52720  Biso   1.000  C
  C59      1.0000 0.32385  0.51190  0.97280  Biso   1.000  C
  C60      1.0000 0.82385  0.01190  0.97280  Biso   1.000  C
  C61      1.0000 0.32385  0.48810  0.47280  Biso   1.000  C
  C62      1.0000 0.82385  0.98810  0.47280  Biso   1.000  C
  C63      1.0000 0.67615  0.48810  0.02720  Biso   1.000  C
  C64      1.0000 0.17615  0.98810  0.02720  Biso   1.000  C
  C65      1.0000 0.68526  0.60920  0.50920  Biso   1.000  C
  C66      1.0000 0.18526  0.10920  0.50920  Biso   1.000  C
  C67      1.0000 0.31474  0.60920  0.99080  Biso   1.000  C
  C68      1.0000 0.81474  0.10920  0.99080  Biso   1.000  C
  C69      1.0000 0.31474  0.39080  0.49080  Biso   1.000  C
  C70      1.0000 0.81474  0.89080  0.49080  Biso   1.000  C
  C71      1.0000 0.68526  0.39080  0.00920  Biso   1.000  C
  C72      1.0000 0.18526  0.89080  0.00920  Biso   1.000  C
  C73      1.0000 0.70940  0.78130  0.51990  Biso   1.000  C
  C74      1.0000 0.20940  0.28130  0.51990  Biso   1.000  C
  C75      1.0000 0.29060  0.78130  0.98010  Biso   1.000  C
  C76      1.0000 0.79060  0.28130  0.98010  Biso   1.000  C
  C77      1.0000 0.29060  0.21870  0.48010  Biso   1.000  C
  C78      1.0000 0.79060  0.71870  0.48010  Biso   1.000  C
  C79      1.0000 0.70940  0.21870  0.01990  Biso   1.000  C
  C80      1.0000 0.20940  0.71870  0.01990  Biso   1.000  C
  H33      1.0000 0.69740  0.78430  0.48200  Biso   1.000  H
  H34      1.0000 0.19740  0.28430  0.48200  Biso   1.000  H
  H35      1.0000 0.30260  0.78430  0.01800  Biso   1.000  H
  H36      1.0000 0.80260  0.28430  0.01800  Biso   1.000  H
  H37      1.0000 0.30260  0.21570  0.51800  Biso   1.000  H
  H38      1.0000 0.80260  0.71570  0.51800  Biso   1.000  H
  H39      1.0000 0.69740  0.21570  0.98200  Biso   1.000  H
  H40      1.0000 0.19740  0.71570  0.98200  Biso   1.000  H
  H41      1.0000 0.73640  0.78140  0.53080  Biso   1.000  H
  H42      1.0000 0.23640  0.28140  0.53080  Biso   1.000  H
  H43      1.0000 0.26360  0.78140  0.96920  Biso   1.000  H
  H44      1.0000 0.76360  0.28140  0.96920  Biso   1.000  H
  H45      1.0000 0.26360  0.21860  0.46920  Biso   1.000  H
  H46      1.0000 0.76360  0.71860  0.46920  Biso   1.000  H
  H47      1.0000 0.73640  0.21860  0.03080  Biso   1.000  H
  H48      1.0000 0.23640  0.71860  0.03080  Biso   1.000  H
  C81      1.0000 0.69780  0.87370  0.54320  Biso   1.000  C
  C82      1.0000 0.19780  0.37370  0.54320  Biso   1.000  C
  C83      1.0000 0.30220  0.87370  0.95680  Biso   1.000  C
  C84      1.0000 0.80220  0.37370  0.95680  Biso   1.000  C
  C85      1.0000 0.30220  0.12630  0.45680  Biso   1.000  C
  C86      1.0000 0.80220  0.62630  0.45680  Biso   1.000  C
  C87      1.0000 0.69780  0.12630  0.04320  Biso   1.000  C
  C88      1.0000 0.19780  0.62630  0.04320  Biso   1.000  C
  H49      1.0000 0.71100  0.93420  0.54020  Biso   1.000  H
  H50      1.0000 0.21100  0.43420  0.54020  Biso   1.000  H
  H51      1.0000 0.28900  0.93420  0.95980  Biso   1.000  H
  H52      1.0000 0.78900  0.43420  0.95980  Biso   1.000  H
  H53      1.0000 0.28900  0.06580  0.45980  Biso   1.000  H
  H54      1.0000 0.78900  0.56580  0.45980  Biso   1.000  H
  H55      1.0000 0.71100  0.06580  0.04020  Biso   1.000  H
  H56      1.0000 0.21100  0.56580  0.04020  Biso   1.000  H
  H57      1.0000 0.67100  0.88580  0.52430  Biso   1.000  H
  H58      1.0000 0.17100  0.38580  0.52430  Biso   1.000  H
  H59      1.0000 0.32900  0.88580  0.97570  Biso   1.000  H
  H60      1.0000 0.82900  0.38580  0.97570  Biso   1.000  H
  H61      1.0000 0.32900  0.11420  0.47570  Biso   1.000  H
  H62      1.0000 0.82900  0.61420  0.47570  Biso   1.000  H
  H63      1.0000 0.67100  0.11420  0.02430  Biso   1.000  H
  H64      1.0000 0.17100  0.61420  0.02430  Biso   1.000  H
  C89      1.0000 0.71460  0.92370  0.63190  Biso   1.000  C
  C90      1.0000 0.21460  0.42370  0.63190  Biso   1.000  C
  C91      1.0000 0.28540  0.92370  0.86810  Biso   1.000  C
  C92      1.0000 0.78540  0.42370  0.86810  Biso   1.000  C
  C93      1.0000 0.28540  0.07630  0.36810  Biso   1.000  C
  C94      1.0000 0.78540  0.57630  0.36810  Biso   1.000  C
  C95      1.0000 0.71460  0.07630  0.13190  Biso   1.000  C
  C96      1.0000 0.21460  0.57630  0.13190  Biso   1.000  C
  C97      1.0000 0.72170  0.91060  0.68700  Biso   1.000  C
  C98      1.0000 0.22170  0.41060  0.68700  Biso   1.000  C
  C99      1.0000 0.27830  0.91060  0.81300  Biso   1.000  C
  C100     1.0000 0.77830  0.41060  0.81300  Biso   1.000  C
  C101     1.0000 0.27830  0.08940  0.31300  Biso   1.000  C
  C102     1.0000 0.77830  0.58940  0.31300  Biso   1.000  C
  C103     1.0000 0.72170  0.08940  0.18700  Biso   1.000  C
  C104     1.0000 0.22170  0.58940  0.18700  Biso   1.000  C
  C105     1.0000 0.73680  0.99140  0.72280  Biso   1.000  C
  C106     1.0000 0.23680  0.49140  0.72280  Biso   1.000  C
  C107     1.0000 0.26320  0.99140  0.77720  Biso   1.000  C
  C108     1.0000 0.76320  0.49140  0.77720  Biso   1.000  C
  C109     1.0000 0.26320  0.00860  0.27720  Biso   1.000  C
  C110     1.0000 0.76320  0.50860  0.27720  Biso   1.000  C
  C111     1.0000 0.73680  0.00860  0.22280  Biso   1.000  C
  C112     1.0000 0.23680  0.50860  0.22280  Biso   1.000  C
  H65      1.0000 0.74120  0.05340  0.71010  Biso   1.000  H
  H66      1.0000 0.24120  0.55340  0.71010  Biso   1.000  H
  H67      1.0000 0.25880  0.05340  0.78990  Biso   1.000  H
  H68      1.0000 0.75880  0.55340  0.78990  Biso   1.000  H
  H69      1.0000 0.25880  0.94660  0.28990  Biso   1.000  H
  H70      1.0000 0.75880  0.44660  0.28990  Biso   1.000  H
  H71      1.0000 0.74120  0.94660  0.21010  Biso   1.000  H
  H72      1.0000 0.24120  0.44660  0.21010  Biso   1.000  H
  C113     1.0000 0.74530  0.98430  0.77450  Biso   1.000  C
  C114     1.0000 0.24530  0.48430  0.77450  Biso   1.000  C
  C115     1.0000 0.25470  0.98430  0.72550  Biso   1.000  C
  C116     1.0000 0.75470  0.48430  0.72550  Biso   1.000  C
  C117     1.0000 0.25470  0.01570  0.22550  Biso   1.000  C
  C118     1.0000 0.75470  0.51570  0.22550  Biso   1.000  C
  C119     1.0000 0.74530  0.01570  0.27450  Biso   1.000  C
  C120     1.0000 0.24530  0.51570  0.27450  Biso   1.000  C
  H73      1.0000 0.75540  0.03980  0.79660  Biso   1.000  H
  H74      1.0000 0.25540  0.53980  0.79660  Biso   1.000  H
  H75      1.0000 0.24460  0.03980  0.70340  Biso   1.000  H
  H76      1.0000 0.74460  0.53980  0.70340  Biso   1.000  H
  H77      1.0000 0.24460  0.96020  0.20340  Biso   1.000  H
  H78      1.0000 0.74460  0.46020  0.20340  Biso   1.000  H
  H79      1.0000 0.75540  0.96020  0.29660  Biso   1.000  H
  H80      1.0000 0.25540  0.46020  0.29660  Biso   1.000  H
  C121     1.0000 0.73860  0.89450  0.79350  Biso   1.000  C
  C122     1.0000 0.23860  0.39450  0.79350  Biso   1.000  C
  C123     1.0000 0.26140  0.89450  0.70650  Biso   1.000  C
  C124     1.0000 0.76140  0.39450  0.70650  Biso   1.000  C
  C125     1.0000 0.26140  0.10550  0.20650  Biso   1.000  C
  C126     1.0000 0.76140  0.60550  0.20650  Biso   1.000  C
  C127     1.0000 0.73860  0.10550  0.29350  Biso   1.000  C
  C128     1.0000 0.23860  0.60550  0.29350  Biso   1.000  C
  H81      1.0000 0.74470  0.88820  0.82900  Biso   1.000  H
  H82      1.0000 0.24470  0.38820  0.82900  Biso   1.000  H
  H83      1.0000 0.25530  0.88820  0.67100  Biso   1.000  H
  H84      1.0000 0.75530  0.38820  0.67100  Biso   1.000  H
  H85      1.0000 0.25530  0.11180  0.17100  Biso   1.000  H
  H86      1.0000 0.75530  0.61180  0.17100  Biso   1.000  H
  H87      1.0000 0.74470  0.11180  0.32900  Biso   1.000  H
  H88      1.0000 0.24470  0.61180  0.32900  Biso   1.000  H
  C129     1.0000 0.72320  0.81440  0.76140  Biso   1.000  C
  C130     1.0000 0.22320  0.31440  0.76140  Biso   1.000  C
  C131     1.0000 0.27680  0.81440  0.73860  Biso   1.000  C
  C132     1.0000 0.77680  0.31440  0.73860  Biso   1.000  C
  C133     1.0000 0.27680  0.18560  0.23860  Biso   1.000  C
  C134     1.0000 0.77680  0.68560  0.23860  Biso   1.000  C
  C135     1.0000 0.72320  0.18560  0.26140  Biso   1.000  C
  C136     1.0000 0.22320  0.68560  0.26140  Biso   1.000  C
  H89      1.0000 0.71840  0.75450  0.77550  Biso   1.000  H
  H90      1.0000 0.21840  0.25450  0.77550  Biso   1.000  H
  H91      1.0000 0.28160  0.75450  0.72450  Biso   1.000  H
  H92      1.0000 0.78160  0.25450  0.72450  Biso   1.000  H
  H93      1.0000 0.28160  0.24550  0.22450  Biso   1.000  H
  H94      1.0000 0.78160  0.74550  0.22450  Biso   1.000  H
  H95      1.0000 0.71840  0.24550  0.27550  Biso   1.000  H
  H96      1.0000 0.21840  0.74550  0.27550  Biso   1.000  H
  C137     1.0000 0.71420  0.81830  0.70860  Biso   1.000  C
  C138     1.0000 0.21420  0.31830  0.70860  Biso   1.000  C
  C139     1.0000 0.28580  0.81830  0.79140  Biso   1.000  C
  C140     1.0000 0.78580  0.31830  0.79140  Biso   1.000  C
  C141     1.0000 0.28580  0.18170  0.29140  Biso   1.000  C
  C142     1.0000 0.78580  0.68170  0.29140  Biso   1.000  C
  C143     1.0000 0.71420  0.18170  0.20860  Biso   1.000  C
  C144     1.0000 0.21420  0.68170  0.20860  Biso   1.000  C
  C145     1.0000 0.68380  0.61320  0.45490  Biso   1.000  C
  C146     1.0000 0.18380  0.11320  0.45490  Biso   1.000  C
  C147     1.0000 0.31620  0.61320  0.04510  Biso   1.000  C
  C148     1.0000 0.81620  0.11320  0.04510  Biso   1.000  C
  C149     1.0000 0.31620  0.38680  0.54510  Biso   1.000  C
  C150     1.0000 0.81620  0.88680  0.54510  Biso   1.000  C
  C151     1.0000 0.68380  0.38680  0.95490  Biso   1.000  C
  C152     1.0000 0.18380  0.88680  0.95490  Biso   1.000  C
  C153     1.0000 0.64630  0.64780  0.36700  Biso   1.000  C
  C154     1.0000 0.14630  0.14780  0.36700  Biso   1.000  C
  C155     1.0000 0.35370  0.64780  0.13300  Biso   1.000  C
  C156     1.0000 0.85370  0.14780  0.13300  Biso   1.000  C
  C157     1.0000 0.35370  0.35220  0.63300  Biso   1.000  C
  C158     1.0000 0.85370  0.85220  0.63300  Biso   1.000  C
  C159     1.0000 0.64630  0.35220  0.86700  Biso   1.000  C
  C160     1.0000 0.14630  0.85220  0.86700  Biso   1.000  C
  H97      1.0000 0.65140  0.58300  0.35450  Biso   1.000  H
  H98      1.0000 0.15140  0.08300  0.35450  Biso   1.000  H
  H99      1.0000 0.34860  0.58300  0.14550  Biso   1.000  H
  H100     1.0000 0.84860  0.08300  0.14550  Biso   1.000  H
  H101     1.0000 0.34860  0.41700  0.64550  Biso   1.000  H
  H102     1.0000 0.84860  0.91700  0.64550  Biso   1.000  H
  H103     1.0000 0.65140  0.41700  0.85450  Biso   1.000  H
  H104     1.0000 0.15140  0.91700  0.85450  Biso   1.000  H
  H105     1.0000 0.66420  0.69780  0.36570  Biso   1.000  H
  H106     1.0000 0.16420  0.19780  0.36570  Biso   1.000  H
  H107     1.0000 0.33580  0.69780  0.13430  Biso   1.000  H
  H108     1.0000 0.83580  0.19780  0.13430  Biso   1.000  H
  H109     1.0000 0.33580  0.30220  0.63430  Biso   1.000  H
  H110     1.0000 0.83580  0.80220  0.63430  Biso   1.000  H
  H111     1.0000 0.66420  0.30220  0.86570  Biso   1.000  H
  H112     1.0000 0.16420  0.80220  0.86570  Biso   1.000  H
  C161     1.0000 0.60680  0.68200  0.33330  Biso   1.000  C
  C162     1.0000 0.10680  0.18200  0.33330  Biso   1.000  C
  C163     1.0000 0.39320  0.68200  0.16670  Biso   1.000  C
  C164     1.0000 0.89320  0.18200  0.16670  Biso   1.000  C
  C165     1.0000 0.39320  0.31800  0.66670  Biso   1.000  C
  C166     1.0000 0.89320  0.81800  0.66670  Biso   1.000  C
  C167     1.0000 0.60680  0.31800  0.83330  Biso   1.000  C
  C168     1.0000 0.10680  0.81800  0.83330  Biso   1.000  C
  H113     1.0000 0.58940  0.63070  0.33360  Biso   1.000  H
  H114     1.0000 0.08940  0.13070  0.33360  Biso   1.000  H
  H115     1.0000 0.41060  0.63070  0.16640  Biso   1.000  H
  H116     1.0000 0.91060  0.13070  0.16640  Biso   1.000  H
  H117     1.0000 0.41060  0.36930  0.66640  Biso   1.000  H
  H118     1.0000 0.91060  0.86930  0.66640  Biso   1.000  H
  H119     1.0000 0.58940  0.36930  0.83360  Biso   1.000  H
  H120     1.0000 0.08940  0.86930  0.83360  Biso   1.000  H
  H121     1.0000 0.60420  0.69220  0.29810  Biso   1.000  H
  H122     1.0000 0.10420  0.19220  0.29810  Biso   1.000  H
  H123     1.0000 0.39580  0.69220  0.20190  Biso   1.000  H
  H124     1.0000 0.89580  0.19220  0.20190  Biso   1.000  H
  H125     1.0000 0.39580  0.30780  0.70190  Biso   1.000  H
  H126     1.0000 0.89580  0.80780  0.70190  Biso   1.000  H
  H127     1.0000 0.60420  0.30780  0.79810  Biso   1.000  H
  H128     1.0000 0.10420  0.80780  0.79810  Biso   1.000  H
  H129     1.0000 0.60170  0.74500  0.34670  Biso   1.000  H
  H130     1.0000 0.10170  0.24500  0.34670  Biso   1.000  H
  H131     1.0000 0.39830  0.74500  0.15330  Biso   1.000  H
  H132     1.0000 0.89830  0.24500  0.15330  Biso   1.000  H
  H133     1.0000 0.39830  0.25500  0.65330  Biso   1.000  H
  H134     1.0000 0.89830  0.75500  0.65330  Biso   1.000  H
  H135     1.0000 0.60170  0.25500  0.84670  Biso   1.000  H
  H136     1.0000 0.10170  0.75500  0.84670  Biso   1.000  H
  C169     1.0000 0.71450  0.03200  0.61370  Biso   1.000  C
  C170     1.0000 0.21450  0.53200  0.61370  Biso   1.000  C
  C171     1.0000 0.28550  0.03200  0.88630  Biso   1.000  C
  C172     1.0000 0.78550  0.53200  0.88630  Biso   1.000  C
  C173     1.0000 0.28550  0.96800  0.38630  Biso   1.000  C
  C174     1.0000 0.78550  0.46800  0.38630  Biso   1.000  C
  C175     1.0000 0.71450  0.96800  0.11370  Biso   1.000  C
  C176     1.0000 0.21450  0.46800  0.11370  Biso   1.000  C
  C177     1.0000 0.74890  0.16350  0.59860  Biso   1.000  C
  C178     1.0000 0.24890  0.66350  0.59860  Biso   1.000  C
  C179     1.0000 0.25110  0.16350  0.90140  Biso   1.000  C
  C180     1.0000 0.75110  0.66350  0.90140  Biso   1.000  C
  C181     1.0000 0.25110  0.83650  0.40140  Biso   1.000  C
  C182     1.0000 0.75110  0.33650  0.40140  Biso   1.000  C
  C183     1.0000 0.74890  0.83650  0.09860  Biso   1.000  C
  C184     1.0000 0.24890  0.33650  0.09860  Biso   1.000  C
  H137     1.0000 0.73880  0.21320  0.61490  Biso   1.000  H
  H138     1.0000 0.23880  0.71320  0.61490  Biso   1.000  H
  H139     1.0000 0.26120  0.21320  0.88510  Biso   1.000  H
  H140     1.0000 0.76120  0.71320  0.88510  Biso   1.000  H
  H141     1.0000 0.26120  0.78680  0.38510  Biso   1.000  H
  H142     1.0000 0.76120  0.28680  0.38510  Biso   1.000  H
  H143     1.0000 0.73880  0.78680  0.11490  Biso   1.000  H
  H144     1.0000 0.23880  0.28680  0.11490  Biso   1.000  H
  H145     1.0000 0.73470  0.16660  0.56100  Biso   1.000  H
  H146     1.0000 0.23470  0.66660  0.56100  Biso   1.000  H
  H147     1.0000 0.26530  0.16660  0.93900  Biso   1.000  H
  H148     1.0000 0.76530  0.66660  0.93900  Biso   1.000  H
  H149     1.0000 0.26530  0.83340  0.43900  Biso   1.000  H
  H150     1.0000 0.76530  0.33340  0.43900  Biso   1.000  H
  H151     1.0000 0.73470  0.83340  0.06100  Biso   1.000  H
  H152     1.0000 0.23470  0.33340  0.06100  Biso   1.000  H
  C185     1.0000 0.78970  0.18280  0.61300  Biso   1.000  C
  C186     1.0000 0.28970  0.68280  0.61300  Biso   1.000  C
  C187     1.0000 0.21030  0.18280  0.88700  Biso   1.000  C
  C188     1.0000 0.71030  0.68280  0.88700  Biso   1.000  C
  C189     1.0000 0.21030  0.81720  0.38700  Biso   1.000  C
  C190     1.0000 0.71030  0.31720  0.38700  Biso   1.000  C
  C191     1.0000 0.78970  0.81720  0.11300  Biso   1.000  C
  C192     1.0000 0.28970  0.31720  0.11300  Biso   1.000  C
  H153     1.0000 0.80430  0.12840  0.63490  Biso   1.000  H
  H154     1.0000 0.30430  0.62840  0.63490  Biso   1.000  H
  H155     1.0000 0.19570  0.12840  0.86510  Biso   1.000  H
  H156     1.0000 0.69570  0.62840  0.86510  Biso   1.000  H
  H157     1.0000 0.19570  0.87160  0.36510  Biso   1.000  H
  H158     1.0000 0.69570  0.37160  0.36510  Biso   1.000  H
  H159     1.0000 0.80430  0.87160  0.13490  Biso   1.000  H
  H160     1.0000 0.30430  0.37160  0.13490  Biso   1.000  H
  H161     1.0000 0.79690  0.24650  0.63150  Biso   1.000  H
  H162     1.0000 0.29690  0.74650  0.63150  Biso   1.000  H
  H163     1.0000 0.20310  0.24650  0.86850  Biso   1.000  H
  H164     1.0000 0.70310  0.74650  0.86850  Biso   1.000  H
  H165     1.0000 0.20310  0.75350  0.36850  Biso   1.000  H
  H166     1.0000 0.70310  0.25350  0.36850  Biso   1.000  H
  H167     1.0000 0.79690  0.75350  0.13150  Biso   1.000  H
  H168     1.0000 0.29690  0.25350  0.13150  Biso   1.000  H
  H169     1.0000 0.79410  0.18600  0.58190  Biso   1.000  H
  H170     1.0000 0.29410  0.68600  0.58190  Biso   1.000  H
  H171     1.0000 0.20590  0.18600  0.91810  Biso   1.000  H
  H172     1.0000 0.70590  0.68600  0.91810  Biso   1.000  H
  H173     1.0000 0.20590  0.81400  0.41810  Biso   1.000  H
  H174     1.0000 0.70590  0.31400  0.41810  Biso   1.000  H
  H175     1.0000 0.79410  0.81400  0.08190  Biso   1.000  H
  H176     1.0000 0.29410  0.31400  0.08190  Biso   1.000  H
  C193     1.0000 0.54590  0.60880  0.64120  Biso   1.000  C
  C194     1.0000 0.04590  0.10880  0.64120  Biso   1.000  C
  C195     1.0000 0.45410  0.60880  0.85880  Biso   1.000  C
  C196     1.0000 0.95410  0.10880  0.85880  Biso   1.000  C
  C197     1.0000 0.45410  0.39120  0.35880  Biso   1.000  C
  C198     1.0000 0.95410  0.89120  0.35880  Biso   1.000  C
  C199     1.0000 0.54590  0.39120  0.14120  Biso   1.000  C
  C200     1.0000 0.04590  0.89120  0.14120  Biso   1.000  C
  C201     1.0000 0.54370  0.49570  0.65340  Biso   1.000  C
  C202     1.0000 0.04370  0.99570  0.65340  Biso   1.000  C
  C203     1.0000 0.45630  0.49570  0.84660  Biso   1.000  C
  C204     1.0000 0.95630  0.99570  0.84660  Biso   1.000  C
  C205     1.0000 0.45630  0.50430  0.34660  Biso   1.000  C
  C206     1.0000 0.95630  0.00430  0.34660  Biso   1.000  C
  C207     1.0000 0.54370  0.50430  0.15340  Biso   1.000  C
  C208     1.0000 0.04370  0.00430  0.15340  Biso   1.000  C
  C209     1.0000 0.50220  0.35620  0.64230  Biso   1.000  C
  C210     1.0000 0.00220  0.85620  0.64230  Biso   1.000  C
  C211     1.0000 0.49780  0.35620  0.85770  Biso   1.000  C
  C212     1.0000 0.99780  0.85620  0.85770  Biso   1.000  C
  C213     1.0000 0.49780  0.64380  0.35770  Biso   1.000  C
  C214     1.0000 0.99780  0.14380  0.35770  Biso   1.000  C
  C215     1.0000 0.50220  0.64380  0.14230  Biso   1.000  C
  C216     1.0000 0.00220  0.14380  0.14230  Biso   1.000  C
  C217     1.0000 0.52320  0.30810  0.68940  Biso   1.000  C
  C218     1.0000 0.02320  0.80810  0.68940  Biso   1.000  C
  C219     1.0000 0.47680  0.30810  0.81060  Biso   1.000  C
  C220     1.0000 0.97680  0.80810  0.81060  Biso   1.000  C
  C221     1.0000 0.47680  0.69190  0.31060  Biso   1.000  C
  C222     1.0000 0.97680  0.19190  0.31060  Biso   1.000  C
  C223     1.0000 0.52320  0.69190  0.18940  Biso   1.000  C
  C224     1.0000 0.02320  0.19190  0.18940  Biso   1.000  C
  H177     1.0000 0.54350  0.34230  0.71440  Biso   1.000  H
  H178     1.0000 0.04350  0.84230  0.71440  Biso   1.000  H
  H179     1.0000 0.45650  0.34230  0.78560  Biso   1.000  H
  H180     1.0000 0.95650  0.84230  0.78560  Biso   1.000  H
  H181     1.0000 0.45650  0.65770  0.28560  Biso   1.000  H
  H182     1.0000 0.95650  0.15770  0.28560  Biso   1.000  H
  H183     1.0000 0.54350  0.65770  0.21440  Biso   1.000  H
  H184     1.0000 0.04350  0.15770  0.21440  Biso   1.000  H
  C225     1.0000 0.51480  0.21130  0.70010  Biso   1.000  C
  C226     1.0000 0.01480  0.71130  0.70010  Biso   1.000  C
  C227     1.0000 0.48520  0.21130  0.79990  Biso   1.000  C
  C228     1.0000 0.98520  0.71130  0.79990  Biso   1.000  C
  C229     1.0000 0.48520  0.78870  0.29990  Biso   1.000  C
  C230     1.0000 0.98520  0.28870  0.29990  Biso   1.000  C
  C231     1.0000 0.51480  0.78870  0.20010  Biso   1.000  C
  C232     1.0000 0.01480  0.28870  0.20010  Biso   1.000  C
  H185     1.0000 0.52970  0.18140  0.73200  Biso   1.000  H
  H186     1.0000 0.02970  0.68140  0.73200  Biso   1.000  H
  H187     1.0000 0.47030  0.18140  0.76800  Biso   1.000  H
  H188     1.0000 0.97030  0.68140  0.76800  Biso   1.000  H
  H189     1.0000 0.47030  0.81860  0.26800  Biso   1.000  H
  H190     1.0000 0.97030  0.31860  0.26800  Biso   1.000  H
  H191     1.0000 0.52970  0.81860  0.23200  Biso   1.000  H
  H192     1.0000 0.02970  0.31860  0.23200  Biso   1.000  H
  C233     1.0000 0.48490  0.15790  0.66490  Biso   1.000  C
  C234     1.0000 0.98490  0.65790  0.66490  Biso   1.000  C
  C235     1.0000 0.51510  0.15790  0.83510  Biso   1.000  C
  C236     1.0000 0.01510  0.65790  0.83510  Biso   1.000  C
  C237     1.0000 0.51510  0.84210  0.33510  Biso   1.000  C
  C238     1.0000 0.01510  0.34210  0.33510  Biso   1.000  C
  C239     1.0000 0.48490  0.84210  0.16490  Biso   1.000  C
  C240     1.0000 0.98490  0.34210  0.16490  Biso   1.000  C
  H193     1.0000 0.47920  0.09290  0.67300  Biso   1.000  H
  H194     1.0000 0.97920  0.59290  0.67300  Biso   1.000  H
  H195     1.0000 0.52080  0.09290  0.82700  Biso   1.000  H
  H196     1.0000 0.02080  0.59290  0.82700  Biso   1.000  H
  H197     1.0000 0.52080  0.90710  0.32700  Biso   1.000  H
  H198     1.0000 0.02080  0.40710  0.32700  Biso   1.000  H
  H199     1.0000 0.47920  0.90710  0.17300  Biso   1.000  H
  H200     1.0000 0.97920  0.40710  0.17300  Biso   1.000  H
  C241     1.0000 0.46360  0.20130  0.61780  Biso   1.000  C
  C242     1.0000 0.96360  0.70130  0.61780  Biso   1.000  C
  C243     1.0000 0.53640  0.20130  0.88220  Biso   1.000  C
  C244     1.0000 0.03640  0.70130  0.88220  Biso   1.000  C
  C245     1.0000 0.53640  0.79870  0.38220  Biso   1.000  C
  C246     1.0000 0.03640  0.29870  0.38220  Biso   1.000  C
  C247     1.0000 0.46360  0.79870  0.11780  Biso   1.000  C
  C248     1.0000 0.96360  0.29870  0.11780  Biso   1.000  C
  H201     1.0000 0.44360  0.16460  0.59360  Biso   1.000  H
  H202     1.0000 0.94360  0.66460  0.59360  Biso   1.000  H
  H203     1.0000 0.55640  0.16460  0.90640  Biso   1.000  H
  H204     1.0000 0.05640  0.66460  0.90640  Biso   1.000  H
  H205     1.0000 0.55640  0.83540  0.40640  Biso   1.000  H
  H206     1.0000 0.05640  0.33540  0.40640  Biso   1.000  H
  H207     1.0000 0.44360  0.83540  0.09360  Biso   1.000  H
  H208     1.0000 0.94360  0.33540  0.09360  Biso   1.000  H
  C249     1.0000 0.47120  0.30030  0.60490  Biso   1.000  C
  C250     1.0000 0.97120  0.80030  0.60490  Biso   1.000  C
  C251     1.0000 0.52880  0.30030  0.89510  Biso   1.000  C
  C252     1.0000 0.02880  0.80030  0.89510  Biso   1.000  C
  C253     1.0000 0.52880  0.69970  0.39510  Biso   1.000  C
  C254     1.0000 0.02880  0.19970  0.39510  Biso   1.000  C
  C255     1.0000 0.47120  0.69970  0.10490  Biso   1.000  C
  C256     1.0000 0.97120  0.19970  0.10490  Biso   1.000  C
  C257     1.0000 0.44760  0.33270  0.55370  Biso   1.000  C
  C258     1.0000 0.94760  0.83270  0.55370  Biso   1.000  C
  C259     1.0000 0.55240  0.33270  0.94630  Biso   1.000  C
  C260     1.0000 0.05240  0.83270  0.94630  Biso   1.000  C
  C261     1.0000 0.55240  0.66730  0.44630  Biso   1.000  C
  C262     1.0000 0.05240  0.16730  0.44630  Biso   1.000  C
  C263     1.0000 0.44760  0.66730  0.05370  Biso   1.000  C
  C264     1.0000 0.94760  0.16730  0.05370  Biso   1.000  C
  C265     1.0000 0.42000  0.46360  0.48310  Biso   1.000  C
  C266     1.0000 0.92000  0.96360  0.48310  Biso   1.000  C
  C267     1.0000 0.58000  0.46360  0.01690  Biso   1.000  C
  C268     1.0000 0.08000  0.96360  0.01690  Biso   1.000  C
  C269     1.0000 0.58000  0.53640  0.51690  Biso   1.000  C
  C270     1.0000 0.08000  0.03640  0.51690  Biso   1.000  C
  C271     1.0000 0.42000  0.53640  0.98310  Biso   1.000  C
  C272     1.0000 0.92000  0.03640  0.98310  Biso   1.000  C
  H209     1.0000 0.41270  0.40660  0.45880  Biso   1.000  H
  H210     1.0000 0.91270  0.90660  0.45880  Biso   1.000  H
  H211     1.0000 0.58730  0.40660  0.04120  Biso   1.000  H
  H212     1.0000 0.08730  0.90660  0.04120  Biso   1.000  H
  H213     1.0000 0.58730  0.59340  0.54120  Biso   1.000  H
  H214     1.0000 0.08730  0.09340  0.54120  Biso   1.000  H
  H215     1.0000 0.41270  0.59340  0.95880  Biso   1.000  H
  H216     1.0000 0.91270  0.09340  0.95880  Biso   1.000  H
  H217     1.0000 0.39750  0.49130  0.48470  Biso   1.000  H
  H218     1.0000 0.89750  0.99130  0.48470  Biso   1.000  H
  H219     1.0000 0.60250  0.49130  0.01530  Biso   1.000  H
  H220     1.0000 0.10250  0.99130  0.01530  Biso   1.000  H
  H221     1.0000 0.60250  0.50870  0.51530  Biso   1.000  H
  H222     1.0000 0.10250  0.00870  0.51530  Biso   1.000  H
  H223     1.0000 0.39750  0.50870  0.98470  Biso   1.000  H
  H224     1.0000 0.89750  0.00870  0.98470  Biso   1.000  H
  C273     1.0000 0.43890  0.54450  0.46460  Biso   1.000  C
  C274     1.0000 0.93890  0.04450  0.46460  Biso   1.000  C
  C275     1.0000 0.56110  0.54450  0.03540  Biso   1.000  C
  C276     1.0000 0.06110  0.04450  0.03540  Biso   1.000  C
  C277     1.0000 0.56110  0.45550  0.53540  Biso   1.000  C
  C278     1.0000 0.06110  0.95550  0.53540  Biso   1.000  C
  C279     1.0000 0.43890  0.45550  0.96460  Biso   1.000  C
  C280     1.0000 0.93890  0.95550  0.96460  Biso   1.000  C
  H225     1.0000 0.42060  0.58000  0.43450  Biso   1.000  H
  H226     1.0000 0.92060  0.08000  0.43450  Biso   1.000  H
  H227     1.0000 0.57940  0.58000  0.06550  Biso   1.000  H
  H228     1.0000 0.07940  0.08000  0.06550  Biso   1.000  H
  H229     1.0000 0.57940  0.42000  0.56550  Biso   1.000  H
  H230     1.0000 0.07940  0.92000  0.56550  Biso   1.000  H
  H231     1.0000 0.42060  0.42000  0.93450  Biso   1.000  H
  H232     1.0000 0.92060  0.92000  0.93450  Biso   1.000  H
  H233     1.0000 0.45760  0.51400  0.45480  Biso   1.000  H
  H234     1.0000 0.95760  0.01400  0.45480  Biso   1.000  H
  H235     1.0000 0.54240  0.51400  0.04520  Biso   1.000  H
  H236     1.0000 0.04240  0.01400  0.04520  Biso   1.000  H
  H237     1.0000 0.54240  0.48600  0.54520  Biso   1.000  H
  H238     1.0000 0.04240  0.98600  0.54520  Biso   1.000  H
  H239     1.0000 0.45760  0.48600  0.95480  Biso   1.000  H
  H240     1.0000 0.95760  0.98600  0.95480  Biso   1.000  H
  C281     1.0000 0.46180  0.71080  0.50220  Biso   1.000  C
  C282     1.0000 0.96180  0.21080  0.50220  Biso   1.000  C
  C283     1.0000 0.53820  0.71080  0.99780  Biso   1.000  C
  C284     1.0000 0.03820  0.21080  0.99780  Biso   1.000  C
  C285     1.0000 0.53820  0.28920  0.49780  Biso   1.000  C
  C286     1.0000 0.03820  0.78920  0.49780  Biso   1.000  C
  C287     1.0000 0.46180  0.28920  0.00220  Biso   1.000  C
  C288     1.0000 0.96180  0.78920  0.00220  Biso   1.000  C
  C289     1.0000 0.48290  0.78200  0.54440  Biso   1.000  C
  C290     1.0000 0.98290  0.28200  0.54440  Biso   1.000  C
  C291     1.0000 0.51710  0.78200  0.95560  Biso   1.000  C
  C292     1.0000 0.01710  0.28200  0.95560  Biso   1.000  C
  C293     1.0000 0.51710  0.21800  0.45560  Biso   1.000  C
  C294     1.0000 0.01710  0.71800  0.45560  Biso   1.000  C
  C295     1.0000 0.48290  0.21800  0.04440  Biso   1.000  C
  C296     1.0000 0.98290  0.71800  0.04440  Biso   1.000  C
  C297     1.0000 0.47810  0.88620  0.53290  Biso   1.000  C
  C298     1.0000 0.97810  0.38620  0.53290  Biso   1.000  C
  C299     1.0000 0.52190  0.88620  0.96710  Biso   1.000  C
  C300     1.0000 0.02190  0.38620  0.96710  Biso   1.000  C
  C301     1.0000 0.52190  0.11380  0.46710  Biso   1.000  C
  C302     1.0000 0.02190  0.61380  0.46710  Biso   1.000  C
  C303     1.0000 0.47810  0.11380  0.03290  Biso   1.000  C
  C304     1.0000 0.97810  0.61380  0.03290  Biso   1.000  C
  H241     1.0000 0.46220  0.90690  0.49930  Biso   1.000  H
  H242     1.0000 0.96220  0.40690  0.49930  Biso   1.000  H
  H243     1.0000 0.53780  0.90690  0.00070  Biso   1.000  H
  H244     1.0000 0.03780  0.40690  0.00070  Biso   1.000  H
  H245     1.0000 0.53780  0.09310  0.50070  Biso   1.000  H
  H246     1.0000 0.03780  0.59310  0.50070  Biso   1.000  H
  H247     1.0000 0.46220  0.09310  0.99930  Biso   1.000  H
  H248     1.0000 0.96220  0.59310  0.99930  Biso   1.000  H
  C305     1.0000 0.49650  0.96000  0.57050  Biso   1.000  C
  C306     1.0000 0.99650  0.46000  0.57050  Biso   1.000  C
  C307     1.0000 0.50350  0.96000  0.92950  Biso   1.000  C
  C308     1.0000 0.00350  0.46000  0.92950  Biso   1.000  C
  C309     1.0000 0.50350  0.04000  0.42950  Biso   1.000  C
  C310     1.0000 0.00350  0.54000  0.42950  Biso   1.000  C
  C311     1.0000 0.49650  0.04000  0.07050  Biso   1.000  C
  C312     1.0000 0.99650  0.54000  0.07050  Biso   1.000  C
  H249     1.0000 0.49240  0.02900  0.56200  Biso   1.000  H
  H250     1.0000 0.99240  0.52900  0.56200  Biso   1.000  H
  H251     1.0000 0.50760  0.02900  0.93800  Biso   1.000  H
  H252     1.0000 0.00760  0.52900  0.93800  Biso   1.000  H
  H253     1.0000 0.50760  0.97100  0.43800  Biso   1.000  H
  H254     1.0000 0.00760  0.47100  0.43800  Biso   1.000  H
  H255     1.0000 0.49240  0.97100  0.06200  Biso   1.000  H
  H256     1.0000 0.99240  0.47100  0.06200  Biso   1.000  H
  C313     1.0000 0.52130  0.93080  0.62100  Biso   1.000  C
  C314     1.0000 0.02130  0.43080  0.62100  Biso   1.000  C
  C315     1.0000 0.47870  0.93080  0.87900  Biso   1.000  C
  C316     1.0000 0.97870  0.43080  0.87900  Biso   1.000  C
  C317     1.0000 0.47870  0.06920  0.37900  Biso   1.000  C
  C318     1.0000 0.97870  0.56920  0.37900  Biso   1.000  C
  C319     1.0000 0.52130  0.06920  0.12100  Biso   1.000  C
  C320     1.0000 0.02130  0.56920  0.12100  Biso   1.000  C
  H257     1.0000 0.53370  0.97950  0.64650  Biso   1.000  H
  H258     1.0000 0.03370  0.47950  0.64650  Biso   1.000  H
  H259     1.0000 0.46630  0.97950  0.85350  Biso   1.000  H
  H260     1.0000 0.96630  0.47950  0.85350  Biso   1.000  H
  H261     1.0000 0.46630  0.02050  0.35350  Biso   1.000  H
  H262     1.0000 0.96630  0.52050  0.35350  Biso   1.000  H
  H263     1.0000 0.53370  0.02050  0.14650  Biso   1.000  H
  H264     1.0000 0.03370  0.52050  0.14650  Biso   1.000  H
  C321     1.0000 0.52690  0.82730  0.63180  Biso   1.000  C
  C322     1.0000 0.02690  0.32730  0.63180  Biso   1.000  C
  C323     1.0000 0.47310  0.82730  0.86820  Biso   1.000  C
  C324     1.0000 0.97310  0.32730  0.86820  Biso   1.000  C
  C325     1.0000 0.47310  0.17270  0.36820  Biso   1.000  C
  C326     1.0000 0.97310  0.67270  0.36820  Biso   1.000  C
  C327     1.0000 0.52690  0.17270  0.13180  Biso   1.000  C
  C328     1.0000 0.02690  0.67270  0.13180  Biso   1.000  C
  H265     1.0000 0.54370  0.80760  0.66510  Biso   1.000  H
  H266     1.0000 0.04370  0.30760  0.66510  Biso   1.000  H
  H267     1.0000 0.45630  0.80760  0.83490  Biso   1.000  H
  H268     1.0000 0.95630  0.30760  0.83490  Biso   1.000  H
  H269     1.0000 0.45630  0.19240  0.33490  Biso   1.000  H
  H270     1.0000 0.95630  0.69240  0.33490  Biso   1.000  H
  H271     1.0000 0.54370  0.19240  0.16510  Biso   1.000  H
  H272     1.0000 0.04370  0.69240  0.16510  Biso   1.000  H
  C329     1.0000 0.50870  0.75200  0.59580  Biso   1.000  C
  C330     1.0000 0.00870  0.25200  0.59580  Biso   1.000  C
  C331     1.0000 0.49130  0.75200  0.90420  Biso   1.000  C
  C332     1.0000 0.99130  0.25200  0.90420  Biso   1.000  C
  C333     1.0000 0.49130  0.24800  0.40420  Biso   1.000  C
  C334     1.0000 0.99130  0.74800  0.40420  Biso   1.000  C
  C335     1.0000 0.50870  0.24800  0.09580  Biso   1.000  C
  C336     1.0000 0.00870  0.74800  0.09580  Biso   1.000  C
  C337     1.0000 0.42080  0.26040  0.51450  Biso   1.000  C
  C338     1.0000 0.92080  0.76040  0.51450  Biso   1.000  C
  C339     1.0000 0.57920  0.26040  0.98550  Biso   1.000  C
  C340     1.0000 0.07920  0.76040  0.98550  Biso   1.000  C
  C341     1.0000 0.57920  0.73960  0.48550  Biso   1.000  C
  C342     1.0000 0.07920  0.23960  0.48550  Biso   1.000  C
  C343     1.0000 0.42080  0.73960  0.01450  Biso   1.000  C
  C344     1.0000 0.92080  0.23960  0.01450  Biso   1.000  C
  C345     1.0000 0.41700  0.12000  0.45680  Biso   1.000  C
  C346     1.0000 0.91700  0.62000  0.45680  Biso   1.000  C
  C347     1.0000 0.58300  0.12000  0.04320  Biso   1.000  C
  C348     1.0000 0.08300  0.62000  0.04320  Biso   1.000  C
  C349     1.0000 0.58300  0.88000  0.54320  Biso   1.000  C
  C350     1.0000 0.08300  0.38000  0.54320  Biso   1.000  C
  C351     1.0000 0.41700  0.88000  0.95680  Biso   1.000  C
  C352     1.0000 0.91700  0.38000  0.95680  Biso   1.000  C
  H273     1.0000 0.40270  0.08390  0.47270  Biso   1.000  H
  H274     1.0000 0.90270  0.58390  0.47270  Biso   1.000  H
  H275     1.0000 0.59730  0.08390  0.02730  Biso   1.000  H
  H276     1.0000 0.09730  0.58390  0.02730  Biso   1.000  H
  H277     1.0000 0.59730  0.91610  0.52730  Biso   1.000  H
  H278     1.0000 0.09730  0.41610  0.52730  Biso   1.000  H
  H279     1.0000 0.40270  0.91610  0.97270  Biso   1.000  H
  H280     1.0000 0.90270  0.41610  0.97270  Biso   1.000  H
  H281     1.0000 0.43390  0.07280  0.45090  Biso   1.000  H
  H282     1.0000 0.93390  0.57280  0.45090  Biso   1.000  H
  H283     1.0000 0.56610  0.07280  0.04910  Biso   1.000  H
  H284     1.0000 0.06610  0.57280  0.04910  Biso   1.000  H
  H285     1.0000 0.56610  0.92720  0.54910  Biso   1.000  H
  H286     1.0000 0.06610  0.42720  0.54910  Biso   1.000  H
  H287     1.0000 0.43390  0.92720  0.95090  Biso   1.000  H
  H288     1.0000 0.93390  0.42720  0.95090  Biso   1.000  H
  C353     1.0000 0.39200  0.17420  0.40780  Biso   1.000  C
  C354     1.0000 0.89200  0.67420  0.40780  Biso   1.000  C
  C355     1.0000 0.60800  0.17420  0.09220  Biso   1.000  C
  C356     1.0000 0.10800  0.67420  0.09220  Biso   1.000  C
  C357     1.0000 0.60800  0.82580  0.59220  Biso   1.000  C
  C358     1.0000 0.10800  0.32580  0.59220  Biso   1.000  C
  C359     1.0000 0.39200  0.82580  0.90780  Biso   1.000  C
  C360     1.0000 0.89200  0.32580  0.90780  Biso   1.000  C
  H289     1.0000 0.37840  0.22710  0.41610  Biso   1.000  H
  H290     1.0000 0.87840  0.72710  0.41610  Biso   1.000  H
  H291     1.0000 0.62160  0.22710  0.08390  Biso   1.000  H
  H292     1.0000 0.12160  0.72710  0.08390  Biso   1.000  H
  H293     1.0000 0.62160  0.77290  0.58390  Biso   1.000  H
  H294     1.0000 0.12160  0.27290  0.58390  Biso   1.000  H
  H295     1.0000 0.37840  0.77290  0.91610  Biso   1.000  H
  H296     1.0000 0.87840  0.27290  0.91610  Biso   1.000  H
  H297     1.0000 0.37460  0.12630  0.38410  Biso   1.000  H
  H298     1.0000 0.87460  0.62630  0.38410  Biso   1.000  H
  H299     1.0000 0.62540  0.12630  0.11590  Biso   1.000  H
  H300     1.0000 0.12540  0.62630  0.11590  Biso   1.000  H
  H301     1.0000 0.62540  0.87370  0.61590  Biso   1.000  H
  H302     1.0000 0.12540  0.37370  0.61590  Biso   1.000  H
  H303     1.0000 0.37460  0.87370  0.88410  Biso   1.000  H
  H304     1.0000 0.87460  0.37370  0.88410  Biso   1.000  H
  H305     1.0000 0.40700  0.20390  0.39170  Biso   1.000  H
  H306     1.0000 0.90700  0.70390  0.39170  Biso   1.000  H
  H307     1.0000 0.59300  0.20390  0.10830  Biso   1.000  H
  H308     1.0000 0.09300  0.70390  0.10830  Biso   1.000  H
  H309     1.0000 0.59300  0.79610  0.60830  Biso   1.000  H
  H310     1.0000 0.09300  0.29610  0.60830  Biso   1.000  H
  H311     1.0000 0.40700  0.79610  0.89170  Biso   1.000  H
  H312     1.0000 0.90700  0.29610  0.89170  Biso   1.000  H
  C361     1.0000 0.44910  0.75320  0.44770  Biso   1.000  C
  C362     1.0000 0.94910  0.25320  0.44770  Biso   1.000  C
  C363     1.0000 0.55090  0.75320  0.05230  Biso   1.000  C
  C364     1.0000 0.05090  0.25320  0.05230  Biso   1.000  C
  C365     1.0000 0.55090  0.24680  0.55230  Biso   1.000  C
  C366     1.0000 0.05090  0.74680  0.55230  Biso   1.000  C
  C367     1.0000 0.44910  0.24680  0.94770  Biso   1.000  C
  C368     1.0000 0.94910  0.74680  0.94770  Biso   1.000  C
  O81      1.0000 0.47070  0.78770  0.43100  Biso   1.000  O
  O82      1.0000 0.97070  0.28770  0.43100  Biso   1.000  O
  O83      1.0000 0.52930  0.78770  0.06900  Biso   1.000  O
  O84      1.0000 0.02930  0.28770  0.06900  Biso   1.000  O
  O85      1.0000 0.52930  0.21230  0.56900  Biso   1.000  O
  O86      1.0000 0.02930  0.71230  0.56900  Biso   1.000  O
  O87      1.0000 0.47070  0.21230  0.93100  Biso   1.000  O
  O88      1.0000 0.97070  0.71230  0.93100  Biso   1.000  O
  O89      1.0000 0.41240  0.74940  0.41960  Biso   1.000  O
  O90      1.0000 0.91240  0.24940  0.41960  Biso   1.000  O
  O91      1.0000 0.58760  0.74940  0.08040  Biso   1.000  O
  O92      1.0000 0.08760  0.24940  0.08040  Biso   1.000  O
  O93      1.0000 0.58760  0.25060  0.58040  Biso   1.000  O
  O94      1.0000 0.08760  0.75060  0.58040  Biso   1.000  O
  O95      1.0000 0.41240  0.25060  0.91960  Biso   1.000  O
  O96      1.0000 0.91240  0.75060  0.91960  Biso   1.000  O
  C369     1.0000 0.39470  0.77280  0.36300  Biso   1.000  C
  C370     1.0000 0.89470  0.27280  0.36300  Biso   1.000  C
  C371     1.0000 0.60530  0.77280  0.13700  Biso   1.000  C
  C372     1.0000 0.10530  0.27280  0.13700  Biso   1.000  C
  C373     1.0000 0.60530  0.22720  0.63700  Biso   1.000  C
  C374     1.0000 0.10530  0.72720  0.63700  Biso   1.000  C
  C375     1.0000 0.39470  0.22720  0.86300  Biso   1.000  C
  C376     1.0000 0.89470  0.72720  0.86300  Biso   1.000  C
  H313     1.0000 0.37190  0.73300  0.34580  Biso   1.000  H
  H314     1.0000 0.87190  0.23300  0.34580  Biso   1.000  H
  H315     1.0000 0.62810  0.73300  0.15420  Biso   1.000  H
  H316     1.0000 0.12810  0.23300  0.15420  Biso   1.000  H
  H317     1.0000 0.62810  0.26700  0.65420  Biso   1.000  H
  H318     1.0000 0.12810  0.76700  0.65420  Biso   1.000  H
  H319     1.0000 0.37190  0.26700  0.84580  Biso   1.000  H
  H320     1.0000 0.87190  0.76700  0.84580  Biso   1.000  H
  H321     1.0000 0.41180  0.75690  0.34700  Biso   1.000  H
  H322     1.0000 0.91180  0.25690  0.34700  Biso   1.000  H
  H323     1.0000 0.58820  0.75690  0.15300  Biso   1.000  H
  H324     1.0000 0.08820  0.25690  0.15300  Biso   1.000  H
  H325     1.0000 0.58820  0.24310  0.65300  Biso   1.000  H
  H326     1.0000 0.08820  0.74310  0.65300  Biso   1.000  H
  H327     1.0000 0.41180  0.24310  0.84700  Biso   1.000  H
  H328     1.0000 0.91180  0.74310  0.84700  Biso   1.000  H
  C377     1.0000 0.38560  0.88660  0.35800  Biso   1.000  C
  C378     1.0000 0.88560  0.38660  0.35800  Biso   1.000  C
  C379     1.0000 0.61440  0.88660  0.14200  Biso   1.000  C
  C380     1.0000 0.11440  0.38660  0.14200  Biso   1.000  C
  C381     1.0000 0.61440  0.11340  0.64200  Biso   1.000  C
  C382     1.0000 0.11440  0.61340  0.64200  Biso   1.000  C
  C383     1.0000 0.38560  0.11340  0.85800  Biso   1.000  C
  C384     1.0000 0.88560  0.61340  0.85800  Biso   1.000  C
  H329     1.0000 0.37920  0.90750  0.38600  Biso   1.000  H
  H330     1.0000 0.87920  0.40750  0.38600  Biso   1.000  H
  H331     1.0000 0.62080  0.90750  0.11400  Biso   1.000  H
  H332     1.0000 0.12080  0.40750  0.11400  Biso   1.000  H
  H333     1.0000 0.62080  0.09250  0.61400  Biso   1.000  H
  H334     1.0000 0.12080  0.59250  0.61400  Biso   1.000  H
  H335     1.0000 0.37920  0.09250  0.88600  Biso   1.000  H
  H336     1.0000 0.87920  0.59250  0.88600  Biso   1.000  H
  H337     1.0000 0.36470  0.89960  0.32510  Biso   1.000  H
  H338     1.0000 0.86470  0.39960  0.32510  Biso   1.000  H
  H339     1.0000 0.63530  0.89960  0.17490  Biso   1.000  H
  H340     1.0000 0.13530  0.39960  0.17490  Biso   1.000  H
  H341     1.0000 0.63530  0.10040  0.67490  Biso   1.000  H
  H342     1.0000 0.13530  0.60040  0.67490  Biso   1.000  H
  H343     1.0000 0.36470  0.10040  0.82510  Biso   1.000  H
  H344     1.0000 0.86470  0.60040  0.82510  Biso   1.000  H
  H345     1.0000 0.40710  0.92460  0.35970  Biso   1.000  H
  H346     1.0000 0.90710  0.42460  0.35970  Biso   1.000  H
  H347     1.0000 0.59290  0.92460  0.14030  Biso   1.000  H
  H348     1.0000 0.09290  0.42460  0.14030  Biso   1.000  H
  H349     1.0000 0.59290  0.07540  0.64030  Biso   1.000  H
  H350     1.0000 0.09290  0.57540  0.64030  Biso   1.000  H
  H351     1.0000 0.40710  0.07540  0.85970  Biso   1.000  H
  H352     1.0000 0.90710  0.57540  0.85970  Biso   1.000  H
  O97      1.0000 0.46610  0.74020  0.42170  Biso   1.000  O
  O98      1.0000 0.96610  0.24020  0.42170  Biso   1.000  O
  O99      1.0000 0.53390  0.74020  0.07830  Biso   1.000  O
  O100     1.0000 0.03390  0.24020  0.07830  Biso   1.000  O
  O101     1.0000 0.53390  0.25980  0.57830  Biso   1.000  O
  O102     1.0000 0.03390  0.75980  0.57830  Biso   1.000  O
  O103     1.0000 0.46610  0.25980  0.92170  Biso   1.000  O
  O104     1.0000 0.96610  0.75980  0.92170  Biso   1.000  O
  O105     1.0000 0.41790  0.80390  0.43530  Biso   1.000  O
  O106     1.0000 0.91790  0.30390  0.43530  Biso   1.000  O
  O107     1.0000 0.58210  0.80390  0.06470  Biso   1.000  O
  O108     1.0000 0.08210  0.30390  0.06470  Biso   1.000  O
  O109     1.0000 0.58210  0.19610  0.56470  Biso   1.000  O
  O110     1.0000 0.08210  0.69610  0.56470  Biso   1.000  O
  O111     1.0000 0.41790  0.19610  0.93530  Biso   1.000  O
  O112     1.0000 0.91790  0.69610  0.93530  Biso   1.000  O
  C385     1.0000 0.40310  0.85100  0.38400  Biso   1.000  C
  C386     1.0000 0.90310  0.35100  0.38400  Biso   1.000  C
  C387     1.0000 0.59690  0.85100  0.11600  Biso   1.000  C
  C388     1.0000 0.09690  0.35100  0.11600  Biso   1.000  C
  C389     1.0000 0.59690  0.14900  0.61600  Biso   1.000  C
  C390     1.0000 0.09690  0.64900  0.61600  Biso   1.000  C
  C391     1.0000 0.40310  0.14900  0.88400  Biso   1.000  C
  C392     1.0000 0.90310  0.64900  0.88400  Biso   1.000  C
  H353     1.0000 0.42170  0.83990  0.37000  Biso   1.000  H
  H354     1.0000 0.92170  0.33990  0.37000  Biso   1.000  H
  H355     1.0000 0.57830  0.83990  0.13000  Biso   1.000  H
  H356     1.0000 0.07830  0.33990  0.13000  Biso   1.000  H
  H357     1.0000 0.57830  0.16010  0.63000  Biso   1.000  H
  H358     1.0000 0.07830  0.66010  0.63000  Biso   1.000  H
  H359     1.0000 0.42170  0.16010  0.87000  Biso   1.000  H
  H360     1.0000 0.92170  0.66010  0.87000  Biso   1.000  H
  H361     1.0000 0.40220  0.92360  0.38940  Biso   1.000  H
  H362     1.0000 0.90220  0.42360  0.38940  Biso   1.000  H
  H363     1.0000 0.59780  0.92360  0.11060  Biso   1.000  H
  H364     1.0000 0.09780  0.42360  0.11060  Biso   1.000  H
  H365     1.0000 0.59780  0.07640  0.61060  Biso   1.000  H
  H366     1.0000 0.09780  0.57640  0.61060  Biso   1.000  H
  H367     1.0000 0.40220  0.07640  0.88940  Biso   1.000  H
  H368     1.0000 0.90220  0.57640  0.88940  Biso   1.000  H
  C393     1.0000 0.36520  0.82100  0.34070  Biso   1.000  C
  C394     1.0000 0.86520  0.32100  0.34070  Biso   1.000  C
  C395     1.0000 0.63480  0.82100  0.15930  Biso   1.000  C
  C396     1.0000 0.13480  0.32100  0.15930  Biso   1.000  C
  C397     1.0000 0.63480  0.17900  0.65930  Biso   1.000  C
  C398     1.0000 0.13480  0.67900  0.65930  Biso   1.000  C
  C399     1.0000 0.36520  0.17900  0.84070  Biso   1.000  C
  C400     1.0000 0.86520  0.67900  0.84070  Biso   1.000  C
  H369     1.0000 0.34950  0.79250  0.35590  Biso   1.000  H
  H370     1.0000 0.84950  0.29250  0.35590  Biso   1.000  H
  H371     1.0000 0.65050  0.79250  0.14410  Biso   1.000  H
  H372     1.0000 0.15050  0.29250  0.14410  Biso   1.000  H
  H373     1.0000 0.65050  0.20750  0.64410  Biso   1.000  H
  H374     1.0000 0.15050  0.70750  0.64410  Biso   1.000  H
  H375     1.0000 0.34950  0.20750  0.85590  Biso   1.000  H
  H376     1.0000 0.84950  0.70750  0.85590  Biso   1.000  H
  H377     1.0000 0.36890  0.77200  0.31800  Biso   1.000  H
  H378     1.0000 0.86890  0.27200  0.31800  Biso   1.000  H
  H379     1.0000 0.63110  0.77200  0.18200  Biso   1.000  H
  H380     1.0000 0.13110  0.27200  0.18200  Biso   1.000  H
  H381     1.0000 0.63110  0.22800  0.68200  Biso   1.000  H
  H382     1.0000 0.13110  0.72800  0.68200  Biso   1.000  H
  H383     1.0000 0.36890  0.22800  0.81800  Biso   1.000  H
  H384     1.0000 0.86890  0.72800  0.81800  Biso   1.000  H
  H385     1.0000 0.35330  0.88110  0.32100  Biso   1.000  H
  H386     1.0000 0.85330  0.38110  0.32100  Biso   1.000  H
  H387     1.0000 0.64670  0.88110  0.17900  Biso   1.000  H
  H388     1.0000 0.14670  0.38110  0.17900  Biso   1.000  H
  H389     1.0000 0.64670  0.11890  0.67900  Biso   1.000  H
  H390     1.0000 0.14670  0.61890  0.67900  Biso   1.000  H
  H391     1.0000 0.35330  0.11890  0.82100  Biso   1.000  H
  H392     1.0000 0.85330  0.61890  0.82100  Biso   1.000  H
  C401     1.0000 0.67280  0.34160  0.76480  Biso   1.000  C
  C402     1.0000 0.17280  0.84160  0.76480  Biso   1.000  C
  C403     1.0000 0.32720  0.34160  0.73520  Biso   1.000  C
  C404     1.0000 0.82720  0.84160  0.73520  Biso   1.000  C
  C405     1.0000 0.32720  0.65840  0.23520  Biso   1.000  C
  C406     1.0000 0.82720  0.15840  0.23520  Biso   1.000  C
  C407     1.0000 0.67280  0.65840  0.26480  Biso   1.000  C
  C408     1.0000 0.17280  0.15840  0.26480  Biso   1.000  C
  C409     1.0000 0.71010  0.22150  0.81640  Biso   1.000  C
  C410     1.0000 0.21010  0.72150  0.81640  Biso   1.000  C
  C411     1.0000 0.28990  0.22150  0.68360  Biso   1.000  C
  C412     1.0000 0.78990  0.72150  0.68360  Biso   1.000  C
  C413     1.0000 0.28990  0.77850  0.18360  Biso   1.000  C
  C414     1.0000 0.78990  0.27850  0.18360  Biso   1.000  C
  C415     1.0000 0.71010  0.77850  0.31640  Biso   1.000  C
  C416     1.0000 0.21010  0.27850  0.31640  Biso   1.000  C
  C417     1.0000 0.61460  0.61930  0.82120  Biso   1.000  C
  C418     1.0000 0.11460  0.11930  0.82120  Biso   1.000  C
  C419     1.0000 0.38540  0.61930  0.67880  Biso   1.000  C
  C420     1.0000 0.88540  0.11930  0.67880  Biso   1.000  C
  C421     1.0000 0.38540  0.38070  0.17880  Biso   1.000  C
  C422     1.0000 0.88540  0.88070  0.17880  Biso   1.000  C
  C423     1.0000 0.61460  0.38070  0.32120  Biso   1.000  C
  C424     1.0000 0.11460  0.88070  0.32120  Biso   1.000  C
  C425     1.0000 0.58790  0.61420  0.87840  Biso   1.000  C
  C426     1.0000 0.08790  0.11420  0.87840  Biso   1.000  C
  C427     1.0000 0.41210  0.61420  0.62160  Biso   1.000  C
  C428     1.0000 0.91210  0.11420  0.62160  Biso   1.000  C
  C429     1.0000 0.41210  0.38580  0.12160  Biso   1.000  C
  C430     1.0000 0.91210  0.88580  0.12160  Biso   1.000  C
  C431     1.0000 0.58790  0.38580  0.37840  Biso   1.000  C
  C432     1.0000 0.08790  0.88580  0.37840  Biso   1.000  C
  N65      1.0000 0.65900  0.42090  0.75200  Biso   1.000  N
  N66      1.0000 0.15900  0.92090  0.75200  Biso   1.000  N
  N67      1.0000 0.34100  0.42090  0.74800  Biso   1.000  N
  N68      1.0000 0.84100  0.92090  0.74800  Biso   1.000  N
  N69      1.0000 0.34100  0.57910  0.24800  Biso   1.000  N
  N70      1.0000 0.84100  0.07910  0.24800  Biso   1.000  N
  N71      1.0000 0.65900  0.57910  0.25200  Biso   1.000  N
  N72      1.0000 0.15900  0.07910  0.25200  Biso   1.000  N
  N73      1.0000 0.68510  0.25000  0.77350  Biso   1.000  N
  N74      1.0000 0.18510  0.75000  0.77350  Biso   1.000  N
  N75      1.0000 0.31490  0.25000  0.72650  Biso   1.000  N
  N76      1.0000 0.81490  0.75000  0.72650  Biso   1.000  N
  N77      1.0000 0.31490  0.75000  0.22650  Biso   1.000  N
  N78      1.0000 0.81490  0.25000  0.22650  Biso   1.000  N
  N79      1.0000 0.68510  0.75000  0.27350  Biso   1.000  N
  N80      1.0000 0.18510  0.25000  0.27350  Biso   1.000  N
  N81      1.0000 0.73260  0.18630  0.85280  Biso   1.000  N
  N82      1.0000 0.23260  0.68630  0.85280  Biso   1.000  N
  N83      1.0000 0.26740  0.18630  0.64720  Biso   1.000  N
  N84      1.0000 0.76740  0.68630  0.64720  Biso   1.000  N
  N85      1.0000 0.26740  0.81370  0.14720  Biso   1.000  N
  N86      1.0000 0.76740  0.31370  0.14720  Biso   1.000  N
  N87      1.0000 0.73260  0.81370  0.35280  Biso   1.000  N
  N88      1.0000 0.23260  0.31370  0.35280  Biso   1.000  N
  N89      1.0000 0.61860  0.60450  0.78460  Biso   1.000  N
  N90      1.0000 0.11860  0.10450  0.78460  Biso   1.000  N
  N91      1.0000 0.38140  0.60450  0.71540  Biso   1.000  N
  N92      1.0000 0.88140  0.10450  0.71540  Biso   1.000  N
  N93      1.0000 0.38140  0.39550  0.21540  Biso   1.000  N
  N94      1.0000 0.88140  0.89550  0.21540  Biso   1.000  N
  N95      1.0000 0.61860  0.39550  0.28460  Biso   1.000  N
  N96      1.0000 0.11860  0.89550  0.28460  Biso   1.000  N
  N97      1.0000 0.61500  0.63970  0.86640  Biso   1.000  N
  N98      1.0000 0.11500  0.13970  0.86640  Biso   1.000  N
  N99      1.0000 0.38500  0.63970  0.63360  Biso   1.000  N
  N100     1.0000 0.88500  0.13970  0.63360  Biso   1.000  N
  N101     1.0000 0.38500  0.36030  0.13360  Biso   1.000  N
  N102     1.0000 0.88500  0.86030  0.13360  Biso   1.000  N
  N103     1.0000 0.61500  0.36030  0.36640  Biso   1.000  N
  N104     1.0000 0.11500  0.86030  0.36640  Biso   1.000  N
  N105     1.0000 0.56620  0.59760  0.89560  Biso   1.000  N
  N106     1.0000 0.06620  0.09760  0.89560  Biso   1.000  N
  N107     1.0000 0.43380  0.59760  0.60440  Biso   1.000  N
  N108     1.0000 0.93380  0.09760  0.60440  Biso   1.000  N
  N109     1.0000 0.43380  0.40240  0.10440  Biso   1.000  N
  N110     1.0000 0.93380  0.90240  0.10440  Biso   1.000  N
  N111     1.0000 0.56620  0.40240  0.39560  Biso   1.000  N
  N112     1.0000 0.06620  0.90240  0.39560  Biso   1.000  N
  O113     1.0000 0.70700  0.04600  0.92130  Biso   1.000  O
  O114     1.0000 0.20700  0.54600  0.92130  Biso   1.000  O
  O115     1.0000 0.29300  0.04600  0.57870  Biso   1.000  O
  O116     1.0000 0.79300  0.54600  0.57870  Biso   1.000  O
  O117     1.0000 0.29300  0.95400  0.07870  Biso   1.000  O
  O118     1.0000 0.79300  0.45400  0.07870  Biso   1.000  O
  O119     1.0000 0.70700  0.95400  0.42130  Biso   1.000  O
  O120     1.0000 0.20700  0.45400  0.42130  Biso   1.000  O
  O121     1.0000 0.50000  0.66200  0.75000  Biso   1.000  O
  O122     1.0000 0.00000  0.16200  0.75000  Biso   1.000  O
  O123     1.0000 0.50000  0.33800  0.25000  Biso   1.000  O
  O124     1.0000 0.00000  0.83800  0.25000  Biso   1.000  O
  O125     1.0000 0.50000  0.56600  0.75000  Biso   1.000  O
  O126     1.0000 0.00000  0.06600  0.75000  Biso   1.000  O
  O127     1.0000 0.50000  0.43400  0.25000  Biso   1.000  O
  O128     1.0000 0.00000  0.93400  0.25000  Biso   1.000  O
  O129     1.0000 0.49430  0.71700  0.72000  Biso   1.000  O
  O130     1.0000 0.99430  0.21700  0.72000  Biso   1.000  O
  O131     1.0000 0.50570  0.71700  0.78000  Biso   1.000  O
  O132     1.0000 0.00570  0.21700  0.78000  Biso   1.000  O
  O133     1.0000 0.50570  0.28300  0.28000  Biso   1.000  O
  O134     1.0000 0.00570  0.78300  0.28000  Biso   1.000  O
  O135     1.0000 0.49430  0.28300  0.22000  Biso   1.000  O
  O136     1.0000 0.99430  0.78300  0.22000  Biso   1.000  O
  O137     1.0000 0.62660  0.91100  0.75630  Biso   1.000  O
  O138     1.0000 0.12660  0.41100  0.75630  Biso   1.000  O
  O139     1.0000 0.37340  0.91100  0.74370  Biso   1.000  O
  O140     1.0000 0.87340  0.41100  0.74370  Biso   1.000  O
  O141     1.0000 0.37340  0.08900  0.24370  Biso   1.000  O
  O142     1.0000 0.87340  0.58900  0.24370  Biso   1.000  O
  O143     1.0000 0.62660  0.08900  0.25630  Biso   1.000  O
  O144     1.0000 0.12660  0.58900  0.25630  Biso   1.000  O
  O145     1.0000 0.58890  0.90800  0.89400  Biso   1.000  O
  O146     1.0000 0.08890  0.40800  0.89400  Biso   1.000  O
  O147     1.0000 0.41110  0.90800  0.60600  Biso   1.000  O
  O148     1.0000 0.91110  0.40800  0.60600  Biso   1.000  O
  O149     1.0000 0.41110  0.09200  0.10600  Biso   1.000  O
  O150     1.0000 0.91110  0.59200  0.10600  Biso   1.000  O
  O151     1.0000 0.58890  0.09200  0.39400  Biso   1.000  O
  O152     1.0000 0.08890  0.59200  0.39400  Biso   1.000  O
  O153     1.0000 0.61250  0.94000  0.93900  Biso   1.000  O
  O154     1.0000 0.11250  0.44000  0.93900  Biso   1.000  O
  O155     1.0000 0.38750  0.94000  0.56100  Biso   1.000  O
  O156     1.0000 0.88750  0.44000  0.56100  Biso   1.000  O
  O157     1.0000 0.38750  0.06000  0.06100  Biso   1.000  O
  O158     1.0000 0.88750  0.56000  0.06100  Biso   1.000  O
  O159     1.0000 0.61250  0.06000  0.43900  Biso   1.000  O
  O160     1.0000 0.11250  0.56000  0.43900  Biso   1.000  O
