data_image0
_cell_length_a       19.703
_cell_length_b       16.999
_cell_length_c       27.263
_cell_angle_alpha    90
_cell_angle_beta     92.9
_cell_angle_gamma    90

_symmetry_space_group_name_H-M    "P 1"
_symmetry_int_tables_number       1

loop_
  _symmetry_equiv_pos_as_xyz
  'x, y, z'

loop_
  _atom_site_label
  _atom_site_occupancy
  _atom_site_fract_x
  _atom_site_fract_y
  _atom_site_fract_z
  _atom_site_thermal_displace_type
  _atom_site_B_iso_or_equiv
  _atom_site_type_symbol
  Y1       1.0000 0.50000  0.49356  0.25000  Biso   1.000  Y
  Y2       1.0000 0.00000  0.99356  0.25000  Biso   1.000  Y
  Y3       1.0000 0.50000  0.50644  0.75000  Biso   1.000  Y
  Y4       1.0000 0.00000  0.00644  0.75000  Biso   1.000  Y
  Cu1      1.0000 0.20166  0.53280  0.01180  Biso   1.000  Cu
  Cu2      1.0000 0.79834  0.53280  0.48820  Biso   1.000  Cu
  Cu3      1.0000 0.70166  0.03280  0.01180  Biso   1.000  Cu
  Cu4      1.0000 0.29834  0.03280  0.48820  Biso   1.000  Cu
  Cu5      1.0000 0.79834  0.46720  0.98820  Biso   1.000  Cu
  Cu6      1.0000 0.20166  0.46720  0.51180  Biso   1.000  Cu
  Cu7      1.0000 0.29834  0.96720  0.98820  Biso   1.000  Cu
  Cu8      1.0000 0.70166  0.96720  0.51180  Biso   1.000  Cu
  F1       1.0000 0.68580  0.34180  0.17550  Biso   1.000  F
  F2       1.0000 0.31420  0.34180  0.32450  Biso   1.000  F
  F3       1.0000 0.18580  0.84180  0.17550  Biso   1.000  F
  F4       1.0000 0.81420  0.84180  0.32450  Biso   1.000  F
  F5       1.0000 0.31420  0.65820  0.82450  Biso   1.000  F
  F6       1.0000 0.68580  0.65820  0.67550  Biso   1.000  F
  F7       1.0000 0.81420  0.15820  0.82450  Biso   1.000  F
  F8       1.0000 0.18580  0.15820  0.67550  Biso   1.000  F
  F9       1.0000 0.65930  0.42880  0.12120  Biso   1.000  F
  F10      1.0000 0.34070  0.42880  0.37880  Biso   1.000  F
  F11      1.0000 0.15930  0.92880  0.12120  Biso   1.000  F
  F12      1.0000 0.84070  0.92880  0.37880  Biso   1.000  F
  F13      1.0000 0.34070  0.57120  0.87880  Biso   1.000  F
  F14      1.0000 0.65930  0.57120  0.62120  Biso   1.000  F
  F15      1.0000 0.84070  0.07120  0.87880  Biso   1.000  F
  F16      1.0000 0.15930  0.07120  0.62120  Biso   1.000  F
  F17      1.0000 0.63110  0.30940  0.10810  Biso   1.000  F
  F18      1.0000 0.36890  0.30940  0.39190  Biso   1.000  F
  F19      1.0000 0.13110  0.80940  0.10810  Biso   1.000  F
  F20      1.0000 0.86890  0.80940  0.39190  Biso   1.000  F
  F21      1.0000 0.36890  0.69060  0.89190  Biso   1.000  F
  F22      1.0000 0.63110  0.69060  0.60810  Biso   1.000  F
  F23      1.0000 0.86890  0.19060  0.89190  Biso   1.000  F
  F24      1.0000 0.13110  0.19060  0.60810  Biso   1.000  F
  F25      1.0000 0.39720  0.22970  0.22150  Biso   1.000  F
  F26      1.0000 0.60280  0.22970  0.27850  Biso   1.000  F
  F27      1.0000 0.89720  0.72970  0.22150  Biso   1.000  F
  F28      1.0000 0.10280  0.72970  0.27850  Biso   1.000  F
  F29      1.0000 0.60280  0.77030  0.77850  Biso   1.000  F
  F30      1.0000 0.39720  0.77030  0.72150  Biso   1.000  F
  F31      1.0000 0.10280  0.27030  0.77850  Biso   1.000  F
  F32      1.0000 0.89720  0.27030  0.72150  Biso   1.000  F
  F33      1.0000 0.41840  0.21360  0.14760  Biso   1.000  F
  F34      1.0000 0.58160  0.21360  0.35240  Biso   1.000  F
  F35      1.0000 0.91840  0.71360  0.14760  Biso   1.000  F
  F36      1.0000 0.08160  0.71360  0.35240  Biso   1.000  F
  F37      1.0000 0.58160  0.78640  0.85240  Biso   1.000  F
  F38      1.0000 0.41840  0.78640  0.64760  Biso   1.000  F
  F39      1.0000 0.08160  0.28640  0.85240  Biso   1.000  F
  F40      1.0000 0.91840  0.28640  0.64760  Biso   1.000  F
  F41      1.0000 0.34550  0.29440  0.16710  Biso   1.000  F
  F42      1.0000 0.65450  0.29440  0.33290  Biso   1.000  F
  F43      1.0000 0.84550  0.79440  0.16710  Biso   1.000  F
  F44      1.0000 0.15450  0.79440  0.33290  Biso   1.000  F
  F45      1.0000 0.65450  0.70560  0.83290  Biso   1.000  F
  F46      1.0000 0.34550  0.70560  0.66710  Biso   1.000  F
  F47      1.0000 0.15450  0.20560  0.83290  Biso   1.000  F
  F48      1.0000 0.84550  0.20560  0.66710  Biso   1.000  F
  F49      1.0000 0.37880  0.71900  0.33080  Biso   1.000  F
  F50      1.0000 0.62120  0.71900  0.16920  Biso   1.000  F
  F51      1.0000 0.87880  0.21900  0.33080  Biso   1.000  F
  F52      1.0000 0.12120  0.21900  0.16920  Biso   1.000  F
  F53      1.0000 0.62120  0.28100  0.66920  Biso   1.000  F
  F54      1.0000 0.37880  0.28100  0.83080  Biso   1.000  F
  F55      1.0000 0.12120  0.78100  0.66920  Biso   1.000  F
  F56      1.0000 0.87880  0.78100  0.83080  Biso   1.000  F
  F57      1.0000 0.46010  0.80070  0.32840  Biso   1.000  F
  F58      1.0000 0.53990  0.80070  0.17160  Biso   1.000  F
  F59      1.0000 0.96010  0.30070  0.32840  Biso   1.000  F
  F60      1.0000 0.03990  0.30070  0.17160  Biso   1.000  F
  F61      1.0000 0.53990  0.19930  0.67160  Biso   1.000  F
  F62      1.0000 0.46010  0.19930  0.82840  Biso   1.000  F
  F63      1.0000 0.03990  0.69930  0.67160  Biso   1.000  F
  F64      1.0000 0.96010  0.69930  0.82840  Biso   1.000  F
  F65      1.0000 0.47020  0.69810  0.37426  Biso   1.000  F
  F66      1.0000 0.52980  0.69810  0.12574  Biso   1.000  F
  F67      1.0000 0.97020  0.19810  0.37426  Biso   1.000  F
  F68      1.0000 0.02980  0.19810  0.12574  Biso   1.000  F
  F69      1.0000 0.52980  0.30190  0.62574  Biso   1.000  F
  F70      1.0000 0.47020  0.30190  0.87426  Biso   1.000  F
  F71      1.0000 0.02980  0.80190  0.62574  Biso   1.000  F
  F72      1.0000 0.97020  0.80190  0.87426  Biso   1.000  F
  F73      1.0000 0.03270  0.68370  0.06760  Biso   1.000  F
  F74      1.0000 0.96730  0.68370  0.43240  Biso   1.000  F
  F75      1.0000 0.53270  0.18370  0.06760  Biso   1.000  F
  F76      1.0000 0.46730  0.18370  0.43240  Biso   1.000  F
  F77      1.0000 0.96730  0.31630  0.93240  Biso   1.000  F
  F78      1.0000 0.03270  0.31630  0.56760  Biso   1.000  F
  F79      1.0000 0.46730  0.81630  0.93240  Biso   1.000  F
  F80      1.0000 0.53270  0.81630  0.56760  Biso   1.000  F
  F81      1.0000 0.96180  0.59110  0.07360  Biso   1.000  F
  F82      1.0000 0.03820  0.59110  0.42640  Biso   1.000  F
  F83      1.0000 0.46180  0.09110  0.07360  Biso   1.000  F
  F84      1.0000 0.53820  0.09110  0.42640  Biso   1.000  F
  F85      1.0000 0.03820  0.40890  0.92640  Biso   1.000  F
  F86      1.0000 0.96180  0.40890  0.57360  Biso   1.000  F
  F87      1.0000 0.53820  0.90890  0.92640  Biso   1.000  F
  F88      1.0000 0.46180  0.90890  0.57360  Biso   1.000  F
  F89      1.0000 0.03750  0.61220  0.13070  Biso   1.000  F
  F90      1.0000 0.96250  0.61220  0.36930  Biso   1.000  F
  F91      1.0000 0.53750  0.11220  0.13070  Biso   1.000  F
  F92      1.0000 0.46250  0.11220  0.36930  Biso   1.000  F
  F93      1.0000 0.96250  0.38780  0.86930  Biso   1.000  F
  F94      1.0000 0.03750  0.38780  0.63070  Biso   1.000  F
  F95      1.0000 0.46250  0.88780  0.86930  Biso   1.000  F
  F96      1.0000 0.53750  0.88780  0.63070  Biso   1.000  F
  F97      1.0000 0.01570  0.32270  0.04530  Biso   1.000  F
  F98      1.0000 0.98430  0.32270  0.45470  Biso   1.000  F
  F99      1.0000 0.51570  0.82270  0.04530  Biso   1.000  F
  F100     1.0000 0.48430  0.82270  0.45470  Biso   1.000  F
  F101     1.0000 0.98430  0.67730  0.95470  Biso   1.000  F
  F102     1.0000 0.01570  0.67730  0.54530  Biso   1.000  F
  F103     1.0000 0.48430  0.17730  0.95470  Biso   1.000  F
  F104     1.0000 0.51570  0.17730  0.54530  Biso   1.000  F
  F105     1.0000 0.09780  0.29310  0.99935  Biso   1.000  F
  F106     1.0000 0.90220  0.29310  0.50065  Biso   1.000  F
  F107     1.0000 0.59780  0.79310  0.99935  Biso   1.000  F
  F108     1.0000 0.40220  0.79310  0.50065  Biso   1.000  F
  F109     1.0000 0.90220  0.70690  0.00065  Biso   1.000  F
  F110     1.0000 0.09780  0.70690  0.49935  Biso   1.000  F
  F111     1.0000 0.40220  0.20690  0.00065  Biso   1.000  F
  F112     1.0000 0.59780  0.20690  0.49935  Biso   1.000  F
  F113     1.0000 0.11660  0.30560  0.07740  Biso   1.000  F
  F114     1.0000 0.88340  0.30560  0.42260  Biso   1.000  F
  F115     1.0000 0.61660  0.80560  0.07740  Biso   1.000  F
  F116     1.0000 0.38340  0.80560  0.42260  Biso   1.000  F
  F117     1.0000 0.88340  0.69440  0.92260  Biso   1.000  F
  F118     1.0000 0.11660  0.69440  0.57740  Biso   1.000  F
  F119     1.0000 0.38340  0.19440  0.92260  Biso   1.000  F
  F120     1.0000 0.61660  0.19440  0.57740  Biso   1.000  F
  F121     1.0000 0.06060  0.57400  0.86420  Biso   1.000  F
  F122     1.0000 0.93940  0.57400  0.63580  Biso   1.000  F
  F123     1.0000 0.56060  0.07400  0.86420  Biso   1.000  F
  F124     1.0000 0.43940  0.07400  0.63580  Biso   1.000  F
  F125     1.0000 0.93940  0.42600  0.13580  Biso   1.000  F
  F126     1.0000 0.06060  0.42600  0.36420  Biso   1.000  F
  F127     1.0000 0.43940  0.92600  0.13580  Biso   1.000  F
  F128     1.0000 0.56060  0.92600  0.36420  Biso   1.000  F
  F129     1.0000 0.15260  0.61060  0.83440  Biso   1.000  F
  F130     1.0000 0.84740  0.61060  0.66560  Biso   1.000  F
  F131     1.0000 0.65260  0.11060  0.83440  Biso   1.000  F
  F132     1.0000 0.34740  0.11060  0.66560  Biso   1.000  F
  F133     1.0000 0.84740  0.38940  0.16560  Biso   1.000  F
  F134     1.0000 0.15260  0.38940  0.33440  Biso   1.000  F
  F135     1.0000 0.34740  0.88940  0.16560  Biso   1.000  F
  F136     1.0000 0.65260  0.88940  0.33440  Biso   1.000  F
  F137     1.0000 0.11660  0.49580  0.82040  Biso   1.000  F
  F138     1.0000 0.88340  0.49580  0.67960  Biso   1.000  F
  F139     1.0000 0.61660  0.99580  0.82040  Biso   1.000  F
  F140     1.0000 0.38340  0.99580  0.67960  Biso   1.000  F
  F141     1.0000 0.88340  0.50420  0.17960  Biso   1.000  F
  F142     1.0000 0.11660  0.50420  0.32040  Biso   1.000  F
  F143     1.0000 0.38340  0.00420  0.17960  Biso   1.000  F
  F144     1.0000 0.61660  0.00420  0.32040  Biso   1.000  F
  F145     1.0000 0.26970  0.31850  0.89060  Biso   1.000  F
  F146     1.0000 0.73030  0.31850  0.60940  Biso   1.000  F
  F147     1.0000 0.76970  0.81850  0.89060  Biso   1.000  F
  F148     1.0000 0.23030  0.81850  0.60940  Biso   1.000  F
  F149     1.0000 0.73030  0.68150  0.10940  Biso   1.000  F
  F150     1.0000 0.26970  0.68150  0.39060  Biso   1.000  F
  F151     1.0000 0.23030  0.18150  0.10940  Biso   1.000  F
  F152     1.0000 0.76970  0.18150  0.39060  Biso   1.000  F
  F153     1.0000 0.35570  0.37510  0.92760  Biso   1.000  F
  F154     1.0000 0.64430  0.37510  0.57240  Biso   1.000  F
  F155     1.0000 0.85570  0.87510  0.92760  Biso   1.000  F
  F156     1.0000 0.14430  0.87510  0.57240  Biso   1.000  F
  F157     1.0000 0.64430  0.62490  0.07240  Biso   1.000  F
  F158     1.0000 0.35570  0.62490  0.42760  Biso   1.000  F
  F159     1.0000 0.14430  0.12490  0.07240  Biso   1.000  F
  F160     1.0000 0.85570  0.12490  0.42760  Biso   1.000  F
  F161     1.0000 0.28450  0.31270  0.96880  Biso   1.000  F
  F162     1.0000 0.71550  0.31270  0.53120  Biso   1.000  F
  F163     1.0000 0.78450  0.81270  0.96880  Biso   1.000  F
  F164     1.0000 0.21550  0.81270  0.53120  Biso   1.000  F
  F165     1.0000 0.71550  0.68730  0.03120  Biso   1.000  F
  F166     1.0000 0.28450  0.68730  0.46880  Biso   1.000  F
  F167     1.0000 0.21550  0.18730  0.03120  Biso   1.000  F
  F168     1.0000 0.78450  0.18730  0.46880  Biso   1.000  F
  O1       1.0000 0.56910  0.44390  0.19124  Biso   1.000  O
  O2       1.0000 0.43090  0.44390  0.30876  Biso   1.000  O
  O3       1.0000 0.06910  0.94390  0.19124  Biso   1.000  O
  O4       1.0000 0.93090  0.94390  0.30876  Biso   1.000  O
  O5       1.0000 0.43090  0.55610  0.80876  Biso   1.000  O
  O6       1.0000 0.56910  0.55610  0.69124  Biso   1.000  O
  O7       1.0000 0.93090  0.05610  0.80876  Biso   1.000  O
  O8       1.0000 0.06910  0.05610  0.69124  Biso   1.000  O
  O9       1.0000 0.44160  0.38650  0.21375  Biso   1.000  O
  O10      1.0000 0.55840  0.38650  0.28625  Biso   1.000  O
  O11      1.0000 0.94160  0.88650  0.21375  Biso   1.000  O
  O12      1.0000 0.05840  0.88650  0.28625  Biso   1.000  O
  O13      1.0000 0.55840  0.61350  0.78625  Biso   1.000  O
  O14      1.0000 0.44160  0.61350  0.71375  Biso   1.000  O
  O15      1.0000 0.05840  0.11350  0.78625  Biso   1.000  O
  O16      1.0000 0.94160  0.11350  0.71375  Biso   1.000  O
  O17      1.0000 0.46760  0.60330  0.29538  Biso   1.000  O
  O18      1.0000 0.53240  0.60330  0.20462  Biso   1.000  O
  O19      1.0000 0.96760  0.10330  0.29538  Biso   1.000  O
  O20      1.0000 0.03240  0.10330  0.20462  Biso   1.000  O
  O21      1.0000 0.53240  0.39670  0.70462  Biso   1.000  O
  O22      1.0000 0.46760  0.39670  0.79538  Biso   1.000  O
  O23      1.0000 0.03240  0.89670  0.70462  Biso   1.000  O
  O24      1.0000 0.96760  0.89670  0.79538  Biso   1.000  O
  O25      1.0000 0.40450  0.54530  0.20863  Biso   1.000  O
  O26      1.0000 0.59550  0.54530  0.29137  Biso   1.000  O
  O27      1.0000 0.90450  0.04530  0.20863  Biso   1.000  O
  O28      1.0000 0.09550  0.04530  0.29137  Biso   1.000  O
  O29      1.0000 0.59550  0.45470  0.79137  Biso   1.000  O
  O30      1.0000 0.40450  0.45470  0.70863  Biso   1.000  O
  O31      1.0000 0.09550  0.95470  0.79137  Biso   1.000  O
  O32      1.0000 0.90450  0.95470  0.70863  Biso   1.000  O
  O33      1.0000 0.23570  0.46220  0.09670  Biso   1.000  O
  O34      1.0000 0.76430  0.46220  0.40330  Biso   1.000  O
  O35      1.0000 0.73570  0.96220  0.09670  Biso   1.000  O
  O36      1.0000 0.26430  0.96220  0.40330  Biso   1.000  O
  O37      1.0000 0.76430  0.53780  0.90330  Biso   1.000  O
  O38      1.0000 0.23570  0.53780  0.59670  Biso   1.000  O
  O39      1.0000 0.26430  0.03780  0.90330  Biso   1.000  O
  O40      1.0000 0.73570  0.03780  0.59670  Biso   1.000  O
  O41      1.0000 0.54600  0.41540  0.02313  Biso   1.000  O
  O42      1.0000 0.45400  0.41540  0.47687  Biso   1.000  O
  O43      1.0000 0.04600  0.91540  0.02313  Biso   1.000  O
  O44      1.0000 0.95400  0.91540  0.47687  Biso   1.000  O
  O45      1.0000 0.45400  0.58460  0.97687  Biso   1.000  O
  O46      1.0000 0.54600  0.58460  0.52313  Biso   1.000  O
  O47      1.0000 0.95400  0.08460  0.97687  Biso   1.000  O
  O48      1.0000 0.04600  0.08460  0.52313  Biso   1.000  O
  O49      1.0000 0.26600  0.47070  0.97560  Biso   1.000  O
  O50      1.0000 0.73400  0.47070  0.52440  Biso   1.000  O
  O51      1.0000 0.76600  0.97070  0.97560  Biso   1.000  O
  O52      1.0000 0.23400  0.97070  0.52440  Biso   1.000  O
  O53      1.0000 0.73400  0.52930  0.02440  Biso   1.000  O
  O54      1.0000 0.26600  0.52930  0.47560  Biso   1.000  O
  O55      1.0000 0.23400  0.02930  0.02440  Biso   1.000  O
  O56      1.0000 0.76600  0.02930  0.47560  Biso   1.000  O
  O57      1.0000 0.15920  0.57210  0.93680  Biso   1.000  O
  O58      1.0000 0.84080  0.57210  0.56320  Biso   1.000  O
  O59      1.0000 0.65920  0.07210  0.93680  Biso   1.000  O
  O60      1.0000 0.34080  0.07210  0.56320  Biso   1.000  O
  O61      1.0000 0.84080  0.42790  0.06320  Biso   1.000  O
  O62      1.0000 0.15920  0.42790  0.43680  Biso   1.000  O
  O63      1.0000 0.34080  0.92790  0.06320  Biso   1.000  O
  O64      1.0000 0.65920  0.92790  0.43680  Biso   1.000  O
  O65      1.0000 0.15110  0.43410  0.01110  Biso   1.000  O
  O66      1.0000 0.84890  0.43410  0.48890  Biso   1.000  O
  O67      1.0000 0.65110  0.93410  0.01110  Biso   1.000  O
  O68      1.0000 0.34890  0.93410  0.48890  Biso   1.000  O
  O69      1.0000 0.84890  0.56590  0.98890  Biso   1.000  O
  O70      1.0000 0.15110  0.56590  0.51110  Biso   1.000  O
  O71      1.0000 0.34890  0.06590  0.98890  Biso   1.000  O
  O72      1.0000 0.65110  0.06590  0.51110  Biso   1.000  O
  O73      1.0000 0.12890  0.58760  0.04470  Biso   1.000  O
  O74      1.0000 0.87110  0.58760  0.45530  Biso   1.000  O
  O75      1.0000 0.62890  0.08760  0.04470  Biso   1.000  O
  O76      1.0000 0.37110  0.08760  0.45530  Biso   1.000  O
  O77      1.0000 0.87110  0.41240  0.95530  Biso   1.000  O
  O78      1.0000 0.12890  0.41240  0.54470  Biso   1.000  O
  O79      1.0000 0.37110  0.91240  0.95530  Biso   1.000  O
  O80      1.0000 0.62890  0.91240  0.54470  Biso   1.000  O
  N1       1.0000 0.34610  0.52500  0.18850  Biso   1.000  N
  N2       1.0000 0.65390  0.52500  0.31150  Biso   1.000  N
  N3       1.0000 0.84610  0.02500  0.18850  Biso   1.000  N
  N4       1.0000 0.15390  0.02500  0.31150  Biso   1.000  N
  N5       1.0000 0.65390  0.47500  0.81150  Biso   1.000  N
  N6       1.0000 0.34610  0.47500  0.68850  Biso   1.000  N
  N7       1.0000 0.15390  0.97500  0.81150  Biso   1.000  N
  N8       1.0000 0.84610  0.97500  0.68850  Biso   1.000  N
  N9       1.0000 0.26680  0.48500  0.13630  Biso   1.000  N
  N10      1.0000 0.73320  0.48500  0.36370  Biso   1.000  N
  N11      1.0000 0.76680  0.98500  0.13630  Biso   1.000  N
  N12      1.0000 0.23320  0.98500  0.36370  Biso   1.000  N
  N13      1.0000 0.73320  0.51500  0.86370  Biso   1.000  N
  N14      1.0000 0.26680  0.51500  0.63630  Biso   1.000  N
  N15      1.0000 0.23320  0.01500  0.86370  Biso   1.000  N
  N16      1.0000 0.76680  0.01500  0.63630  Biso   1.000  N
  N17      1.0000 0.73070  0.38170  0.97240  Biso   1.000  N
  N18      1.0000 0.26930  0.38170  0.52760  Biso   1.000  N
  N19      1.0000 0.23070  0.88170  0.97240  Biso   1.000  N
  N20      1.0000 0.76930  0.88170  0.52760  Biso   1.000  N
  N21      1.0000 0.26930  0.61830  0.02760  Biso   1.000  N
  N22      1.0000 0.73070  0.61830  0.47240  Biso   1.000  N
  N23      1.0000 0.76930  0.11830  0.02760  Biso   1.000  N
  N24      1.0000 0.23070  0.11830  0.47240  Biso   1.000  N
  C1       1.0000 0.63580  0.36460  0.14300  Biso   1.000  C
  C2       1.0000 0.36420  0.36460  0.35700  Biso   1.000  C
  C3       1.0000 0.13580  0.86460  0.14300  Biso   1.000  C
  C4       1.0000 0.86420  0.86460  0.35700  Biso   1.000  C
  C5       1.0000 0.36420  0.63540  0.85700  Biso   1.000  C
  C6       1.0000 0.63580  0.63540  0.64300  Biso   1.000  C
  C7       1.0000 0.86420  0.13540  0.85700  Biso   1.000  C
  C8       1.0000 0.13580  0.13540  0.64300  Biso   1.000  C
  C9       1.0000 0.57040  0.37990  0.16800  Biso   1.000  C
  C10      1.0000 0.42960  0.37990  0.33200  Biso   1.000  C
  C11      1.0000 0.07040  0.87990  0.16800  Biso   1.000  C
  C12      1.0000 0.92960  0.87990  0.33200  Biso   1.000  C
  C13      1.0000 0.42960  0.62010  0.83200  Biso   1.000  C
  C14      1.0000 0.57040  0.62010  0.66800  Biso   1.000  C
  C15      1.0000 0.92960  0.12010  0.83200  Biso   1.000  C
  C16      1.0000 0.07040  0.12010  0.66800  Biso   1.000  C
  C17      1.0000 0.51990  0.32240  0.16430  Biso   1.000  C
  C18      1.0000 0.48010  0.32240  0.33570  Biso   1.000  C
  C19      1.0000 0.01990  0.82240  0.16430  Biso   1.000  C
  C20      1.0000 0.98010  0.82240  0.33570  Biso   1.000  C
  C21      1.0000 0.48010  0.67760  0.83570  Biso   1.000  C
  C22      1.0000 0.51990  0.67760  0.66430  Biso   1.000  C
  C23      1.0000 0.98010  0.17760  0.83570  Biso   1.000  C
  C24      1.0000 0.01990  0.17760  0.66430  Biso   1.000  C
  H1       1.0000 0.52700  0.27760  0.14570  Biso   1.000  H
  H2       1.0000 0.47300  0.27760  0.35430  Biso   1.000  H
  H3       1.0000 0.02700  0.77760  0.14570  Biso   1.000  H
  H4       1.0000 0.97300  0.77760  0.35430  Biso   1.000  H
  H5       1.0000 0.47300  0.72240  0.85430  Biso   1.000  H
  H6       1.0000 0.52700  0.72240  0.64570  Biso   1.000  H
  H7       1.0000 0.97300  0.22240  0.85430  Biso   1.000  H
  H8       1.0000 0.02700  0.22240  0.64570  Biso   1.000  H
  C25      1.0000 0.45920  0.33010  0.18760  Biso   1.000  C
  C26      1.0000 0.54080  0.33010  0.31240  Biso   1.000  C
  C27      1.0000 0.95920  0.83010  0.18760  Biso   1.000  C
  C28      1.0000 0.04080  0.83010  0.31240  Biso   1.000  C
  C29      1.0000 0.54080  0.66990  0.81240  Biso   1.000  C
  C30      1.0000 0.45920  0.66990  0.68760  Biso   1.000  C
  C31      1.0000 0.04080  0.16990  0.81240  Biso   1.000  C
  C32      1.0000 0.95920  0.16990  0.68760  Biso   1.000  C
  C33      1.0000 0.40640  0.26580  0.18090  Biso   1.000  C
  C34      1.0000 0.59360  0.26580  0.31910  Biso   1.000  C
  C35      1.0000 0.90640  0.76580  0.18090  Biso   1.000  C
  C36      1.0000 0.09360  0.76580  0.31910  Biso   1.000  C
  C37      1.0000 0.59360  0.73420  0.81910  Biso   1.000  C
  C38      1.0000 0.40640  0.73420  0.68090  Biso   1.000  C
  C39      1.0000 0.09360  0.23420  0.81910  Biso   1.000  C
  C40      1.0000 0.90640  0.23420  0.68090  Biso   1.000  C
  C41      1.0000 0.44590  0.72440  0.33070  Biso   1.000  C
  C42      1.0000 0.55410  0.72440  0.16930  Biso   1.000  C
  C43      1.0000 0.94590  0.22440  0.33070  Biso   1.000  C
  C44      1.0000 0.05410  0.22440  0.16930  Biso   1.000  C
  C45      1.0000 0.55410  0.27560  0.66930  Biso   1.000  C
  C46      1.0000 0.44590  0.27560  0.83070  Biso   1.000  C
  C47      1.0000 0.05410  0.77560  0.66930  Biso   1.000  C
  C48      1.0000 0.94590  0.77560  0.83070  Biso   1.000  C
  C49      1.0000 0.47380  0.67570  0.28930  Biso   1.000  C
  C50      1.0000 0.52620  0.67570  0.21070  Biso   1.000  C
  C51      1.0000 0.97380  0.17570  0.28930  Biso   1.000  C
  C52      1.0000 0.02620  0.17570  0.21070  Biso   1.000  C
  C53      1.0000 0.52620  0.32430  0.71070  Biso   1.000  C
  C54      1.0000 0.47380  0.32430  0.78930  Biso   1.000  C
  C55      1.0000 0.02620  0.82430  0.71070  Biso   1.000  C
  C56      1.0000 0.97380  0.82430  0.78930  Biso   1.000  C
  C57      1.0000 0.50000  0.71540  0.25000  Biso   1.000  C
  C58      1.0000 0.00000  0.21540  0.25000  Biso   1.000  C
  C59      1.0000 0.50000  0.28460  0.75000  Biso   1.000  C
  C60      1.0000 0.00000  0.78460  0.75000  Biso   1.000  C
  H9       1.0000 0.50000  0.77020  0.25000  Biso   1.000  H
  H10      1.0000 0.00000  0.27020  0.25000  Biso   1.000  H
  H11      1.0000 0.50000  0.22980  0.75000  Biso   1.000  H
  H12      1.0000 0.00000  0.72980  0.75000  Biso   1.000  H
  C61      1.0000 0.28830  0.53570  0.26740  Biso   1.000  C
  C62      1.0000 0.71170  0.53570  0.23260  Biso   1.000  C
  C63      1.0000 0.78830  0.03570  0.26740  Biso   1.000  C
  C64      1.0000 0.21170  0.03570  0.23260  Biso   1.000  C
  C65      1.0000 0.71170  0.46430  0.73260  Biso   1.000  C
  C66      1.0000 0.28830  0.46430  0.76740  Biso   1.000  C
  C67      1.0000 0.21170  0.96430  0.73260  Biso   1.000  C
  C68      1.0000 0.78830  0.96430  0.76740  Biso   1.000  C
  H13      1.0000 0.30200  0.48250  0.27420  Biso   1.000  H
  H14      1.0000 0.69800  0.48250  0.22580  Biso   1.000  H
  H15      1.0000 0.80200  0.98250  0.27420  Biso   1.000  H
  H16      1.0000 0.19800  0.98250  0.22580  Biso   1.000  H
  H17      1.0000 0.69800  0.51750  0.72580  Biso   1.000  H
  H18      1.0000 0.30200  0.51750  0.77420  Biso   1.000  H
  H19      1.0000 0.19800  0.01750  0.72580  Biso   1.000  H
  H20      1.0000 0.80200  0.01750  0.77420  Biso   1.000  H
  H21      1.0000 0.24510  0.54550  0.28110  Biso   1.000  H
  H22      1.0000 0.75490  0.54550  0.21890  Biso   1.000  H
  H23      1.0000 0.74510  0.04550  0.28110  Biso   1.000  H
  H24      1.0000 0.25490  0.04550  0.21890  Biso   1.000  H
  H25      1.0000 0.75490  0.45450  0.71890  Biso   1.000  H
  H26      1.0000 0.24510  0.45450  0.78110  Biso   1.000  H
  H27      1.0000 0.25490  0.95450  0.71890  Biso   1.000  H
  H28      1.0000 0.74510  0.95450  0.78110  Biso   1.000  H
  H29      1.0000 0.32160  0.57120  0.28170  Biso   1.000  H
  H30      1.0000 0.67840  0.57120  0.21830  Biso   1.000  H
  H31      1.0000 0.82160  0.07120  0.28170  Biso   1.000  H
  H32      1.0000 0.17840  0.07120  0.21830  Biso   1.000  H
  H33      1.0000 0.67840  0.42880  0.71830  Biso   1.000  H
  H34      1.0000 0.32160  0.42880  0.78170  Biso   1.000  H
  H35      1.0000 0.17840  0.92880  0.71830  Biso   1.000  H
  H36      1.0000 0.82160  0.92880  0.78170  Biso   1.000  H
  C69      1.0000 0.27280  0.63660  0.20070  Biso   1.000  C
  C70      1.0000 0.72720  0.63660  0.29930  Biso   1.000  C
  C71      1.0000 0.77280  0.13660  0.20070  Biso   1.000  C
  C72      1.0000 0.22720  0.13660  0.29930  Biso   1.000  C
  C73      1.0000 0.72720  0.36340  0.79930  Biso   1.000  C
  C74      1.0000 0.27280  0.36340  0.70070  Biso   1.000  C
  C75      1.0000 0.22720  0.86340  0.79930  Biso   1.000  C
  C76      1.0000 0.77280  0.86340  0.70070  Biso   1.000  C
  H37      1.0000 0.31320  0.66440  0.21150  Biso   1.000  H
  H38      1.0000 0.68680  0.66440  0.28850  Biso   1.000  H
  H39      1.0000 0.81320  0.16440  0.21150  Biso   1.000  H
  H40      1.0000 0.18680  0.16440  0.28850  Biso   1.000  H
  H41      1.0000 0.68680  0.33560  0.78850  Biso   1.000  H
  H42      1.0000 0.31320  0.33560  0.71150  Biso   1.000  H
  H43      1.0000 0.18680  0.83560  0.78850  Biso   1.000  H
  H44      1.0000 0.81320  0.83560  0.71150  Biso   1.000  H
  H45      1.0000 0.23490  0.65620  0.21770  Biso   1.000  H
  H46      1.0000 0.76510  0.65620  0.28230  Biso   1.000  H
  H47      1.0000 0.73490  0.15620  0.21770  Biso   1.000  H
  H48      1.0000 0.26510  0.15620  0.28230  Biso   1.000  H
  H49      1.0000 0.76510  0.34380  0.78230  Biso   1.000  H
  H50      1.0000 0.23490  0.34380  0.71770  Biso   1.000  H
  H51      1.0000 0.26510  0.84380  0.78230  Biso   1.000  H
  H52      1.0000 0.73490  0.84380  0.71770  Biso   1.000  H
  H53      1.0000 0.26460  0.64420  0.16600  Biso   1.000  H
  H54      1.0000 0.73540  0.64420  0.33400  Biso   1.000  H
  H55      1.0000 0.76460  0.14420  0.16600  Biso   1.000  H
  H56      1.0000 0.23540  0.14420  0.33400  Biso   1.000  H
  H57      1.0000 0.73540  0.35580  0.83400  Biso   1.000  H
  H58      1.0000 0.26460  0.35580  0.66600  Biso   1.000  H
  H59      1.0000 0.23540  0.85580  0.83400  Biso   1.000  H
  H60      1.0000 0.76460  0.85580  0.66600  Biso   1.000  H
  C77      1.0000 0.28210  0.54850  0.21150  Biso   1.000  C
  C78      1.0000 0.71790  0.54850  0.28850  Biso   1.000  C
  C79      1.0000 0.78210  0.04850  0.21150  Biso   1.000  C
  C80      1.0000 0.21790  0.04850  0.28850  Biso   1.000  C
  C81      1.0000 0.71790  0.45150  0.78850  Biso   1.000  C
  C82      1.0000 0.28210  0.45150  0.71150  Biso   1.000  C
  C83      1.0000 0.21790  0.95150  0.78850  Biso   1.000  C
  C84      1.0000 0.78210  0.95150  0.71150  Biso   1.000  C
  C85      1.0000 0.22490  0.41290  0.20570  Biso   1.000  C
  C86      1.0000 0.77510  0.41290  0.29430  Biso   1.000  C
  C87      1.0000 0.72490  0.91290  0.20570  Biso   1.000  C
  C88      1.0000 0.27510  0.91290  0.29430  Biso   1.000  C
  C89      1.0000 0.77510  0.58710  0.79430  Biso   1.000  C
  C90      1.0000 0.22490  0.58710  0.70570  Biso   1.000  C
  C91      1.0000 0.27510  0.08710  0.79430  Biso   1.000  C
  C92      1.0000 0.72490  0.08710  0.70570  Biso   1.000  C
  H61      1.0000 0.20270  0.37840  0.18200  Biso   1.000  H
  H62      1.0000 0.79730  0.37840  0.31800  Biso   1.000  H
  H63      1.0000 0.70270  0.87840  0.18200  Biso   1.000  H
  H64      1.0000 0.29730  0.87840  0.31800  Biso   1.000  H
  H65      1.0000 0.79730  0.62160  0.81800  Biso   1.000  H
  H66      1.0000 0.20270  0.62160  0.68200  Biso   1.000  H
  H67      1.0000 0.29730  0.12160  0.81800  Biso   1.000  H
  H68      1.0000 0.70270  0.12160  0.68200  Biso   1.000  H
  H69      1.0000 0.19820  0.41640  0.23410  Biso   1.000  H
  H70      1.0000 0.80180  0.41640  0.26590  Biso   1.000  H
  H71      1.0000 0.69820  0.91640  0.23410  Biso   1.000  H
  H72      1.0000 0.30180  0.91640  0.26590  Biso   1.000  H
  H73      1.0000 0.80180  0.58360  0.76590  Biso   1.000  H
  H74      1.0000 0.19820  0.58360  0.73410  Biso   1.000  H
  H75      1.0000 0.30180  0.08360  0.76590  Biso   1.000  H
  H76      1.0000 0.69820  0.08360  0.73410  Biso   1.000  H
  H77      1.0000 0.26910  0.39240  0.21500  Biso   1.000  H
  H78      1.0000 0.73090  0.39240  0.28500  Biso   1.000  H
  H79      1.0000 0.76910  0.89240  0.21500  Biso   1.000  H
  H80      1.0000 0.23090  0.89240  0.28500  Biso   1.000  H
  H81      1.0000 0.73090  0.60760  0.78500  Biso   1.000  H
  H82      1.0000 0.26910  0.60760  0.71500  Biso   1.000  H
  H83      1.0000 0.23090  0.10760  0.78500  Biso   1.000  H
  H84      1.0000 0.76910  0.10760  0.71500  Biso   1.000  H
  C93      1.0000 0.23210  0.49490  0.18310  Biso   1.000  C
  C94      1.0000 0.76790  0.49490  0.31690  Biso   1.000  C
  C95      1.0000 0.73210  0.99490  0.18310  Biso   1.000  C
  C96      1.0000 0.26790  0.99490  0.31690  Biso   1.000  C
  C97      1.0000 0.76790  0.50510  0.81690  Biso   1.000  C
  C98      1.0000 0.23210  0.50510  0.68310  Biso   1.000  C
  C99      1.0000 0.26790  0.00510  0.81690  Biso   1.000  C
  C100     1.0000 0.73210  0.00510  0.68310  Biso   1.000  C
  C101     1.0000 0.16120  0.53160  0.17230  Biso   1.000  C
  C102     1.0000 0.83880  0.53160  0.32770  Biso   1.000  C
  C103     1.0000 0.66120  0.03160  0.17230  Biso   1.000  C
  C104     1.0000 0.33880  0.03160  0.32770  Biso   1.000  C
  C105     1.0000 0.83880  0.46840  0.82770  Biso   1.000  C
  C106     1.0000 0.16120  0.46840  0.67230  Biso   1.000  C
  C107     1.0000 0.33880  0.96840  0.82770  Biso   1.000  C
  C108     1.0000 0.66120  0.96840  0.67230  Biso   1.000  C
  H85      1.0000 0.16570  0.57900  0.15360  Biso   1.000  H
  H86      1.0000 0.83430  0.57900  0.34640  Biso   1.000  H
  H87      1.0000 0.66570  0.07900  0.15360  Biso   1.000  H
  H88      1.0000 0.33430  0.07900  0.34640  Biso   1.000  H
  H89      1.0000 0.83430  0.42100  0.84640  Biso   1.000  H
  H90      1.0000 0.16570  0.42100  0.65360  Biso   1.000  H
  H91      1.0000 0.33430  0.92100  0.84640  Biso   1.000  H
  H92      1.0000 0.66570  0.92100  0.65360  Biso   1.000  H
  H93      1.0000 0.14100  0.54370  0.20270  Biso   1.000  H
  H94      1.0000 0.85900  0.54370  0.29730  Biso   1.000  H
  H95      1.0000 0.64100  0.04370  0.20270  Biso   1.000  H
  H96      1.0000 0.35900  0.04370  0.29730  Biso   1.000  H
  H97      1.0000 0.85900  0.45630  0.79730  Biso   1.000  H
  H98      1.0000 0.14100  0.45630  0.70270  Biso   1.000  H
  H99      1.0000 0.35900  0.95630  0.79730  Biso   1.000  H
  H100     1.0000 0.64100  0.95630  0.70270  Biso   1.000  H
  H101     1.0000 0.13280  0.49500  0.15400  Biso   1.000  H
  H102     1.0000 0.86720  0.49500  0.34600  Biso   1.000  H
  H103     1.0000 0.63280  0.99500  0.15400  Biso   1.000  H
  H104     1.0000 0.36720  0.99500  0.34600  Biso   1.000  H
  H105     1.0000 0.86720  0.50500  0.84600  Biso   1.000  H
  H106     1.0000 0.13280  0.50500  0.65400  Biso   1.000  H
  H107     1.0000 0.36720  0.00500  0.84600  Biso   1.000  H
  H108     1.0000 0.63280  0.00500  0.65400  Biso   1.000  H
  C109     1.0000 0.33520  0.49550  0.14320  Biso   1.000  C
  C110     1.0000 0.66480  0.49550  0.35680  Biso   1.000  C
  C111     1.0000 0.83520  0.99550  0.14320  Biso   1.000  C
  C112     1.0000 0.16480  0.99550  0.35680  Biso   1.000  C
  C113     1.0000 0.66480  0.50450  0.85680  Biso   1.000  C
  C114     1.0000 0.33520  0.50450  0.64320  Biso   1.000  C
  C115     1.0000 0.16480  0.00450  0.85680  Biso   1.000  C
  C116     1.0000 0.83520  0.00450  0.64320  Biso   1.000  C
  C117     1.0000 0.38610  0.47630  0.10860  Biso   1.000  C
  C118     1.0000 0.61390  0.47630  0.39140  Biso   1.000  C
  C119     1.0000 0.88610  0.97630  0.10860  Biso   1.000  C
  C120     1.0000 0.11390  0.97630  0.39140  Biso   1.000  C
  C121     1.0000 0.61390  0.52370  0.89140  Biso   1.000  C
  C122     1.0000 0.38610  0.52370  0.60860  Biso   1.000  C
  C123     1.0000 0.11390  0.02370  0.89140  Biso   1.000  C
  C124     1.0000 0.88610  0.02370  0.60860  Biso   1.000  C
  C125     1.0000 0.44790  0.51870  0.11010  Biso   1.000  C
  C126     1.0000 0.55210  0.51870  0.38990  Biso   1.000  C
  C127     1.0000 0.94790  0.01870  0.11010  Biso   1.000  C
  C128     1.0000 0.05210  0.01870  0.38990  Biso   1.000  C
  C129     1.0000 0.55210  0.48130  0.88990  Biso   1.000  C
  C130     1.0000 0.44790  0.48130  0.61010  Biso   1.000  C
  C131     1.0000 0.05210  0.98130  0.88990  Biso   1.000  C
  C132     1.0000 0.94790  0.98130  0.61010  Biso   1.000  C
  H109     1.0000 0.45370  0.56140  0.13120  Biso   1.000  H
  H110     1.0000 0.54630  0.56140  0.36880  Biso   1.000  H
  H111     1.0000 0.95370  0.06140  0.13120  Biso   1.000  H
  H112     1.0000 0.04630  0.06140  0.36880  Biso   1.000  H
  H113     1.0000 0.54630  0.43860  0.86880  Biso   1.000  H
  H114     1.0000 0.45370  0.43860  0.63120  Biso   1.000  H
  H115     1.0000 0.04630  0.93860  0.86880  Biso   1.000  H
  H116     1.0000 0.95370  0.93860  0.63120  Biso   1.000  H
  C133     1.0000 0.49960  0.49720  0.08050  Biso   1.000  C
  C134     1.0000 0.50040  0.49720  0.41950  Biso   1.000  C
  C135     1.0000 0.99960  0.99720  0.08050  Biso   1.000  C
  C136     1.0000 0.00040  0.99720  0.41950  Biso   1.000  C
  C137     1.0000 0.50040  0.50280  0.91950  Biso   1.000  C
  C138     1.0000 0.49960  0.50280  0.58050  Biso   1.000  C
  C139     1.0000 0.00040  0.00280  0.91950  Biso   1.000  C
  C140     1.0000 0.99960  0.00280  0.58050  Biso   1.000  C
  H117     1.0000 0.54020  0.52520  0.08170  Biso   1.000  H
  H118     1.0000 0.45980  0.52520  0.41830  Biso   1.000  H
  H119     1.0000 0.04020  0.02520  0.08170  Biso   1.000  H
  H120     1.0000 0.95980  0.02520  0.41830  Biso   1.000  H
  H121     1.0000 0.45980  0.47480  0.91830  Biso   1.000  H
  H122     1.0000 0.54020  0.47480  0.58170  Biso   1.000  H
  H123     1.0000 0.95980  0.97480  0.91830  Biso   1.000  H
  H124     1.0000 0.04020  0.97480  0.58170  Biso   1.000  H
  C141     1.0000 0.49060  0.43280  0.04850  Biso   1.000  C
  C142     1.0000 0.50940  0.43280  0.45150  Biso   1.000  C
  C143     1.0000 0.99060  0.93280  0.04850  Biso   1.000  C
  C144     1.0000 0.00940  0.93280  0.45150  Biso   1.000  C
  C145     1.0000 0.50940  0.56720  0.95150  Biso   1.000  C
  C146     1.0000 0.49060  0.56720  0.54850  Biso   1.000  C
  C147     1.0000 0.00940  0.06720  0.95150  Biso   1.000  C
  C148     1.0000 0.99060  0.06720  0.54850  Biso   1.000  C
  C149     1.0000 0.42850  0.39300  0.04560  Biso   1.000  C
  C150     1.0000 0.57150  0.39300  0.45440  Biso   1.000  C
  C151     1.0000 0.92850  0.89300  0.04560  Biso   1.000  C
  C152     1.0000 0.07150  0.89300  0.45440  Biso   1.000  C
  C153     1.0000 0.57150  0.60700  0.95440  Biso   1.000  C
  C154     1.0000 0.42850  0.60700  0.54560  Biso   1.000  C
  C155     1.0000 0.07150  0.10700  0.95440  Biso   1.000  C
  C156     1.0000 0.92850  0.10700  0.54560  Biso   1.000  C
  H125     1.0000 0.42190  0.35140  0.02380  Biso   1.000  H
  H126     1.0000 0.57810  0.35140  0.47620  Biso   1.000  H
  H127     1.0000 0.92190  0.85140  0.02380  Biso   1.000  H
  H128     1.0000 0.07810  0.85140  0.47620  Biso   1.000  H
  H129     1.0000 0.57810  0.64860  0.97620  Biso   1.000  H
  H130     1.0000 0.42190  0.64860  0.52380  Biso   1.000  H
  H131     1.0000 0.07810  0.14860  0.97620  Biso   1.000  H
  H132     1.0000 0.92190  0.14860  0.52380  Biso   1.000  H
  C157     1.0000 0.37690  0.41560  0.07530  Biso   1.000  C
  C158     1.0000 0.62310  0.41560  0.42470  Biso   1.000  C
  C159     1.0000 0.87690  0.91560  0.07530  Biso   1.000  C
  C160     1.0000 0.12310  0.91560  0.42470  Biso   1.000  C
  C161     1.0000 0.62310  0.58440  0.92470  Biso   1.000  C
  C162     1.0000 0.37690  0.58440  0.57530  Biso   1.000  C
  C163     1.0000 0.12310  0.08440  0.92470  Biso   1.000  C
  C164     1.0000 0.87690  0.08440  0.57530  Biso   1.000  C
  H133     1.0000 0.33540  0.38950  0.07270  Biso   1.000  H
  H134     1.0000 0.66460  0.38950  0.42730  Biso   1.000  H
  H135     1.0000 0.83540  0.88950  0.07270  Biso   1.000  H
  H136     1.0000 0.16460  0.88950  0.42730  Biso   1.000  H
  H137     1.0000 0.66460  0.61050  0.92730  Biso   1.000  H
  H138     1.0000 0.33540  0.61050  0.57270  Biso   1.000  H
  H139     1.0000 0.16460  0.11050  0.92730  Biso   1.000  H
  H140     1.0000 0.83540  0.11050  0.57270  Biso   1.000  H
  C165     1.0000 0.54660  0.34370  0.99440  Biso   1.000  C
  C166     1.0000 0.45340  0.34370  0.50560  Biso   1.000  C
  C167     1.0000 0.04660  0.84370  0.99440  Biso   1.000  C
  C168     1.0000 0.95340  0.84370  0.50560  Biso   1.000  C
  C169     1.0000 0.45340  0.65630  0.00560  Biso   1.000  C
  C170     1.0000 0.54660  0.65630  0.49440  Biso   1.000  C
  C171     1.0000 0.95340  0.15630  0.00560  Biso   1.000  C
  C172     1.0000 0.04660  0.15630  0.49440  Biso   1.000  C
  H141     1.0000 0.53430  0.29900  0.01420  Biso   1.000  H
  H142     1.0000 0.46570  0.29900  0.48580  Biso   1.000  H
  H143     1.0000 0.03430  0.79900  0.01420  Biso   1.000  H
  H144     1.0000 0.96570  0.79900  0.48580  Biso   1.000  H
  H145     1.0000 0.46570  0.70100  0.98580  Biso   1.000  H
  H146     1.0000 0.53430  0.70100  0.51420  Biso   1.000  H
  H147     1.0000 0.96570  0.20100  0.98580  Biso   1.000  H
  H148     1.0000 0.03430  0.20100  0.51420  Biso   1.000  H
  H149     1.0000 0.51430  0.34740  0.96640  Biso   1.000  H
  H150     1.0000 0.48570  0.34740  0.53360  Biso   1.000  H
  H151     1.0000 0.01430  0.84740  0.96640  Biso   1.000  H
  H152     1.0000 0.98570  0.84740  0.53360  Biso   1.000  H
  H153     1.0000 0.48570  0.65260  0.03360  Biso   1.000  H
  H154     1.0000 0.51430  0.65260  0.46640  Biso   1.000  H
  H155     1.0000 0.98570  0.15260  0.03360  Biso   1.000  H
  H156     1.0000 0.01430  0.15260  0.46640  Biso   1.000  H
  C173     1.0000 0.61670  0.33360  0.97740  Biso   1.000  C
  C174     1.0000 0.38330  0.33360  0.52260  Biso   1.000  C
  C175     1.0000 0.11670  0.83360  0.97740  Biso   1.000  C
  C176     1.0000 0.88330  0.83360  0.52260  Biso   1.000  C
  C177     1.0000 0.38330  0.66640  0.02260  Biso   1.000  C
  C178     1.0000 0.61670  0.66640  0.47740  Biso   1.000  C
  C179     1.0000 0.88330  0.16640  0.02260  Biso   1.000  C
  C180     1.0000 0.11670  0.16640  0.47740  Biso   1.000  C
  C181     1.0000 0.63430  0.26550  0.95170  Biso   1.000  C
  C182     1.0000 0.36570  0.26550  0.54830  Biso   1.000  C
  C183     1.0000 0.13430  0.76550  0.95170  Biso   1.000  C
  C184     1.0000 0.86570  0.76550  0.54830  Biso   1.000  C
  C185     1.0000 0.36570  0.73450  0.04830  Biso   1.000  C
  C186     1.0000 0.63430  0.73450  0.45170  Biso   1.000  C
  C187     1.0000 0.86570  0.23450  0.04830  Biso   1.000  C
  C188     1.0000 0.13430  0.23450  0.45170  Biso   1.000  C
  H157     1.0000 0.60230  0.22620  0.94510  Biso   1.000  H
  H158     1.0000 0.39770  0.22620  0.55490  Biso   1.000  H
  H159     1.0000 0.10230  0.72620  0.94510  Biso   1.000  H
  H160     1.0000 0.89770  0.72620  0.55490  Biso   1.000  H
  H161     1.0000 0.39770  0.77380  0.05490  Biso   1.000  H
  H162     1.0000 0.60230  0.77380  0.44510  Biso   1.000  H
  H163     1.0000 0.89770  0.27380  0.05490  Biso   1.000  H
  H164     1.0000 0.10230  0.27380  0.44510  Biso   1.000  H
  C189     1.0000 0.70000  0.25780  0.93630  Biso   1.000  C
  C190     1.0000 0.30000  0.25780  0.56370  Biso   1.000  C
  C191     1.0000 0.20000  0.75780  0.93630  Biso   1.000  C
  C192     1.0000 0.80000  0.75780  0.56370  Biso   1.000  C
  C193     1.0000 0.30000  0.74220  0.06370  Biso   1.000  C
  C194     1.0000 0.70000  0.74220  0.43630  Biso   1.000  C
  C195     1.0000 0.80000  0.24220  0.06370  Biso   1.000  C
  C196     1.0000 0.20000  0.24220  0.43630  Biso   1.000  C
  H165     1.0000 0.71220  0.21360  0.91860  Biso   1.000  H
  H166     1.0000 0.28780  0.21360  0.58140  Biso   1.000  H
  H167     1.0000 0.21220  0.71360  0.91860  Biso   1.000  H
  H168     1.0000 0.78780  0.71360  0.58140  Biso   1.000  H
  H169     1.0000 0.28780  0.78640  0.08140  Biso   1.000  H
  H170     1.0000 0.71220  0.78640  0.41860  Biso   1.000  H
  H171     1.0000 0.78780  0.28640  0.08140  Biso   1.000  H
  H172     1.0000 0.21220  0.28640  0.41860  Biso   1.000  H
  C197     1.0000 0.74750  0.31630  0.94730  Biso   1.000  C
  C198     1.0000 0.25250  0.31630  0.55270  Biso   1.000  C
  C199     1.0000 0.24750  0.81630  0.94730  Biso   1.000  C
  C200     1.0000 0.75250  0.81630  0.55270  Biso   1.000  C
  C201     1.0000 0.25250  0.68370  0.05270  Biso   1.000  C
  C202     1.0000 0.74750  0.68370  0.44730  Biso   1.000  C
  C203     1.0000 0.75250  0.18370  0.05270  Biso   1.000  C
  C204     1.0000 0.24750  0.18370  0.44730  Biso   1.000  C
  H173     1.0000 0.79170  0.31040  0.93740  Biso   1.000  H
  H174     1.0000 0.20830  0.31040  0.56260  Biso   1.000  H
  H175     1.0000 0.29170  0.81040  0.93740  Biso   1.000  H
  H176     1.0000 0.70830  0.81040  0.56260  Biso   1.000  H
  H177     1.0000 0.20830  0.68960  0.06260  Biso   1.000  H
  H178     1.0000 0.79170  0.68960  0.43740  Biso   1.000  H
  H179     1.0000 0.70830  0.18960  0.06260  Biso   1.000  H
  H180     1.0000 0.29170  0.18960  0.43740  Biso   1.000  H
  C205     1.0000 0.66620  0.38990  0.98640  Biso   1.000  C
  C206     1.0000 0.33380  0.38990  0.51360  Biso   1.000  C
  C207     1.0000 0.16620  0.88990  0.98640  Biso   1.000  C
  C208     1.0000 0.83380  0.88990  0.51360  Biso   1.000  C
  C209     1.0000 0.33380  0.61010  0.01360  Biso   1.000  C
  C210     1.0000 0.66620  0.61010  0.48640  Biso   1.000  C
  C211     1.0000 0.83380  0.11010  0.01360  Biso   1.000  C
  C212     1.0000 0.16620  0.11010  0.48640  Biso   1.000  C
  H181     1.0000 0.65470  0.43550  0.00300  Biso   1.000  H
  H182     1.0000 0.34530  0.43550  0.49700  Biso   1.000  H
  H183     1.0000 0.15470  0.93550  0.00300  Biso   1.000  H
  H184     1.0000 0.84530  0.93550  0.49700  Biso   1.000  H
  H185     1.0000 0.34530  0.56450  0.99700  Biso   1.000  H
  H186     1.0000 0.65470  0.56450  0.50300  Biso   1.000  H
  H187     1.0000 0.84530  0.06450  0.99700  Biso   1.000  H
  H188     1.0000 0.15470  0.06450  0.50300  Biso   1.000  H
  C213     1.0000 0.02660  0.61130  0.08230  Biso   1.000  C
  C214     1.0000 0.97340  0.61130  0.41770  Biso   1.000  C
  C215     1.0000 0.52660  0.11130  0.08230  Biso   1.000  C
  C216     1.0000 0.47340  0.11130  0.41770  Biso   1.000  C
  C217     1.0000 0.97340  0.38870  0.91770  Biso   1.000  C
  C218     1.0000 0.02660  0.38870  0.58230  Biso   1.000  C
  C219     1.0000 0.47340  0.88870  0.91770  Biso   1.000  C
  C220     1.0000 0.52660  0.88870  0.58230  Biso   1.000  C
  C221     1.0000 0.07560  0.55490  0.05760  Biso   1.000  C
  C222     1.0000 0.92440  0.55490  0.44240  Biso   1.000  C
  C223     1.0000 0.57560  0.05490  0.05760  Biso   1.000  C
  C224     1.0000 0.42440  0.05490  0.44240  Biso   1.000  C
  C225     1.0000 0.92440  0.44510  0.94240  Biso   1.000  C
  C226     1.0000 0.07560  0.44510  0.55760  Biso   1.000  C
  C227     1.0000 0.42440  0.94510  0.94240  Biso   1.000  C
  C228     1.0000 0.57560  0.94510  0.55760  Biso   1.000  C
  C229     1.0000 0.05690  0.47650  0.05410  Biso   1.000  C
  C230     1.0000 0.94310  0.47650  0.44590  Biso   1.000  C
  C231     1.0000 0.55690  0.97650  0.05410  Biso   1.000  C
  C232     1.0000 0.44310  0.97650  0.44590  Biso   1.000  C
  C233     1.0000 0.94310  0.52350  0.94590  Biso   1.000  C
  C234     1.0000 0.05690  0.52350  0.55410  Biso   1.000  C
  C235     1.0000 0.44310  0.02350  0.94590  Biso   1.000  C
  C236     1.0000 0.55690  0.02350  0.55410  Biso   1.000  C
  H189     1.0000 0.01580  0.46050  0.06610  Biso   1.000  H
  H190     1.0000 0.98420  0.46050  0.43390  Biso   1.000  H
  H191     1.0000 0.51580  0.96050  0.06610  Biso   1.000  H
  H192     1.0000 0.48420  0.96050  0.43390  Biso   1.000  H
  H193     1.0000 0.98420  0.53950  0.93390  Biso   1.000  H
  H194     1.0000 0.01580  0.53950  0.56610  Biso   1.000  H
  H195     1.0000 0.48420  0.03950  0.93390  Biso   1.000  H
  H196     1.0000 0.51580  0.03950  0.56610  Biso   1.000  H
  C237     1.0000 0.09820  0.42160  0.03320  Biso   1.000  C
  C238     1.0000 0.90180  0.42160  0.46680  Biso   1.000  C
  C239     1.0000 0.59820  0.92160  0.03320  Biso   1.000  C
  C240     1.0000 0.40180  0.92160  0.46680  Biso   1.000  C
  C241     1.0000 0.90180  0.57840  0.96680  Biso   1.000  C
  C242     1.0000 0.09820  0.57840  0.53320  Biso   1.000  C
  C243     1.0000 0.40180  0.07840  0.96680  Biso   1.000  C
  C244     1.0000 0.59820  0.07840  0.53320  Biso   1.000  C
  C245     1.0000 0.08180  0.33480  0.03870  Biso   1.000  C
  C246     1.0000 0.91820  0.33480  0.46130  Biso   1.000  C
  C247     1.0000 0.58180  0.83480  0.03870  Biso   1.000  C
  C248     1.0000 0.41820  0.83480  0.46130  Biso   1.000  C
  C249     1.0000 0.91820  0.66520  0.96130  Biso   1.000  C
  C250     1.0000 0.08180  0.66520  0.53870  Biso   1.000  C
  C251     1.0000 0.41820  0.16520  0.96130  Biso   1.000  C
  C252     1.0000 0.58180  0.16520  0.53870  Biso   1.000  C
  C253     1.0000 0.12310  0.55110  0.85560  Biso   1.000  C
  C254     1.0000 0.87690  0.55110  0.64440  Biso   1.000  C
  C255     1.0000 0.62310  0.05110  0.85560  Biso   1.000  C
  C256     1.0000 0.37690  0.05110  0.64440  Biso   1.000  C
  C257     1.0000 0.87690  0.44890  0.14440  Biso   1.000  C
  C258     1.0000 0.12310  0.44890  0.35560  Biso   1.000  C
  C259     1.0000 0.37690  0.94890  0.14440  Biso   1.000  C
  C260     1.0000 0.62310  0.94890  0.35560  Biso   1.000  C
  C261     1.0000 0.16280  0.52560  0.90170  Biso   1.000  C
  C262     1.0000 0.83720  0.52560  0.59830  Biso   1.000  C
  C263     1.0000 0.66280  0.02560  0.90170  Biso   1.000  C
  C264     1.0000 0.33720  0.02560  0.59830  Biso   1.000  C
  C265     1.0000 0.83720  0.47440  0.09830  Biso   1.000  C
  C266     1.0000 0.16280  0.47440  0.40170  Biso   1.000  C
  C267     1.0000 0.33720  0.97440  0.09830  Biso   1.000  C
  C268     1.0000 0.66280  0.97440  0.40170  Biso   1.000  C
  C269     1.0000 0.20100  0.45550  0.89960  Biso   1.000  C
  C270     1.0000 0.79900  0.45550  0.60040  Biso   1.000  C
  C271     1.0000 0.70100  0.95550  0.89960  Biso   1.000  C
  C272     1.0000 0.29900  0.95550  0.60040  Biso   1.000  C
  C273     1.0000 0.79900  0.54450  0.10040  Biso   1.000  C
  C274     1.0000 0.20100  0.54450  0.39960  Biso   1.000  C
  C275     1.0000 0.29900  0.04450  0.10040  Biso   1.000  C
  C276     1.0000 0.70100  0.04450  0.39960  Biso   1.000  C
  H197     1.0000 0.19370  0.42220  0.87280  Biso   1.000  H
  H198     1.0000 0.80630  0.42220  0.62720  Biso   1.000  H
  H199     1.0000 0.69370  0.92220  0.87280  Biso   1.000  H
  H200     1.0000 0.30630  0.92220  0.62720  Biso   1.000  H
  H201     1.0000 0.80630  0.57780  0.12720  Biso   1.000  H
  H202     1.0000 0.19370  0.57780  0.37280  Biso   1.000  H
  H203     1.0000 0.30630  0.07780  0.12720  Biso   1.000  H
  H204     1.0000 0.69370  0.07780  0.37280  Biso   1.000  H
  C277     1.0000 0.24910  0.43460  0.93630  Biso   1.000  C
  C278     1.0000 0.75090  0.43460  0.56370  Biso   1.000  C
  C279     1.0000 0.74910  0.93460  0.93630  Biso   1.000  C
  C280     1.0000 0.25090  0.93460  0.56370  Biso   1.000  C
  C281     1.0000 0.75090  0.56540  0.06370  Biso   1.000  C
  C282     1.0000 0.24910  0.56540  0.43630  Biso   1.000  C
  C283     1.0000 0.25090  0.06540  0.06370  Biso   1.000  C
  C284     1.0000 0.74910  0.06540  0.43630  Biso   1.000  C
  C285     1.0000 0.29040  0.35980  0.93020  Biso   1.000  C
  C286     1.0000 0.70960  0.35980  0.56980  Biso   1.000  C
  C287     1.0000 0.79040  0.85980  0.93020  Biso   1.000  C
  C288     1.0000 0.20960  0.85980  0.56980  Biso   1.000  C
  C289     1.0000 0.70960  0.64020  0.06980  Biso   1.000  C
  C290     1.0000 0.29040  0.64020  0.43020  Biso   1.000  C
  C291     1.0000 0.20960  0.14020  0.06980  Biso   1.000  C
  C292     1.0000 0.79040  0.14020  0.43020  Biso   1.000  C
