data_image0
_cell_length_a       12.743
_cell_length_b       21.485
_cell_length_c       27.099
_cell_angle_alpha    108.335
_cell_angle_beta     99.51
_cell_angle_gamma    91.605

_symmetry_space_group_name_H-M    "P 1"
_symmetry_int_tables_number       1

loop_
  _symmetry_equiv_pos_as_xyz
  'x, y, z'

loop_
  _atom_site_label
  _atom_site_occupancy
  _atom_site_fract_x
  _atom_site_fract_y
  _atom_site_fract_z
  _atom_site_thermal_displace_type
  _atom_site_B_iso_or_equiv
  _atom_site_type_symbol
  Cu1      1.0000 0.52783  0.25307  0.75581  Biso   1.000  Cu
  Cu2      1.0000 0.47217  0.74693  0.24419  Biso   1.000  Cu
  O1       1.0000 0.38550  0.25990  0.77330  Biso   1.000  O
  O2       1.0000 0.61450  0.74010  0.22670  Biso   1.000  O
  C1       1.0000 0.20350  0.24540  0.76760  Biso   1.000  C
  C2       1.0000 0.79650  0.75460  0.23240  Biso   1.000  C
  F1       1.0000 0.11210  0.21640  0.73460  Biso   1.000  F
  F2       1.0000 0.88790  0.78360  0.26540  Biso   1.000  F
  F3       1.0000 0.19340  0.31160  0.77830  Biso   1.000  F
  F4       1.0000 0.80660  0.68840  0.22170  Biso   1.000  F
  F5       1.0000 0.20530  0.23410  0.81260  Biso   1.000  F
  F6       1.0000 0.79470  0.76590  0.18740  Biso   1.000  F
  C3       1.0000 0.30330  0.22600  0.74500  Biso   1.000  C
  C4       1.0000 0.69670  0.77400  0.25500  Biso   1.000  C
  C5       1.0000 0.29470  0.17490  0.69770  Biso   1.000  C
  C6       1.0000 0.70530  0.82510  0.30230  Biso   1.000  C
  H1       1.0000 0.22600  0.15400  0.67990  Biso   1.000  H
  H2       1.0000 0.77400  0.84600  0.32010  Biso   1.000  H
  C7       1.0000 0.38260  0.15320  0.67550  Biso   1.000  C
  C8       1.0000 0.61740  0.84680  0.32450  Biso   1.000  C
  C9       1.0000 0.36720  0.09440  0.62540  Biso   1.000  C
  C10      1.0000 0.63280  0.90560  0.37460  Biso   1.000  C
  F7       1.0000 0.41090  0.04200  0.63440  Biso   1.000  F
  F8       1.0000 0.58910  0.95800  0.36560  Biso   1.000  F
  F9       1.0000 0.26660  0.07540  0.60210  Biso   1.000  F
  F10      1.0000 0.73340  0.92460  0.39790  Biso   1.000  F
  F11      1.0000 0.41750  0.10780  0.58940  Biso   1.000  F
  F12      1.0000 0.58250  0.89220  0.41060  Biso   1.000  F
  O3       1.0000 0.47960  0.17500  0.69410  Biso   1.000  O
  O4       1.0000 0.52040  0.82500  0.30590  Biso   1.000  O
  O5       1.0000 0.57710  0.33250  0.81740  Biso   1.000  O
  O6       1.0000 0.42290  0.66750  0.18260  Biso   1.000  O
  C11      1.0000 0.68880  0.41480  0.88430  Biso   1.000  C
  C12      1.0000 0.31120  0.58520  0.11570  Biso   1.000  C
  F13      1.0000 0.79010  0.43220  0.90750  Biso   1.000  F
  F14      1.0000 0.20990  0.56780  0.09250  Biso   1.000  F
  F15      1.0000 0.63860  0.40390  0.92070  Biso   1.000  F
  F16      1.0000 0.36140  0.59610  0.07930  Biso   1.000  F
  F17      1.0000 0.64870  0.46710  0.87420  Biso   1.000  F
  F18      1.0000 0.35130  0.53290  0.12580  Biso   1.000  F
  C13      1.0000 0.67210  0.35550  0.83420  Biso   1.000  C
  C14      1.0000 0.32790  0.64450  0.16580  Biso   1.000  C
  C15      1.0000 0.76110  0.33290  0.81210  Biso   1.000  C
  C16      1.0000 0.23890  0.66710  0.18790  Biso   1.000  C
  H3       1.0000 0.83040  0.35260  0.83010  Biso   1.000  H
  H4       1.0000 0.16960  0.64740  0.16990  Biso   1.000  H
  C17      1.0000 0.74990  0.28300  0.76500  Biso   1.000  C
  C18      1.0000 0.25010  0.71700  0.23500  Biso   1.000  C
  C19      1.0000 0.85090  0.26250  0.74040  Biso   1.000  C
  C20      1.0000 0.14910  0.73750  0.25960  Biso   1.000  C
  F19      1.0000 0.94230  0.29240  0.77410  Biso   1.000  F
  F20      1.0000 0.05770  0.70760  0.22590  Biso   1.000  F
  F21      1.0000 0.85970  0.19840  0.72520  Biso   1.000  F
  F22      1.0000 0.14030  0.80160  0.27480  Biso   1.000  F
  F23      1.0000 0.84670  0.28210  0.69770  Biso   1.000  F
  F24      1.0000 0.15330  0.71790  0.30230  Biso   1.000  F
  O7       1.0000 0.66990  0.24680  0.73720  Biso   1.000  O
  O8       1.0000 0.33010  0.75320  0.26280  Biso   1.000  O
  O9       1.0000 0.58800  0.19700  0.81480  Biso   1.000  O
  O10      1.0000 0.41200  0.80300  0.18520  Biso   1.000  O
  N1       1.0000 0.54560  0.14360  0.81880  Biso   1.000  N
  N2       1.0000 0.45440  0.85640  0.18120  Biso   1.000  N
  C21      1.0000 0.59250  0.07910  0.79770  Biso   1.000  C
  C22      1.0000 0.40750  0.92090  0.20230  Biso   1.000  C
  C23      1.0000 0.69790  0.08310  0.83400  Biso   1.000  C
  C24      1.0000 0.30210  0.91690  0.16600  Biso   1.000  C
  H5       1.0000 0.74950  0.11390  0.82860  Biso   1.000  H
  H6       1.0000 0.25050  0.88610  0.17140  Biso   1.000  H
  H7       1.0000 0.72480  0.03940  0.82620  Biso   1.000  H
  H8       1.0000 0.27520  0.96060  0.17380  Biso   1.000  H
  H9       1.0000 0.68770  0.09860  0.87090  Biso   1.000  H
  H10      1.0000 0.31230  0.90140  0.12910  Biso   1.000  H
  C25      1.0000 0.61130  0.06820  0.74260  Biso   1.000  C
  C26      1.0000 0.38870  0.93180  0.25740  Biso   1.000  C
  H11      1.0000 0.66730  0.10080  0.74310  Biso   1.000  H
  H12      1.0000 0.33270  0.89920  0.25690  Biso   1.000  H
  H13      1.0000 0.54520  0.07290  0.72030  Biso   1.000  H
  H14      1.0000 0.45480  0.92710  0.27970  Biso   1.000  H
  H15      1.0000 0.63380  0.02390  0.72820  Biso   1.000  H
  H16      1.0000 0.36620  0.97610  0.27180  Biso   1.000  H
  C27      1.0000 0.50590  0.03120  0.80380  Biso   1.000  C
  C28      1.0000 0.49410  0.96880  0.19620  Biso   1.000  C
  C29      1.0000 0.41710  0.00520  0.75490  Biso   1.000  C
  C30      1.0000 0.58290  0.99480  0.24510  Biso   1.000  C
  H17      1.0000 0.36510  0.97540  0.76110  Biso   1.000  H
  H18      1.0000 0.63490  0.02460  0.23890  Biso   1.000  H
  H19      1.0000 0.44820  0.98140  0.72420  Biso   1.000  H
  H20      1.0000 0.55180  0.01860  0.27580  Biso   1.000  H
  H21      1.0000 0.38140  0.04230  0.74800  Biso   1.000  H
  H22      1.0000 0.61860  0.95770  0.25200  Biso   1.000  H
  C31      1.0000 0.54470  0.97400  0.82130  Biso   1.000  C
  C32      1.0000 0.45530  0.02600  0.17870  Biso   1.000  C
  H23      1.0000 0.48330  0.94730  0.82370  Biso   1.000  H
  H24      1.0000 0.51670  0.05270  0.17630  Biso   1.000  H
  H25      1.0000 0.59160  0.99100  0.85600  Biso   1.000  H
  H26      1.0000 0.40840  0.00900  0.14400  Biso   1.000  H
  H27      1.0000 0.58430  0.94690  0.79550  Biso   1.000  H
  H28      1.0000 0.41570  0.05310  0.20450  Biso   1.000  H
  N3       1.0000 0.45350  0.07690  0.84550  Biso   1.000  N
  N4       1.0000 0.54650  0.92310  0.15450  Biso   1.000  N
  O11      1.0000 0.38850  0.05600  0.86900  Biso   1.000  O
  O12      1.0000 0.61150  0.94400  0.13100  Biso   1.000  O
  C33      1.0000 0.47580  0.14080  0.85010  Biso   1.000  C
  C34      1.0000 0.52420  0.85920  0.14990  Biso   1.000  C
  C35      1.0000 0.43130  0.19580  0.88290  Biso   1.000  C
  C36      1.0000 0.56870  0.80420  0.11710  Biso   1.000  C
  C37      1.0000 0.35650  0.19590  0.91560  Biso   1.000  C
  C38      1.0000 0.64350  0.80410  0.08440  Biso   1.000  C
  H29      1.0000 0.32310  0.15710  0.91800  Biso   1.000  H
  H30      1.0000 0.67690  0.84290  0.08200  Biso   1.000  H
  N5       1.0000 0.33800  0.25610  0.94250  Biso   1.000  N
  N6       1.0000 0.66200  0.74390  0.05750  Biso   1.000  N
  N7       1.0000 0.40450  0.29590  0.92850  Biso   1.000  N
  N8       1.0000 0.59550  0.70410  0.07150  Biso   1.000  N
  C39      1.0000 0.40070  0.36830  0.94850  Biso   1.000  C
  C40      1.0000 0.59930  0.63170  0.05150  Biso   1.000  C
  H31      1.0000 0.47440  0.38970  0.95980  Biso   1.000  H
  H32      1.0000 0.52560  0.61030  0.04020  Biso   1.000  H
  H33      1.0000 0.36540  0.38010  0.97970  Biso   1.000  H
  H34      1.0000 0.63460  0.61990  0.02030  Biso   1.000  H
  C41      1.0000 0.34010  0.39370  0.90630  Biso   1.000  C
  C42      1.0000 0.65990  0.60630  0.09370  Biso   1.000  C
  H35      1.0000 0.26410  0.37660  0.89810  Biso   1.000  H
  H36      1.0000 0.73590  0.62340  0.10190  Biso   1.000  H
  H37      1.0000 0.36990  0.37750  0.87360  Biso   1.000  H
  H38      1.0000 0.63010  0.62250  0.12640  Biso   1.000  H
  C43      1.0000 0.34820  0.46990  0.92540  Biso   1.000  C
  C44      1.0000 0.65180  0.53010  0.07460  Biso   1.000  C
  H39      1.0000 0.42250  0.48700  0.92800  Biso   1.000  H
  H40      1.0000 0.57750  0.51300  0.07200  Biso   1.000  H
  H41      1.0000 0.32930  0.48640  0.96100  Biso   1.000  H
  H42      1.0000 0.67070  0.51360  0.03900  Biso   1.000  H
  C45      1.0000 0.27160  0.49490  0.88630  Biso   1.000  C
  C46      1.0000 0.72840  0.50510  0.11370  Biso   1.000  C
  H43      1.0000 0.27770  0.54310  0.89870  Biso   1.000  H
  H44      1.0000 0.72230  0.45690  0.10130  Biso   1.000  H
  H45      1.0000 0.19800  0.47850  0.88430  Biso   1.000  H
  H46      1.0000 0.80200  0.52150  0.11570  Biso   1.000  H
  H47      1.0000 0.29090  0.47890  0.85120  Biso   1.000  H
  H48      1.0000 0.70910  0.52110  0.14880  Biso   1.000  H
  C47      1.0000 0.45950  0.26210  0.89280  Biso   1.000  C
  C48      1.0000 0.54050  0.73790  0.10720  Biso   1.000  C
  H49      1.0000 0.50880  0.27990  0.87710  Biso   1.000  H
  H50      1.0000 0.49120  0.72010  0.12290  Biso   1.000  H
  Cu3      1.0000 0.79826  0.23801  0.50666  Biso   1.000  Cu
  Cu4      1.0000 0.20174  0.76199  0.49334  Biso   1.000  Cu
  O13      1.0000 0.88160  0.15320  0.52150  Biso   1.000  O
  O14      1.0000 0.11840  0.84680  0.47850  Biso   1.000  O
  C49      1.0000 0.99290  0.09820  0.56850  Biso   1.000  C
  C50      1.0000 0.00710  0.90180  0.43150  Biso   1.000  C
  F25      1.0000 0.06440  0.07980  0.53750  Biso   1.000  F
  F26      1.0000 0.93560  0.92020  0.46250  Biso   1.000  F
  F27      1.0000 0.03840  0.10500  0.61730  Biso   1.000  F
  F28      1.0000 0.96160  0.89500  0.38270  Biso   1.000  F
  F29      1.0000 0.91630  0.04860  0.55260  Biso   1.000  F
  F30      1.0000 0.08370  0.95140  0.44740  Biso   1.000  F
  C51      1.0000 0.94670  0.16240  0.56270  Biso   1.000  C
  C52      1.0000 0.05330  0.83760  0.43730  Biso   1.000  C
  C53      1.0000 0.98860  0.22130  0.60180  Biso   1.000  C
  C54      1.0000 0.01140  0.77870  0.39820  Biso   1.000  C
  H51      1.0000 0.03490  0.21920  0.63240  Biso   1.000  H
  H52      1.0000 0.96510  0.78080  0.36760  Biso   1.000  H
  C55      1.0000 0.96640  0.28330  0.59850  Biso   1.000  C
  C56      1.0000 0.03360  0.71670  0.40150  Biso   1.000  C
  C57      1.0000 0.02240  0.34420  0.64310  Biso   1.000  C
  C58      1.0000 0.97760  0.65580  0.35690  Biso   1.000  C
  F31      1.0000 0.08040  0.33090  0.68340  Biso   1.000  F
  F32      1.0000 0.91960  0.66910  0.31660  Biso   1.000  F
  F33      1.0000 0.95250  0.38570  0.66130  Biso   1.000  F
  F34      1.0000 0.04750  0.61430  0.33870  Biso   1.000  F
  F35      1.0000 0.08970  0.37750  0.62410  Biso   1.000  F
  F36      1.0000 0.91030  0.62250  0.37590  Biso   1.000  F
  O15      1.0000 0.91000  0.29830  0.56190  Biso   1.000  O
  O16      1.0000 0.09000  0.70170  0.43810  Biso   1.000  O
  O17      1.0000 0.71860  0.32540  0.48490  Biso   1.000  O
  O18      1.0000 0.28140  0.67460  0.51510  Biso   1.000  O
  C59      1.0000 0.51890  0.13650  0.40240  Biso   1.000  C
  C60      1.0000 0.48110  0.86350  0.59760  Biso   1.000  C
  F37      1.0000 0.56370  0.08920  0.36940  Biso   1.000  F
  F38      1.0000 0.43630  0.91080  0.63060  Biso   1.000  F
  F39      1.0000 0.48940  0.10940  0.43610  Biso   1.000  F
  F40      1.0000 0.51060  0.89060  0.56390  Biso   1.000  F
  F41      1.0000 0.43260  0.14870  0.37400  Biso   1.000  F
  F42      1.0000 0.56740  0.85130  0.62600  Biso   1.000  F
  C61      1.0000 0.59750  0.19640  0.43080  Biso   1.000  C
  C62      1.0000 0.40250  0.80360  0.56920  Biso   1.000  C
  C63      1.0000 0.57170  0.25600  0.42610  Biso   1.000  C
  C64      1.0000 0.42830  0.74400  0.57390  Biso   1.000  C
  H53      1.0000 0.50520  0.25790  0.40500  Biso   1.000  H
  H54      1.0000 0.49480  0.74210  0.59500  Biso   1.000  H
  C65      1.0000 0.63830  0.31460  0.45080  Biso   1.000  C
  C66      1.0000 0.36170  0.68540  0.54920  Biso   1.000  C
  C67      1.0000 0.60780  0.37410  0.43240  Biso   1.000  C
  C68      1.0000 0.39220  0.62590  0.56760  Biso   1.000  C
  F43      1.0000 0.60460  0.42770  0.47340  Biso   1.000  F
  F44      1.0000 0.39540  0.57230  0.52660  Biso   1.000  F
  F45      1.0000 0.51640  0.36450  0.40010  Biso   1.000  F
  F46      1.0000 0.48360  0.63550  0.59990  Biso   1.000  F
  F47      1.0000 0.68320  0.38790  0.40820  Biso   1.000  F
  F48      1.0000 0.31680  0.61210  0.59180  Biso   1.000  F
  O19      1.0000 0.68150  0.18030  0.45560  Biso   1.000  O
  O20      1.0000 0.31850  0.81970  0.54440  Biso   1.000  O
  O21      1.0000 0.46640  0.30720  0.69450  Biso   1.000  O
  O22      1.0000 0.53360  0.69280  0.30550  Biso   1.000  O
  N9       1.0000 0.50490  0.36170  0.69060  Biso   1.000  N
  N10      1.0000 0.49510  0.63830  0.30940  Biso   1.000  N
  C69      1.0000 0.45570  0.42580  0.71080  Biso   1.000  C
  C70      1.0000 0.54430  0.57420  0.28920  Biso   1.000  C
  C71      1.0000 0.43480  0.43600  0.76630  Biso   1.000  C
  C72      1.0000 0.56520  0.56400  0.23370  Biso   1.000  C
  H55      1.0000 0.37950  0.40270  0.76510  Biso   1.000  H
  H56      1.0000 0.62050  0.59730  0.23490  Biso   1.000  H
  H57      1.0000 0.41070  0.47990  0.78050  Biso   1.000  H
  H58      1.0000 0.58930  0.52010  0.21950  Biso   1.000  H
  H59      1.0000 0.50070  0.43200  0.78910  Biso   1.000  H
  H60      1.0000 0.49930  0.56800  0.21090  Biso   1.000  H
  C73      1.0000 0.34880  0.41850  0.67370  Biso   1.000  C
  C74      1.0000 0.65120  0.58150  0.32630  Biso   1.000  C
  H61      1.0000 0.29940  0.38690  0.67960  Biso   1.000  H
  H62      1.0000 0.70060  0.61310  0.32040  Biso   1.000  H
  H63      1.0000 0.35950  0.40270  0.63700  Biso   1.000  H
  H64      1.0000 0.64050  0.59730  0.36300  Biso   1.000  H
  H65      1.0000 0.31880  0.46130  0.68080  Biso   1.000  H
  H66      1.0000 0.68120  0.53870  0.31920  Biso   1.000  H
  C75      1.0000 0.54090  0.47430  0.70490  Biso   1.000  C
  C76      1.0000 0.45910  0.52570  0.29510  Biso   1.000  C
  C77      1.0000 0.63070  0.50070  0.75380  Biso   1.000  C
  C78      1.0000 0.36930  0.49930  0.24620  Biso   1.000  C
  H67      1.0000 0.68160  0.53110  0.74760  Biso   1.000  H
  H68      1.0000 0.31840  0.46890  0.25240  Biso   1.000  H
  H69      1.0000 0.66760  0.46380  0.76030  Biso   1.000  H
  H70      1.0000 0.33240  0.53620  0.23970  Biso   1.000  H
  H71      1.0000 0.59980  0.52380  0.78470  Biso   1.000  H
  H72      1.0000 0.40020  0.47620  0.21530  Biso   1.000  H
  C79      1.0000 0.49910  0.53040  0.68720  Biso   1.000  C
  C80      1.0000 0.50090  0.46960  0.31280  Biso   1.000  C
  H73      1.0000 0.55930  0.55840  0.68520  Biso   1.000  H
  H74      1.0000 0.44070  0.44160  0.31480  Biso   1.000  H
  H75      1.0000 0.45780  0.55650  0.71270  Biso   1.000  H
  H76      1.0000 0.54220  0.44350  0.28730  Biso   1.000  H
  H77      1.0000 0.45320  0.51270  0.65230  Biso   1.000  H
  H78      1.0000 0.54680  0.48730  0.34770  Biso   1.000  H
  O23      1.0000 0.65670  0.45040  0.63870  Biso   1.000  O
  O24      1.0000 0.34330  0.54960  0.36130  Biso   1.000  O
  N11      1.0000 0.59230  0.42890  0.66310  Biso   1.000  N
  N12      1.0000 0.40770  0.57110  0.33690  Biso   1.000  N
  C81      1.0000 0.57300  0.36490  0.65870  Biso   1.000  C
  C82      1.0000 0.42700  0.63510  0.34130  Biso   1.000  C
  C83      1.0000 0.61770  0.31030  0.62580  Biso   1.000  C
  C84      1.0000 0.38230  0.68970  0.37420  Biso   1.000  C
  C85      1.0000 0.69180  0.31270  0.59320  Biso   1.000  C
  C86      1.0000 0.30820  0.68730  0.40680  Biso   1.000  C
  H79      1.0000 0.72490  0.35220  0.59190  Biso   1.000  H
  H80      1.0000 0.27510  0.64780  0.40810  Biso   1.000  H
  N13      1.0000 0.70970  0.25200  0.56410  Biso   1.000  N
  N14      1.0000 0.29030  0.74800  0.43590  Biso   1.000  N
  N15      1.0000 0.64690  0.21010  0.57860  Biso   1.000  N
  N16      1.0000 0.35310  0.78990  0.42140  Biso   1.000  N
  C87      1.0000 0.64570  0.13810  0.55670  Biso   1.000  C
  C88      1.0000 0.35430  0.86190  0.44330  Biso   1.000  C
  H81      1.0000 0.68700  0.12690  0.52760  Biso   1.000  H
  H82      1.0000 0.31300  0.87310  0.47240  Biso   1.000  H
  H83      1.0000 0.57120  0.11920  0.54160  Biso   1.000  H
  H84      1.0000 0.42880  0.88080  0.45840  Biso   1.000  H
  C89      1.0000 0.69230  0.10720  0.59750  Biso   1.000  C
  C90      1.0000 0.30770  0.89280  0.40250  Biso   1.000  C
  H85      1.0000 0.65520  0.12150  0.62810  Biso   1.000  H
  H86      1.0000 0.34480  0.87850  0.37190  Biso   1.000  H
  H87      1.0000 0.76870  0.12300  0.61030  Biso   1.000  H
  H88      1.0000 0.23130  0.87700  0.38970  Biso   1.000  H
  C91      1.0000 0.68180  0.03210  0.57550  Biso   1.000  C
  C92      1.0000 0.31820  0.96790  0.42450  Biso   1.000  C
  H89      1.0000 0.60520  0.01620  0.56600  Biso   1.000  H
  H90      1.0000 0.39480  0.98380  0.43400  Biso   1.000  H
  H91      1.0000 0.71250  0.01810  0.54280  Biso   1.000  H
  H92      1.0000 0.28750  0.98190  0.45720  Biso   1.000  H
  C93      1.0000 0.73770  0.00070  0.61440  Biso   1.000  C
  C94      1.0000 0.26230  0.99930  0.38560  Biso   1.000  C
  H93      1.0000 0.72830  0.95270  0.59850  Biso   1.000  H
  H94      1.0000 0.27170  0.04730  0.40150  Biso   1.000  H
  H95      1.0000 0.70690  0.01370  0.64670  Biso   1.000  H
  H96      1.0000 0.29310  0.98630  0.35330  Biso   1.000  H
  H97      1.0000 0.81410  0.01530  0.62330  Biso   1.000  H
  H98      1.0000 0.18590  0.98470  0.37670  Biso   1.000  H
  C95      1.0000 0.59290  0.24440  0.61540  Biso   1.000  C
  C96      1.0000 0.40710  0.75560  0.38460  Biso   1.000  C
  H99      1.0000 0.54510  0.22590  0.63150  Biso   1.000  H
  H100     1.0000 0.45490  0.77410  0.36850  Biso   1.000  H
  Cu5      1.0000 0.99101  0.24821  0.25495  Biso   1.000  Cu
  Cu6      1.0000 0.00899  0.75179  0.74505  Biso   1.000  Cu
  O25      1.0000 0.84610  0.22690  0.29090  Biso   1.000  O
  O26      1.0000 0.15390  0.77310  0.70910  Biso   1.000  O
  C97      1.0000 0.65960  0.21450  0.28710  Biso   1.000  C
  C98      1.0000 0.34040  0.78550  0.71290  Biso   1.000  C
  F49      1.0000 0.61440  0.17320  0.23970  Biso   1.000  F
  F50      1.0000 0.38560  0.82680  0.76030  Biso   1.000  F
  F51      1.0000 0.58600  0.25490  0.30430  Biso   1.000  F
  F52      1.0000 0.41400  0.74510  0.69570  Biso   1.000  F
  F53      1.0000 0.68110  0.17870  0.31810  Biso   1.000  F
  F54      1.0000 0.31890  0.82130  0.68190  Biso   1.000  F
  C99      1.0000 0.76130  0.25070  0.28140  Biso   1.000  C
  C100     1.0000 0.23870  0.74930  0.71860  Biso   1.000  C
  C101     1.0000 0.74550  0.30600  0.26430  Biso   1.000  C
  C102     1.0000 0.25450  0.69400  0.73570  Biso   1.000  C
  H101     1.0000 0.67550  0.31990  0.25990  Biso   1.000  H
  H102     1.0000 0.32450  0.68010  0.74010  Biso   1.000  H
  C103     1.0000 0.82870  0.34140  0.25360  Biso   1.000  C
  C104     1.0000 0.17130  0.65860  0.74640  Biso   1.000  C
  C105     1.0000 0.80110  0.39830  0.23460  Biso   1.000  C
  C106     1.0000 0.19890  0.60170  0.76540  Biso   1.000  C
  F55      1.0000 0.86870  0.45130  0.26080  Biso   1.000  F
  F56      1.0000 0.13130  0.54870  0.73920  Biso   1.000  F
  F57      1.0000 0.80710  0.38340  0.18300  Biso   1.000  F
  F58      1.0000 0.19290  0.61660  0.81700  Biso   1.000  F
  F59      1.0000 0.70240  0.41700  0.23820  Biso   1.000  F
  F60      1.0000 0.29760  0.58300  0.76180  Biso   1.000  F
  O27      1.0000 0.92550  0.32870  0.25570  Biso   1.000  O
  O28      1.0000 0.07450  0.67130  0.74430  Biso   1.000  O
  O29      1.0000 0.13550  0.26850  0.21860  Biso   1.000  O
  O30      1.0000 0.86450  0.73150  0.78140  Biso   1.000  O
  C107     1.0000 0.31670  0.27240  0.21110  Biso   1.000  C
  C108     1.0000 0.68330  0.72760  0.78890  Biso   1.000  C
  F61      1.0000 0.11690  0.05110  0.26420  Biso   1.000  F
  F62      1.0000 0.88310  0.94890  0.73580  Biso   1.000  F
  F63      1.0000 0.18730  0.12810  0.33660  Biso   1.000  F
  F64      1.0000 0.81270  0.87190  0.66340  Biso   1.000  F
  F65      1.0000 0.28370  0.08450  0.27830  Biso   1.000  F
  F66      1.0000 0.71630  0.91550  0.72170  Biso   1.000  F
  C109     1.0000 0.22200  0.24240  0.22590  Biso   1.000  C
  C110     1.0000 0.77800  0.75760  0.77410  Biso   1.000  C
  C111     1.0000 0.23450  0.18900  0.24440  Biso   1.000  C
  C112     1.0000 0.76550  0.81100  0.75560  Biso   1.000  C
  H103     1.0000 0.30300  0.17250  0.24670  Biso   1.000  H
  H104     1.0000 0.69700  0.82750  0.75330  Biso   1.000  H
  C113     1.0000 0.15680  0.15870  0.25930  Biso   1.000  C
  C114     1.0000 0.84320  0.84130  0.74070  Biso   1.000  C
  C115     1.0000 0.18720  0.10480  0.28400  Biso   1.000  C
  C116     1.0000 0.81280  0.89520  0.71600  Biso   1.000  C
  F67      1.0000 0.38450  0.22900  0.19370  Biso   1.000  F
  F68      1.0000 0.61550  0.77100  0.80630  Biso   1.000  F
  F69      1.0000 0.37520  0.31610  0.25480  Biso   1.000  F
  F70      1.0000 0.62480  0.68390  0.74520  Biso   1.000  F
  F71      1.0000 0.29010  0.30450  0.17790  Biso   1.000  F
  F72      1.0000 0.70990  0.69550  0.82210  Biso   1.000  F
  O31      1.0000 0.05750  0.16720  0.25650  Biso   1.000  O
  O32      1.0000 0.94250  0.83280  0.74350  Biso   1.000  O
  O33      1.0000 0.09180  0.28640  0.32330  Biso   1.000  O
  O34      1.0000 0.90820  0.71360  0.67670  Biso   1.000  O
  N17      1.0000 0.08470  0.34230  0.35960  Biso   1.000  N
  N18      1.0000 0.91530  0.65770  0.64040  Biso   1.000  N
  C117     1.0000 0.15110  0.40550  0.36620  Biso   1.000  C
  C118     1.0000 0.84890  0.59450  0.63380  Biso   1.000  C
  C119     1.0000 0.26630  0.39510  0.38590  Biso   1.000  C
  C120     1.0000 0.73370  0.60490  0.61410  Biso   1.000  C
  H105     1.0000 0.29360  0.36330  0.35720  Biso   1.000  H
  H106     1.0000 0.70640  0.63670  0.64280  Biso   1.000  H
  H107     1.0000 0.26900  0.37820  0.41570  Biso   1.000  H
  H108     1.0000 0.73100  0.62180  0.58430  Biso   1.000  H
  H109     1.0000 0.31020  0.43700  0.39740  Biso   1.000  H
  H110     1.0000 0.68980  0.56300  0.60260  Biso   1.000  H
  C121     1.0000 0.14100  0.41790  0.31280  Biso   1.000  C
  C122     1.0000 0.85900  0.58210  0.68720  Biso   1.000  C
  H111     1.0000 0.06670  0.42450  0.30060  Biso   1.000  H
  H112     1.0000 0.93330  0.57550  0.69940  Biso   1.000  H
  H113     1.0000 0.16300  0.37980  0.28670  Biso   1.000  H
  H114     1.0000 0.83700  0.62020  0.71330  Biso   1.000  H
  H115     1.0000 0.18700  0.45720  0.31690  Biso   1.000  H
  H116     1.0000 0.81300  0.54280  0.68310  Biso   1.000  H
  C123     1.0000 0.09850  0.45450  0.40740  Biso   1.000  C
  C124     1.0000 0.90150  0.54550  0.59260  Biso   1.000  C
  C125     1.0000 0.17410  0.51170  0.44560  Biso   1.000  C
  C126     1.0000 0.82590  0.48830  0.55440  Biso   1.000  C
  H117     1.0000 0.23870  0.49480  0.45990  Biso   1.000  H
  H118     1.0000 0.76130  0.50520  0.54010  Biso   1.000  H
  H119     1.0000 0.13880  0.53570  0.47460  Biso   1.000  H
  H120     1.0000 0.86120  0.46430  0.52540  Biso   1.000  H
  H121     1.0000 0.19330  0.54140  0.42690  Biso   1.000  H
  H122     1.0000 0.80670  0.45860  0.57310  Biso   1.000  H
  C127     1.0000 0.99630  0.47970  0.38410  Biso   1.000  C
  C128     1.0000 0.00370  0.52030  0.61590  Biso   1.000  C
  H123     1.0000 0.96760  0.51060  0.41280  Biso   1.000  H
  H124     1.0000 0.03240  0.48940  0.58720  Biso   1.000  H
  H125     1.0000 0.94310  0.44250  0.36510  Biso   1.000  H
  H126     1.0000 0.05690  0.55750  0.63490  Biso   1.000  H
  H127     1.0000 0.01310  0.50210  0.35960  Biso   1.000  H
  H128     1.0000 0.98690  0.49790  0.64040  Biso   1.000  H
  N19      1.0000 0.06050  0.41050  0.43530  Biso   1.000  N
  N20      1.0000 0.93950  0.58950  0.56470  Biso   1.000  N
  O35      1.0000 0.03480  0.43190  0.48030  Biso   1.000  O
  O36      1.0000 0.96520  0.56810  0.51970  Biso   1.000  O
  C129     1.0000 0.04430  0.34560  0.40190  Biso   1.000  C
  C130     1.0000 0.95570  0.65440  0.59810  Biso   1.000  C
  C131     1.0000 0.99060  0.29470  0.41430  Biso   1.000  C
  C132     1.0000 0.00940  0.70530  0.58570  Biso   1.000  C
  C133     1.0000 0.93410  0.30170  0.45530  Biso   1.000  C
  C134     1.0000 0.06590  0.69830  0.54470  Biso   1.000  C
  H129     1.0000 0.92750  0.34240  0.48130  Biso   1.000  H
  H130     1.0000 0.07250  0.65760  0.51870  Biso   1.000  H
  N21      1.0000 0.89070  0.24340  0.45290  Biso   1.000  N
  N22      1.0000 0.10930  0.75660  0.54710  Biso   1.000  N
  N23      1.0000 0.92010  0.19810  0.41060  Biso   1.000  N
  N24      1.0000 0.07990  0.80190  0.58940  Biso   1.000  N
  C135     1.0000 0.88150  0.12930  0.39710  Biso   1.000  C
  C136     1.0000 0.11850  0.87070  0.60290  Biso   1.000  C
  H131     1.0000 0.80250  0.12590  0.39180  Biso   1.000  H
  H132     1.0000 0.19750  0.87410  0.60820  Biso   1.000  H
  H133     1.0000 0.90830  0.11370  0.42720  Biso   1.000  H
  H134     1.0000 0.09170  0.88630  0.57280  Biso   1.000  H
  C137     1.0000 0.91500  0.08540  0.34840  Biso   1.000  C
  C138     1.0000 0.08500  0.91460  0.65160  Biso   1.000  C
  H135     1.0000 0.99390  0.08680  0.35410  Biso   1.000  H
  H136     1.0000 0.00610  0.91320  0.64590  Biso   1.000  H
  H137     1.0000 0.89070  0.10170  0.31840  Biso   1.000  H
  H138     1.0000 0.10930  0.89830  0.68160  Biso   1.000  H
  C139     1.0000 0.86890  0.01500  0.33470  Biso   1.000  C
  C140     1.0000 0.13110  0.98500  0.66530  Biso   1.000  C
  H139     1.0000 0.79000  0.01400  0.32810  Biso   1.000  H
  H140     1.0000 0.21000  0.98600  0.67190  Biso   1.000  H
  H141     1.0000 0.89070  0.00000  0.36560  Biso   1.000  H
  H142     1.0000 0.10930  0.00000  0.63440  Biso   1.000  H
  C141     1.0000 0.90340  0.96650  0.28640  Biso   1.000  C
  C142     1.0000 0.09660  0.03350  0.71360  Biso   1.000  C
  H143     1.0000 0.87040  0.92230  0.28020  Biso   1.000  H
  H144     1.0000 0.12960  0.07770  0.71980  Biso   1.000  H
  H145     1.0000 0.98130  0.96610  0.29290  Biso   1.000  H
  H146     1.0000 0.01870  0.03390  0.70710  Biso   1.000  H
  H147     1.0000 0.88060  0.98020  0.25530  Biso   1.000  H
  H148     1.0000 0.11940  0.01980  0.74470  Biso   1.000  H
  C143     1.0000 0.98040  0.22770  0.38700  Biso   1.000  C
  C144     1.0000 0.01960  0.77230  0.61300  Biso   1.000  C
  H149     1.0000 0.01090  0.20650  0.35700  Biso   1.000  H
  H150     1.0000 0.98910  0.79350  0.64300  Biso   1.000  H
  Cu7      1.0000 0.22679  0.26469  0.00752  Biso   1.000  Cu
  Cu8      1.0000 0.77321  0.73531  0.99248  Biso   1.000  Cu
  O37      1.0000 0.34060  0.32520  0.06110  Biso   1.000  O
  O38      1.0000 0.65940  0.67480  0.93890  Biso   1.000  O
  C145     1.0000 0.50340  0.35850  0.11680  Biso   1.000  C
  C146     1.0000 0.49660  0.64150  0.88320  Biso   1.000  C
  F73      1.0000 0.50600  0.36640  0.16970  Biso   1.000  F
  F74      1.0000 0.49400  0.63360  0.83030  Biso   1.000  F
  F75      1.0000 0.60160  0.34600  0.11520  Biso   1.000  F
  F76      1.0000 0.39840  0.65400  0.88480  Biso   1.000  F
  F77      1.0000 0.48590  0.41630  0.12010  Biso   1.000  F
  F78      1.0000 0.51410  0.58370  0.87990  Biso   1.000  F
  C147     1.0000 0.42180  0.30370  0.08180  Biso   1.000  C
  C148     1.0000 0.57820  0.69630  0.91820  Biso   1.000  C
  C149     1.0000 0.44470  0.24050  0.07880  Biso   1.000  C
  C150     1.0000 0.55530  0.75950  0.92120  Biso   1.000  C
  H151     1.0000 0.51110  0.23370  0.09740  Biso   1.000  H
  H152     1.0000 0.48890  0.76630  0.90260  Biso   1.000  H
  C151     1.0000 0.37280  0.18590  0.04910  Biso   1.000  C
  C152     1.0000 0.62720  0.81410  0.95090  Biso   1.000  C
  C153     1.0000 0.39300  0.11760  0.05350  Biso   1.000  C
  C154     1.0000 0.60700  0.88240  0.94650  Biso   1.000  C
  F79      1.0000 0.48530  0.11760  0.08470  Biso   1.000  F
  F80      1.0000 0.51470  0.88240  0.91530  Biso   1.000  F
  F81      1.0000 0.39230  0.07440  0.00700  Biso   1.000  F
  F82      1.0000 0.60770  0.92560  0.99300  Biso   1.000  F
  F83      1.0000 0.31620  0.09700  0.07450  Biso   1.000  F
  F84      1.0000 0.68380  0.90300  0.92550  Biso   1.000  F
  O39      1.0000 0.28570  0.18600  0.01900  Biso   1.000  O
  O40      1.0000 0.71430  0.81400  0.98100  Biso   1.000  O
  O41      1.0000 0.12580  0.20510  0.94670  Biso   1.000  O
  O42      1.0000 0.87420  0.79490  0.05330  Biso   1.000  O
  C155     1.0000 0.02190  0.16730  0.86250  Biso   1.000  C
  C156     1.0000 0.97810  0.83270  0.13750  Biso   1.000  C
  F85      1.0000 0.09230  0.12710  0.84240  Biso   1.000  F
  F86      1.0000 0.90770  0.87290  0.15760  Biso   1.000  F
  F87      1.0000 0.95010  0.13200  0.87650  Biso   1.000  F
  F88      1.0000 0.04990  0.86800  0.12350  Biso   1.000  F
  F89      1.0000 0.96940  0.18650  0.82420  Biso   1.000  F
  F90      1.0000 0.03060  0.81350  0.17580  Biso   1.000  F
  C157     1.0000 0.07510  0.22460  0.91100  Biso   1.000  C
  C158     1.0000 0.92490  0.77540  0.08900  Biso   1.000  C
  C159     1.0000 0.06050  0.28840  0.91150  Biso   1.000  C
  C160     1.0000 0.93950  0.71160  0.08850  Biso   1.000  C
  H153     1.0000 0.02130  0.29550  0.88110  Biso   1.000  H
  H154     1.0000 0.97870  0.70450  0.11890  Biso   1.000  H
  C161     1.0000 0.10240  0.34280  0.95590  Biso   1.000  C
  C162     1.0000 0.89760  0.65720  0.04410  Biso   1.000  C
  C163     1.0000 0.06610  0.41030  0.95830  Biso   1.000  C
  C164     1.0000 0.93390  0.58970  0.04170  Biso   1.000  C
  F91      1.0000 0.99100  0.42480  0.98900  Biso   1.000  F
  F92      1.0000 0.00900  0.57520  0.01100  Biso   1.000  F
  F93      1.0000 0.14500  0.45800  0.97960  Biso   1.000  F
  F94      1.0000 0.85500  0.54200  0.02040  Biso   1.000  F
  F95      1.0000 0.02230  0.41420  0.91100  Biso   1.000  F
  F96      1.0000 0.97770  0.58580  0.08900  Biso   1.000  F
  O43      1.0000 0.16600  0.34300  0.99740  Biso   1.000  O
  O44      1.0000 0.83400  0.65700  0.00260  Biso   1.000  O
  O45      1.0000 0.89310  0.20820  0.18550  Biso   1.000  O
  O46      1.0000 0.10690  0.79180  0.81450  Biso   1.000  O
  N25      1.0000 0.90960  0.15210  0.15050  Biso   1.000  N
  N26      1.0000 0.09040  0.84790  0.84950  Biso   1.000  N
  C165     1.0000 0.84700  0.08960  0.14360  Biso   1.000  C
  C166     1.0000 0.15300  0.91040  0.85640  Biso   1.000  C
  C167     1.0000 0.84270  0.07800  0.19570  Biso   1.000  C
  C168     1.0000 0.15730  0.92200  0.80430  Biso   1.000  C
  H155     1.0000 0.79980  0.11030  0.21600  Biso   1.000  H
  H156     1.0000 0.20020  0.88970  0.78400  Biso   1.000  H
  H157     1.0000 0.91520  0.08280  0.21610  Biso   1.000  H
  H158     1.0000 0.08480  0.91720  0.78390  Biso   1.000  H
  H159     1.0000 0.81010  0.03350  0.18880  Biso   1.000  H
  H160     1.0000 0.18990  0.96650  0.81120  Biso   1.000  H
  C169     1.0000 0.73630  0.09290  0.11440  Biso   1.000  C
  C170     1.0000 0.26370  0.90710  0.88560  Biso   1.000  C
  H161     1.0000 0.69810  0.12450  0.13820  Biso   1.000  H
  H162     1.0000 0.30190  0.87550  0.86180  Biso   1.000  H
  H163     1.0000 0.69710  0.04930  0.10240  Biso   1.000  H
  H164     1.0000 0.30290  0.95070  0.89760  Biso   1.000  H
  H165     1.0000 0.74210  0.10690  0.08380  Biso   1.000  H
  H166     1.0000 0.25790  0.89310  0.91620  Biso   1.000  H
  C171     1.0000 0.91520  0.03980  0.10810  Biso   1.000  C
  C172     1.0000 0.08480  0.96020  0.89190  Biso   1.000  C
  C173     1.0000 0.01180  0.01970  0.13960  Biso   1.000  C
  C174     1.0000 0.98820  0.98030  0.86040  Biso   1.000  C
  H167     1.0000 0.04970  0.98870  0.11520  Biso   1.000  H
  H168     1.0000 0.95030  0.01130  0.88480  Biso   1.000  H
  H169     1.0000 0.98750  0.99860  0.16350  Biso   1.000  H
  H170     1.0000 0.01250  0.00140  0.83650  Biso   1.000  H
  H171     1.0000 0.06000  0.05880  0.16040  Biso   1.000  H
  H172     1.0000 0.94000  0.94120  0.83960  Biso   1.000  H
  C175     1.0000 0.85200  0.97990  0.06590  Biso   1.000  C
  C176     1.0000 0.14800  0.02010  0.93410  Biso   1.000  C
  H173     1.0000 0.90100  0.95220  0.04630  Biso   1.000  H
  H174     1.0000 0.09900  0.04780  0.95370  Biso   1.000  H
  H175     1.0000 0.80070  0.99450  0.04150  Biso   1.000  H
  H176     1.0000 0.19930  0.00550  0.95850  Biso   1.000  H
  H177     1.0000 0.81350  0.95470  0.08280  Biso   1.000  H
  H178     1.0000 0.18650  0.04530  0.91720  Biso   1.000  H
  N27      1.0000 0.96130  0.08510  0.08300  Biso   1.000  N
  N28      1.0000 0.03870  0.91490  0.91700  Biso   1.000  N
  O47      1.0000 0.00700  0.06240  0.04360  Biso   1.000  O
  O48      1.0000 0.99300  0.93760  0.95640  Biso   1.000  O
  C177     1.0000 0.96220  0.14940  0.11230  Biso   1.000  C
  C178     1.0000 0.03780  0.85060  0.88770  Biso   1.000  C
  C179     1.0000 0.01420  0.20170  0.10100  Biso   1.000  C
  C180     1.0000 0.98580  0.79830  0.89900  Biso   1.000  C
  C181     1.0000 0.08350  0.19670  0.06490  Biso   1.000  C
  C182     1.0000 0.91650  0.80330  0.93510  Biso   1.000  C
  H179     1.0000 0.10450  0.15650  0.04350  Biso   1.000  H
  H180     1.0000 0.89550  0.84350  0.95650  Biso   1.000  H
  N29      1.0000 0.11530  0.25560  0.06470  Biso   1.000  N
  N30      1.0000 0.88470  0.74440  0.93530  Biso   1.000  N
  N31      1.0000 0.06940  0.29940  0.10050  Biso   1.000  N
  N32      1.0000 0.93060  0.70060  0.89950  Biso   1.000  N
  C183     1.0000 0.08950  0.37030  0.11040  Biso   1.000  C
  C184     1.0000 0.91050  0.62970  0.88960  Biso   1.000  C
  H181     1.0000 0.04800  0.38160  0.08060  Biso   1.000  H
  H182     1.0000 0.95200  0.61840  0.91940  Biso   1.000  H
  H183     1.0000 0.16610  0.38000  0.11080  Biso   1.000  H
  H184     1.0000 0.83390  0.62000  0.88920  Biso   1.000  H
  C185     1.0000 0.06210  0.41370  0.16060  Biso   1.000  C
  C186     1.0000 0.93790  0.58630  0.83940  Biso   1.000  C
  H185     1.0000 0.10230  0.40250  0.19070  Biso   1.000  H
  H186     1.0000 0.89770  0.59750  0.80930  Biso   1.000  H
  H187     1.0000 0.98490  0.40570  0.16010  Biso   1.000  H
  H188     1.0000 0.01510  0.59430  0.83990  Biso   1.000  H
  C187     1.0000 0.08830  0.48660  0.16850  Biso   1.000  C
  C188     1.0000 0.91170  0.51340  0.83150  Biso   1.000  C
  H189     1.0000 0.16550  0.49420  0.16900  Biso   1.000  H
  H190     1.0000 0.83450  0.50580  0.83100  Biso   1.000  H
  H191     1.0000 0.04860  0.49730  0.13800  Biso   1.000  H
  H192     1.0000 0.95140  0.50270  0.86200  Biso   1.000  H
  C189     1.0000 0.06070  0.53260  0.21900  Biso   1.000  C
  C190     1.0000 0.93930  0.46740  0.78100  Biso   1.000  C
  H193     1.0000 0.07940  0.57830  0.22180  Biso   1.000  H
  H194     1.0000 0.92060  0.42170  0.77820  Biso   1.000  H
  H195     1.0000 0.10090  0.52300  0.24950  Biso   1.000  H
  H196     1.0000 0.89910  0.47700  0.75050  Biso   1.000  H
  H197     1.0000 0.98400  0.52620  0.21850  Biso   1.000  H
  H198     1.0000 0.01600  0.47380  0.78150  Biso   1.000  H
  C191     1.0000 0.00770  0.26950  0.12450  Biso   1.000  C
  C192     1.0000 0.99230  0.73050  0.87550  Biso   1.000  C
  H199     1.0000 0.96860  0.29010  0.15130  Biso   1.000  H
  H200     1.0000 0.03140  0.70990  0.84870  Biso   1.000  H
  C193     1.0000 0.27930  0.30860  0.52670  Biso   1.000  C
  C194     1.0000 0.72070  0.69140  0.47330  Biso   1.000  C
  C195     1.0000 0.22970  0.36420  0.53150  Biso   1.000  C
  C196     1.0000 0.77030  0.63580  0.46850  Biso   1.000  C
  H201     1.0000 0.15500  0.36330  0.53120  Biso   1.000  H
  H202     1.0000 0.84500  0.63670  0.46880  Biso   1.000  H
  C197     1.0000 0.28680  0.42330  0.53680  Biso   1.000  C
  C198     1.0000 0.71320  0.57670  0.46320  Biso   1.000  C
  H203     1.0000 0.25110  0.46200  0.53890  Biso   1.000  H
  H204     1.0000 0.74890  0.53800  0.46110  Biso   1.000  H
  C199     1.0000 0.39630  0.42440  0.53910  Biso   1.000  C
  C200     1.0000 0.60370  0.57560  0.46090  Biso   1.000  C
  H205     1.0000 0.43590  0.46470  0.54390  Biso   1.000  H
  H206     1.0000 0.56410  0.53530  0.45610  Biso   1.000  H
  C201     1.0000 0.44850  0.36830  0.53440  Biso   1.000  C
  C202     1.0000 0.55150  0.63170  0.46560  Biso   1.000  C
  H207     1.0000 0.52340  0.36940  0.53510  Biso   1.000  H
  H208     1.0000 0.47660  0.63060  0.46490  Biso   1.000  H
  C203     1.0000 0.39090  0.31080  0.52870  Biso   1.000  C
  C204     1.0000 0.60910  0.68920  0.47130  Biso   1.000  C
  H209     1.0000 0.42650  0.27190  0.52600  Biso   1.000  H
  H210     1.0000 0.57350  0.72810  0.47400  Biso   1.000  H
  C205     1.0000 0.21570  0.24460  0.52180  Biso   1.000  C
  C206     1.0000 0.78430  0.75540  0.47820  Biso   1.000  C
  H211     1.0000 0.13950  0.25470  0.52130  Biso   1.000  H
  H212     1.0000 0.86050  0.74530  0.47870  Biso   1.000  H
  C207     1.0000 0.25260  0.22640  0.57340  Biso   1.000  C
  C208     1.0000 0.74740  0.77360  0.42660  Biso   1.000  C
  H213     1.0000 0.21260  0.18560  0.57080  Biso   1.000  H
  H214     1.0000 0.78740  0.81440  0.42920  Biso   1.000  H
  H215     1.0000 0.23920  0.26210  0.60410  Biso   1.000  H
  H216     1.0000 0.76080  0.73790  0.39590  Biso   1.000  H
  H217     1.0000 0.32910  0.22040  0.57740  Biso   1.000  H
  H218     1.0000 0.67090  0.77960  0.42260  Biso   1.000  H
  C209     1.0000 0.21740  0.18800  0.47230  Biso   1.000  C
  C210     1.0000 0.78260  0.81200  0.52770  Biso   1.000  C
  H219     1.0000 0.19380  0.20180  0.44130  Biso   1.000  H
  H220     1.0000 0.80620  0.79820  0.55870  Biso   1.000  H
  H221     1.0000 0.16940  0.15100  0.47110  Biso   1.000  H
  H222     1.0000 0.83060  0.84900  0.52890  Biso   1.000  H
  H223     1.0000 0.29020  0.17450  0.47220  Biso   1.000  H
  H224     1.0000 0.70980  0.82550  0.52780  Biso   1.000  H
  C211     1.0000 0.76840  0.19690  0.98130  Biso   1.000  C
  C212     1.0000 0.23160  0.80310  0.01870  Biso   1.000  C
  C213     1.0000 0.82530  0.14220  0.97810  Biso   1.000  C
  C214     1.0000 0.17470  0.85780  0.02190  Biso   1.000  C
  H225     1.0000 0.90050  0.14620  0.98030  Biso   1.000  H
  H226     1.0000 0.09950  0.85380  0.01970  Biso   1.000  H
  C215     1.0000 0.77340  0.08120  0.97160  Biso   1.000  C
  C216     1.0000 0.22660  0.91880  0.02840  Biso   1.000  C
  H227     1.0000 0.81270  0.04370  0.96940  Biso   1.000  H
  H228     1.0000 0.18730  0.95630  0.03060  Biso   1.000  H
  C217     1.0000 0.66530  0.07620  0.96850  Biso   1.000  C
  C218     1.0000 0.33470  0.92380  0.03150  Biso   1.000  C
  H229     1.0000 0.62990  0.03500  0.96470  Biso   1.000  H
  H230     1.0000 0.37010  0.96500  0.03530  Biso   1.000  H
  C219     1.0000 0.60710  0.12890  0.97080  Biso   1.000  C
  C220     1.0000 0.39290  0.87110  0.02920  Biso   1.000  C
  H231     1.0000 0.53180  0.12390  0.96790  Biso   1.000  H
  H232     1.0000 0.46820  0.87610  0.03210  Biso   1.000  H
  C221     1.0000 0.65740  0.18980  0.97750  Biso   1.000  C
  C222     1.0000 0.34260  0.81020  0.02250  Biso   1.000  C
  H233     1.0000 0.61670  0.22660  0.97940  Biso   1.000  H
  H234     1.0000 0.38330  0.77340  0.02060  Biso   1.000  H
  C223     1.0000 0.82410  0.26250  0.98490  Biso   1.000  C
  C224     1.0000 0.17590  0.73750  0.01510  Biso   1.000  C
  H235     1.0000 0.90300  0.25940  0.99170  Biso   1.000  H
  H236     1.0000 0.09700  0.74060  0.00830  Biso   1.000  H
  C225     1.0000 0.79450  0.27690  0.93380  Biso   1.000  C
  C226     1.0000 0.20550  0.72310  0.06620  Biso   1.000  C
  H237     1.0000 0.81180  0.24050  0.90470  Biso   1.000  H
  H238     1.0000 0.18820  0.75950  0.09530  Biso   1.000  H
  H239     1.0000 0.83450  0.31770  0.93610  Biso   1.000  H
  H240     1.0000 0.16550  0.68230  0.06390  Biso   1.000  H
  H241     1.0000 0.71770  0.28200  0.92720  Biso   1.000  H
  H242     1.0000 0.28230  0.71800  0.07280  Biso   1.000  H
  C227     1.0000 0.79650  0.31910  0.03060  Biso   1.000  C
  C228     1.0000 0.20350  0.68090  0.96940  Biso   1.000  C
  H243     1.0000 0.83320  0.36050  0.03200  Biso   1.000  H
  H244     1.0000 0.16680  0.63950  0.96800  Biso   1.000  H
  H245     1.0000 0.81950  0.31050  0.06400  Biso   1.000  H
  H246     1.0000 0.18050  0.68950  0.93600  Biso   1.000  H
  H247     1.0000 0.71920  0.32230  0.02490  Biso   1.000  H
  H248     1.0000 0.28080  0.67770  0.97510  Biso   1.000  H
