data_image0
_cell_length_a       12.6829
_cell_length_b       21.4754
_cell_length_c       27.5766
_cell_angle_alpha    108.616
_cell_angle_beta     98.815
_cell_angle_gamma    91.623

_symmetry_space_group_name_H-M    "P 1"
_symmetry_int_tables_number       1

loop_
  _symmetry_equiv_pos_as_xyz
  'x, y, z'

loop_
  _atom_site_label
  _atom_site_occupancy
  _atom_site_fract_x
  _atom_site_fract_y
  _atom_site_fract_z
  _atom_site_thermal_displace_type
  _atom_site_B_iso_or_equiv
  _atom_site_type_symbol
  Cu1      1.0000 0.53432  0.25574  0.75578  Biso   1.000  Cu
  Cu2      1.0000 0.46568  0.74426  0.24422  Biso   1.000  Cu
  Cu3      1.0000 0.23478  0.26717  0.00912  Biso   1.000  Cu
  Cu4      1.0000 0.76522  0.73283  0.99088  Biso   1.000  Cu
  Cu5      1.0000 0.99306  0.24828  0.25609  Biso   1.000  Cu
  Cu6      1.0000 0.00694  0.75172  0.74391  Biso   1.000  Cu
  Cu7      1.0000 0.80897  0.23455  0.50793  Biso   1.000  Cu
  Cu8      1.0000 0.19103  0.76545  0.49207  Biso   1.000  Cu
  O1       1.0000 0.69518  0.17421  0.45940  Biso   1.000  O
  O2       1.0000 0.30482  0.82579  0.54060  Biso   1.000  O
  C1       1.0000 0.55420  0.12053  0.39463  Biso   1.000  C
  C2       1.0000 0.44580  0.87947  0.60537  Biso   1.000  C
  F1       1.0000 0.46923  0.12792  0.36268  Biso   1.000  F
  F2       1.0000 0.53077  0.87208  0.63732  Biso   1.000  F
  F3       1.0000 0.61521  0.08000  0.36488  Biso   1.000  F
  F4       1.0000 0.38479  0.92000  0.63512  Biso   1.000  F
  F5       1.0000 0.51900  0.08798  0.42393  Biso   1.000  F
  F6       1.0000 0.48100  0.91202  0.57607  Biso   1.000  F
  C3       1.0000 0.61870  0.18444  0.42767  Biso   1.000  C
  C4       1.0000 0.38130  0.81556  0.57233  Biso   1.000  C
  C5       1.0000 0.59220  0.24157  0.41880  Biso   1.000  C
  C6       1.0000 0.40780  0.75843  0.58120  Biso   1.000  C
  H1       1.0000 0.53280  0.23930  0.39250  Biso   1.000  H
  H2       1.0000 0.46720  0.76070  0.60750  Biso   1.000  H
  C7       1.0000 0.64820  0.30432  0.44658  Biso   1.000  C
  C8       1.0000 0.35180  0.69568  0.55342  Biso   1.000  C
  C9       1.0000 0.62240  0.35958  0.42318  Biso   1.000  C
  C10      1.0000 0.37760  0.64042  0.57682  Biso   1.000  C
  F7       1.0000 0.63499  0.41829  0.45972  Biso   1.000  F
  F8       1.0000 0.36501  0.58171  0.54028  Biso   1.000  F
  F9       1.0000 0.52342  0.35282  0.39663  Biso   1.000  F
  F10      1.0000 0.47658  0.64718  0.60337  Biso   1.000  F
  F11      1.0000 0.68918  0.36053  0.39049  Biso   1.000  F
  F12      1.0000 0.31082  0.63947  0.60951  Biso   1.000  F
  O3       1.0000 0.71787  0.31918  0.48540  Biso   1.000  O
  O4       1.0000 0.28213  0.68082  0.51460  Biso   1.000  O
  O5       1.0000 0.89683  0.15195  0.52230  Biso   1.000  O
  O6       1.0000 0.10317  0.84805  0.47770  Biso   1.000  O
  C11      1.0000 0.00790  0.09957  0.57057  Biso   1.000  C
  C12      1.0000 0.99210  0.90043  0.42943  Biso   1.000  C
  F13      1.0000 0.04925  0.10708  0.61973  Biso   1.000  F
  F14      1.0000 0.95075  0.89292  0.38027  Biso   1.000  F
  F15      1.0000 0.93578  0.04811  0.55412  Biso   1.000  F
  F16      1.0000 0.06422  0.95189  0.44588  Biso   1.000  F
  F17      1.0000 0.08657  0.08271  0.54290  Biso   1.000  F
  F18      1.0000 0.91343  0.91729  0.45710  Biso   1.000  F
  C13      1.0000 0.96120  0.16178  0.56320  Biso   1.000  C
  C14      1.0000 0.03880  0.83822  0.43680  Biso   1.000  C
  C15      1.0000 0.99958  0.22217  0.60241  Biso   1.000  C
  C16      1.0000 0.00042  0.77783  0.39759  Biso   1.000  C
  H3       1.0000 0.04190  0.22130  0.63370  Biso   1.000  H
  H4       1.0000 0.95810  0.77870  0.36630  Biso   1.000  H
  C17      1.0000 0.97785  0.28273  0.59694  Biso   1.000  C
  C18      1.0000 0.02215  0.71727  0.40306  Biso   1.000  C
  C19      1.0000 0.03140  0.34495  0.63972  Biso   1.000  C
  C20      1.0000 0.96860  0.65505  0.36028  Biso   1.000  C
  F19      1.0000 0.95811  0.38484  0.65936  Biso   1.000  F
  F20      1.0000 0.04189  0.61516  0.34064  Biso   1.000  F
  F21      1.0000 0.09488  0.37913  0.62086  Biso   1.000  F
  F22      1.0000 0.90512  0.62087  0.37914  Biso   1.000  F
  F23      1.0000 0.09196  0.33294  0.67954  Biso   1.000  F
  F24      1.0000 0.90804  0.66706  0.32046  Biso   1.000  F
  O7       1.0000 0.91980  0.29588  0.56051  Biso   1.000  O
  O8       1.0000 0.08020  0.70412  0.43949  Biso   1.000  O
  O9       1.0000 0.84234  0.22285  0.28827  Biso   1.000  O
  O10      1.0000 0.15766  0.77715  0.71173  Biso   1.000  O
  C21      1.0000 0.65520  0.20600  0.27695  Biso   1.000  C
  C22      1.0000 0.34480  0.79400  0.72305  Biso   1.000  C
  F25      1.0000 0.67264  0.16530  0.30418  Biso   1.000  F
  F26      1.0000 0.32736  0.83470  0.69582  Biso   1.000  F
  F27      1.0000 0.57885  0.24403  0.29552  Biso   1.000  F
  F28      1.0000 0.42115  0.75597  0.70448  Biso   1.000  F
  F29      1.0000 0.61272  0.16879  0.22794  Biso   1.000  F
  F30      1.0000 0.38728  0.83121  0.77206  Biso   1.000  F
  C23      1.0000 0.75790  0.24600  0.27720  Biso   1.000  C
  C24      1.0000 0.24210  0.75400  0.72280  Biso   1.000  C
  C25      1.0000 0.74330  0.30266  0.26234  Biso   1.000  C
  C26      1.0000 0.25670  0.69734  0.73766  Biso   1.000  C
  H5       1.0000 0.67310  0.31650  0.25760  Biso   1.000  H
  H6       1.0000 0.32690  0.68350  0.74240  Biso   1.000  H
  C27      1.0000 0.82600  0.33865  0.25440  Biso   1.000  C
  C28      1.0000 0.17400  0.66135  0.74560  Biso   1.000  C
  C29      1.0000 0.80120  0.39875  0.23829  Biso   1.000  C
  C30      1.0000 0.19880  0.60125  0.76171  Biso   1.000  C
  F31      1.0000 0.86600  0.45189  0.26787  Biso   1.000  F
  F32      1.0000 0.13400  0.54811  0.73213  Biso   1.000  F
  F33      1.0000 0.70073  0.41563  0.24087  Biso   1.000  F
  F34      1.0000 0.29927  0.58437  0.75913  Biso   1.000  F
  F35      1.0000 0.81450  0.38833  0.18897  Biso   1.000  F
  F36      1.0000 0.18550  0.61167  0.81103  Biso   1.000  F
  O11      1.0000 0.92561  0.32901  0.25749  Biso   1.000  O
  O12      1.0000 0.07439  0.67099  0.74251  Biso   1.000  O
  O13      1.0000 0.06062  0.16808  0.25906  Biso   1.000  O
  O14      1.0000 0.93938  0.83192  0.74094  Biso   1.000  O
  C31      1.0000 0.19030  0.10767  0.28860  Biso   1.000  C
  C32      1.0000 0.80970  0.89233  0.71140  Biso   1.000  C
  F37      1.0000 0.18727  0.13136  0.33946  Biso   1.000  F
  F38      1.0000 0.81273  0.86864  0.66054  Biso   1.000  F
  F39      1.0000 0.12303  0.05350  0.26910  Biso   1.000  F
  F40      1.0000 0.87697  0.94650  0.73090  Biso   1.000  F
  F41      1.0000 0.28873  0.08841  0.28412  Biso   1.000  F
  F42      1.0000 0.71127  0.91159  0.71588  Biso   1.000  F
  C33      1.0000 0.16000  0.15913  0.26278  Biso   1.000  C
  C34      1.0000 0.84000  0.84087  0.73722  Biso   1.000  C
  C35      1.0000 0.24060  0.19017  0.24851  Biso   1.000  C
  C36      1.0000 0.75940  0.80983  0.75149  Biso   1.000  C
  H7       1.0000 0.31040  0.17550  0.25210  Biso   1.000  H
  H8       1.0000 0.68960  0.82450  0.74790  Biso   1.000  H
  C37      1.0000 0.22400  0.24294  0.22866  Biso   1.000  C
  C38      1.0000 0.77600  0.75706  0.77134  Biso   1.000  C
  C39      1.0000 0.32140  0.27258  0.21476  Biso   1.000  C
  C40      1.0000 0.67860  0.72742  0.78524  Biso   1.000  C
  F43      1.0000 0.37993  0.31548  0.25649  Biso   1.000  F
  F44      1.0000 0.62007  0.68452  0.74351  Biso   1.000  F
  F45      1.0000 0.29512  0.30252  0.18071  Biso   1.000  F
  F46      1.0000 0.70488  0.69748  0.81929  Biso   1.000  F
  F47      1.0000 0.39080  0.22450  0.19530  Biso   1.000  F
  F48      1.0000 0.60920  0.77550  0.80470  Biso   1.000  F
  O15      1.0000 0.14019  0.26909  0.22201  Biso   1.000  O
  O16      1.0000 0.85981  0.73091  0.77799  Biso   1.000  O
  O17      1.0000 0.13275  0.20776  0.95007  Biso   1.000  O
  O18      1.0000 0.86725  0.79224  0.04993  Biso   1.000  O
  C41      1.0000 0.03030  0.16930  0.86736  Biso   1.000  C
  C42      1.0000 0.96970  0.83070  0.13264  Biso   1.000  C
  F49      1.0000 0.97774  0.18854  0.82946  Biso   1.000  F
  F50      1.0000 0.02226  0.81146  0.17054  Biso   1.000  F
  F51      1.0000 0.96048  0.13242  0.88043  Biso   1.000  F
  F52      1.0000 0.03952  0.86758  0.11957  Biso   1.000  F
  F53      1.0000 0.10373  0.12989  0.84702  Biso   1.000  F
  F54      1.0000 0.89627  0.87011  0.15298  Biso   1.000  F
  C43      1.0000 0.08235  0.22632  0.91506  Biso   1.000  C
  C44      1.0000 0.91765  0.77368  0.08494  Biso   1.000  C
  C45      1.0000 0.06700  0.29078  0.91590  Biso   1.000  C
  C46      1.0000 0.93300  0.70922  0.08410  Biso   1.000  C
  H9       1.0000 0.02940  0.29820  0.88590  Biso   1.000  H
  H10      1.0000 0.97060  0.70180  0.11410  Biso   1.000  H
  C47      1.0000 0.10586  0.34421  0.95991  Biso   1.000  C
  C48      1.0000 0.89414  0.65579  0.04009  Biso   1.000  C
  C49      1.0000 0.06790  0.41193  0.96247  Biso   1.000  C
  C50      1.0000 0.93210  0.58807  0.03753  Biso   1.000  C
  F55      1.0000 0.14656  0.45954  0.98256  Biso   1.000  F
  F56      1.0000 0.85344  0.54046  0.01744  Biso   1.000  F
  F57      1.0000 0.02431  0.41536  0.91633  Biso   1.000  F
  F58      1.0000 0.97569  0.58464  0.08367  Biso   1.000  F
  F59      1.0000 0.99260  0.42604  0.99264  Biso   1.000  F
  F60      1.0000 0.00740  0.57396  0.00736  Biso   1.000  F
  O19      1.0000 0.16797  0.34488  0.00036  Biso   1.000  O
  O20      1.0000 0.83203  0.65512  0.99964  Biso   1.000  O
  O21      1.0000 0.29773  0.18796  0.01761  Biso   1.000  O
  O22      1.0000 0.70227  0.81204  0.98239  Biso   1.000  O
  C51      1.0000 0.40410  0.12153  0.05350  Biso   1.000  C
  C52      1.0000 0.59590  0.87847  0.94650  Biso   1.000  C
  F61      1.0000 0.33446  0.10361  0.07943  Biso   1.000  F
  F62      1.0000 0.66554  0.89639  0.92057  Biso   1.000  F
  F63      1.0000 0.50182  0.11953  0.07827  Biso   1.000  F
  F64      1.0000 0.49818  0.88047  0.92173  Biso   1.000  F
  F65      1.0000 0.39240  0.07519  0.00693  Biso   1.000  F
  F66      1.0000 0.60760  0.92481  0.99307  Biso   1.000  F
  C53      1.0000 0.38110  0.18904  0.04949  Biso   1.000  C
  C54      1.0000 0.61890  0.81096  0.95051  Biso   1.000  C
  C55      1.0000 0.44940  0.24330  0.08129  Biso   1.000  C
  C56      1.0000 0.55060  0.75670  0.91871  Biso   1.000  C
  H11      1.0000 0.51380  0.23630  0.10080  Biso   1.000  H
  H12      1.0000 0.48620  0.76370  0.89920  Biso   1.000  H
  C57      1.0000 0.42620  0.30740  0.08533  Biso   1.000  C
  C58      1.0000 0.57380  0.69260  0.91467  Biso   1.000  C
  C59      1.0000 0.50350  0.36314  0.12411  Biso   1.000  C
  C60      1.0000 0.49650  0.63686  0.87589  Biso   1.000  C
  F67      1.0000 0.47643  0.37883  0.17091  Biso   1.000  F
  F68      1.0000 0.52357  0.62117  0.82909  Biso   1.000  F
  F69      1.0000 0.50479  0.41587  0.11074  Biso   1.000  F
  F70      1.0000 0.49521  0.58413  0.88926  Biso   1.000  F
  F71      1.0000 0.60285  0.34760  0.13002  Biso   1.000  F
  F72      1.0000 0.39715  0.65240  0.86998  Biso   1.000  F
  O23      1.0000 0.34686  0.32641  0.06194  Biso   1.000  O
  O24      1.0000 0.65314  0.67359  0.93806  Biso   1.000  O
  O25      1.0000 0.39064  0.26209  0.77227  Biso   1.000  O
  O26      1.0000 0.60936  0.73791  0.22773  Biso   1.000  O
  C61      1.0000 0.20530  0.24798  0.76470  Biso   1.000  C
  C62      1.0000 0.79470  0.75202  0.23530  Biso   1.000  C
  F73      1.0000 0.20520  0.23525  0.80915  Biso   1.000  F
  F74      1.0000 0.79480  0.76475  0.19085  Biso   1.000  F
  F75      1.0000 0.11761  0.21585  0.73184  Biso   1.000  F
  F76      1.0000 0.88239  0.78415  0.26816  Biso   1.000  F
  F77      1.0000 0.19615  0.31210  0.77463  Biso   1.000  F
  F78      1.0000 0.80385  0.68790  0.22537  Biso   1.000  F
  C63      1.0000 0.30850  0.22737  0.74370  Biso   1.000  C
  C64      1.0000 0.69150  0.77263  0.25630  Biso   1.000  C
  C65      1.0000 0.30330  0.17506  0.69803  Biso   1.000  C
  C66      1.0000 0.69670  0.82494  0.30197  Biso   1.000  C
  H13      1.0000 0.23540  0.15340  0.68010  Biso   1.000  H
  H14      1.0000 0.76460  0.84660  0.31990  Biso   1.000  H
  C67      1.0000 0.39380  0.15338  0.67777  Biso   1.000  C
  C68      1.0000 0.60620  0.84662  0.32223  Biso   1.000  C
  C69      1.0000 0.38410  0.09432  0.62804  Biso   1.000  C
  C70      1.0000 0.61590  0.90568  0.37196  Biso   1.000  C
  F79      1.0000 0.43932  0.04632  0.63657  Biso   1.000  F
  F80      1.0000 0.56068  0.95368  0.36343  Biso   1.000  F
  F81      1.0000 0.42444  0.11063  0.59152  Biso   1.000  F
  F82      1.0000 0.57556  0.88937  0.40848  Biso   1.000  F
  F83      1.0000 0.28407  0.06972  0.60791  Biso   1.000  F
  F84      1.0000 0.71593  0.93028  0.39209  Biso   1.000  F
  O27      1.0000 0.49023  0.17619  0.69612  Biso   1.000  O
  O28      1.0000 0.50977  0.82381  0.30388  Biso   1.000  O
  O29      1.0000 0.57949  0.33597  0.81526  Biso   1.000  O
  O30      1.0000 0.42051  0.66403  0.18474  Biso   1.000  O
  C71      1.0000 0.68860  0.41915  0.88210  Biso   1.000  C
  C72      1.0000 0.31140  0.58085  0.11790  Biso   1.000  C
  F85      1.0000 0.63122  0.40926  0.91637  Biso   1.000  F
  F86      1.0000 0.36878  0.59074  0.08363  Biso   1.000  F
  F87      1.0000 0.65215  0.47121  0.87033  Biso   1.000  F
  F88      1.0000 0.34785  0.52879  0.12967  Biso   1.000  F
  F89      1.0000 0.78879  0.43598  0.90647  Biso   1.000  F
  F90      1.0000 0.21121  0.56402  0.09353  Biso   1.000  F
  C73      1.0000 0.67590  0.35846  0.83338  Biso   1.000  C
  C74      1.0000 0.32410  0.64154  0.16662  Biso   1.000  C
  C75      1.0000 0.76640  0.33620  0.81304  Biso   1.000  C
  C76      1.0000 0.23360  0.66380  0.18696  Biso   1.000  C
  H15      1.0000 0.83470  0.35700  0.83120  Biso   1.000  H
  H16      1.0000 0.16530  0.64300  0.16880  Biso   1.000  H
  C77      1.0000 0.76010  0.28452  0.76697  Biso   1.000  C
  C78      1.0000 0.23990  0.71548  0.23303  Biso   1.000  C
  C79      1.0000 0.86210  0.26441  0.74444  Biso   1.000  C
  C80      1.0000 0.13790  0.73559  0.25556  Biso   1.000  C
  F91      1.0000 0.95092  0.29319  0.77836  Biso   1.000  F
  F92      1.0000 0.04908  0.70681  0.22164  Biso   1.000  F
  F93      1.0000 0.86829  0.19980  0.73017  Biso   1.000  F
  F94      1.0000 0.13171  0.80020  0.26983  Biso   1.000  F
  F95      1.0000 0.86316  0.28299  0.70260  Biso   1.000  F
  F96      1.0000 0.13684  0.71701  0.29740  Biso   1.000  F
  O31      1.0000 0.67743  0.25010  0.73833  Biso   1.000  O
  O32      1.0000 0.32257  0.74990  0.26167  Biso   1.000  O
  O33      1.0000 0.47395  0.30592  0.69378  Biso   1.000  O
  O34      1.0000 0.52605  0.69408  0.30622  Biso   1.000  O
  N1       1.0000 0.51185  0.35985  0.68886  Biso   1.000  N
  N2       1.0000 0.48815  0.64015  0.31114  Biso   1.000  N
  C81      1.0000 0.46140  0.42388  0.70752  Biso   1.000  C
  C82      1.0000 0.53860  0.57612  0.29248  Biso   1.000  C
  C83      1.0000 0.35760  0.41657  0.66943  Biso   1.000  C
  C84      1.0000 0.64240  0.58343  0.33057  Biso   1.000  C
  H17      1.0000 0.30590  0.38550  0.67460  Biso   1.000  H
  H18      1.0000 0.69410  0.61450  0.32540  Biso   1.000  H
  H19      1.0000 0.37200  0.40000  0.63380  Biso   1.000  H
  H20      1.0000 0.62800  0.60000  0.36620  Biso   1.000  H
  H21      1.0000 0.32810  0.45960  0.67540  Biso   1.000  H
  H22      1.0000 0.67190  0.54040  0.32460  Biso   1.000  H
  C85      1.0000 0.43800  0.43606  0.76225  Biso   1.000  C
  C86      1.0000 0.56200  0.56394  0.23775  Biso   1.000  C
  H23      1.0000 0.38120  0.40360  0.76140  Biso   1.000  H
  H24      1.0000 0.61880  0.59640  0.23860  Biso   1.000  H
  H25      1.0000 0.41480  0.48060  0.77560  Biso   1.000  H
  H26      1.0000 0.58520  0.51940  0.22440  Biso   1.000  H
  H27      1.0000 0.50290  0.43180  0.78490  Biso   1.000  H
  H28      1.0000 0.49710  0.56820  0.21510  Biso   1.000  H
  C87      1.0000 0.55040  0.47249  0.70323  Biso   1.000  C
  C88      1.0000 0.44960  0.52751  0.29677  Biso   1.000  C
  C89      1.0000 0.63810  0.49659  0.75106  Biso   1.000  C
  C90      1.0000 0.36190  0.50341  0.24894  Biso   1.000  C
  H29      1.0000 0.69120  0.52670  0.74570  Biso   1.000  H
  H30      1.0000 0.30880  0.47330  0.25430  Biso   1.000  H
  H31      1.0000 0.67300  0.45880  0.75680  Biso   1.000  H
  H32      1.0000 0.32700  0.54120  0.24320  Biso   1.000  H
  H33      1.0000 0.60650  0.51980  0.78150  Biso   1.000  H
  H34      1.0000 0.39350  0.48020  0.21850  Biso   1.000  H
  C91      1.0000 0.51010  0.52928  0.68610  Biso   1.000  C
  C92      1.0000 0.48990  0.47072  0.31390  Biso   1.000  C
  H35      1.0000 0.57120  0.55710  0.68450  Biso   1.000  H
  H36      1.0000 0.42880  0.44290  0.31550  Biso   1.000  H
  H37      1.0000 0.46790  0.55560  0.71100  Biso   1.000  H
  H38      1.0000 0.53210  0.44440  0.28900  Biso   1.000  H
  H39      1.0000 0.46520  0.51190  0.65170  Biso   1.000  H
  H40      1.0000 0.53480  0.48810  0.34830  Biso   1.000  H
  N3       1.0000 0.60217  0.42661  0.66162  Biso   1.000  N
  N4       1.0000 0.39783  0.57339  0.33838  Biso   1.000  N
  O35      1.0000 0.66744  0.44780  0.63825  Biso   1.000  O
  O36      1.0000 0.33256  0.55220  0.36175  Biso   1.000  O
  C93      1.0000 0.58372  0.36304  0.65838  Biso   1.000  C
  C94      1.0000 0.41628  0.63696  0.34162  Biso   1.000  C
  C95      1.0000 0.63014  0.30817  0.62630  Biso   1.000  C
  C96      1.0000 0.36986  0.69183  0.37370  Biso   1.000  C
  C97      1.0000 0.70300  0.31000  0.59346  Biso   1.000  C
  C98      1.0000 0.29700  0.69000  0.40654  Biso   1.000  C
  H41      1.0000 0.73470  0.34930  0.59100  Biso   1.000  H
  H42      1.0000 0.26530  0.65070  0.40900  Biso   1.000  H
  N5       1.0000 0.72189  0.24952  0.56616  Biso   1.000  N
  N6       1.0000 0.27811  0.75048  0.43384  Biso   1.000  N
  N7       1.0000 0.66133  0.20785  0.58111  Biso   1.000  N
  N8       1.0000 0.33867  0.79215  0.41889  Biso   1.000  N
  C99      1.0000 0.66190  0.13588  0.55982  Biso   1.000  C
  C100     1.0000 0.33810  0.86412  0.44018  Biso   1.000  C
  H43      1.0000 0.70610  0.12480  0.53210  Biso   1.000  H
  H44      1.0000 0.29390  0.87520  0.46790  Biso   1.000  H
  H45      1.0000 0.58790  0.11650  0.54390  Biso   1.000  H
  H46      1.0000 0.41210  0.88350  0.45610  Biso   1.000  H
  C101     1.0000 0.70530  0.10523  0.60082  Biso   1.000  C
  C102     1.0000 0.29470  0.89477  0.39918  Biso   1.000  C
  H47      1.0000 0.66480  0.11890  0.62990  Biso   1.000  H
  H48      1.0000 0.33520  0.88110  0.37010  Biso   1.000  H
  H49      1.0000 0.78140  0.12150  0.61470  Biso   1.000  H
  H50      1.0000 0.21860  0.87850  0.38530  Biso   1.000  H
  C103     1.0000 0.74580  0.99785  0.61671  Biso   1.000  C
  C104     1.0000 0.25420  0.00215  0.38329  Biso   1.000  C
  H51      1.0000 0.73830  0.94990  0.60020  Biso   1.000  H
  H52      1.0000 0.26170  0.05010  0.39980  Biso   1.000  H
  H53      1.0000 0.70910  0.00970  0.64680  Biso   1.000  H
  H54      1.0000 0.29090  0.99030  0.35320  Biso   1.000  H
  H55      1.0000 0.82180  0.01310  0.62810  Biso   1.000  H
  H56      1.0000 0.17820  0.98690  0.37190  Biso   1.000  H
  C105     1.0000 0.60616  0.24155  0.61745  Biso   1.000  C
  C106     1.0000 0.39384  0.75845  0.38255  Biso   1.000  C
  H57      1.0000 0.55930  0.22320  0.63410  Biso   1.000  H
  H58      1.0000 0.44070  0.77680  0.36590  Biso   1.000  H
  O37      1.0000 0.59129  0.20266  0.81544  Biso   1.000  O
  O38      1.0000 0.40871  0.79734  0.18456  Biso   1.000  O
  N9       1.0000 0.55399  0.14832  0.82027  Biso   1.000  N
  N10      1.0000 0.44601  0.85168  0.17973  Biso   1.000  N
  C107     1.0000 0.60580  0.08487  0.80147  Biso   1.000  C
  C108     1.0000 0.39420  0.91513  0.19853  Biso   1.000  C
  C109     1.0000 0.62710  0.07294  0.74667  Biso   1.000  C
  C110     1.0000 0.37290  0.92706  0.25333  Biso   1.000  C
  H59      1.0000 0.68180  0.10630  0.74700  Biso   1.000  H
  H60      1.0000 0.31820  0.89370  0.25300  Biso   1.000  H
  H61      1.0000 0.56080  0.07590  0.72430  Biso   1.000  H
  H62      1.0000 0.43920  0.92410  0.27570  Biso   1.000  H
  H63      1.0000 0.65220  0.02900  0.73340  Biso   1.000  H
  H64      1.0000 0.34780  0.97100  0.26660  Biso   1.000  H
  C111     1.0000 0.71190  0.09381  0.83873  Biso   1.000  C
  C112     1.0000 0.28810  0.90619  0.16127  Biso   1.000  C
  H65      1.0000 0.76150  0.12530  0.83270  Biso   1.000  H
  H66      1.0000 0.23850  0.87470  0.16730  Biso   1.000  H
  H67      1.0000 0.74300  0.05130  0.83270  Biso   1.000  H
  H68      1.0000 0.25700  0.94870  0.16730  Biso   1.000  H
  H69      1.0000 0.69920  0.11050  0.87460  Biso   1.000  H
  H70      1.0000 0.30080  0.88950  0.12540  Biso   1.000  H
  C113     1.0000 0.52050  0.03538  0.80735  Biso   1.000  C
  C114     1.0000 0.47950  0.96462  0.19265  Biso   1.000  C
  C115     1.0000 0.43450  0.00677  0.75951  Biso   1.000  C
  C116     1.0000 0.56550  0.99323  0.24049  Biso   1.000  C
  H71      1.0000 0.38360  0.97640  0.76600  Biso   1.000  H
  H72      1.0000 0.61640  0.02360  0.23400  Biso   1.000  H
  H73      1.0000 0.46780  0.98290  0.72990  Biso   1.000  H
  H74      1.0000 0.53220  0.01710  0.27010  Biso   1.000  H
  H75      1.0000 0.39670  0.04260  0.75180  Biso   1.000  H
  H76      1.0000 0.60330  0.95740  0.24820  Biso   1.000  H
  C117     1.0000 0.56440  0.98101  0.82688  Biso   1.000  C
  C118     1.0000 0.43560  0.01899  0.17312  Biso   1.000  C
  H77      1.0000 0.50480  0.95270  0.82940  Biso   1.000  H
  H78      1.0000 0.49520  0.04730  0.17060  Biso   1.000  H
  H79      1.0000 0.60880  0.00070  0.86120  Biso   1.000  H
  H80      1.0000 0.39120  0.99930  0.13880  Biso   1.000  H
  H81      1.0000 0.60780  0.95460  0.80260  Biso   1.000  H
  H82      1.0000 0.39220  0.04540  0.19740  Biso   1.000  H
  N11      1.0000 0.46588  0.08130  0.84792  Biso   1.000  N
  N12      1.0000 0.53412  0.91870  0.15208  Biso   1.000  N
  O39      1.0000 0.40096  0.05978  0.87127  Biso   1.000  O
  O40      1.0000 0.59904  0.94022  0.12873  Biso   1.000  O
  C119     1.0000 0.48250  0.14502  0.85050  Biso   1.000  C
  C120     1.0000 0.51750  0.85498  0.14950  Biso   1.000  C
  C121     1.0000 0.43427  0.19962  0.88195  Biso   1.000  C
  C122     1.0000 0.56573  0.80038  0.11805  Biso   1.000  C
  C123     1.0000 0.36390  0.19840  0.91629  Biso   1.000  C
  C124     1.0000 0.63610  0.80160  0.08371  Biso   1.000  C
  H83      1.0000 0.33610  0.15940  0.92070  Biso   1.000  H
  H84      1.0000 0.66390  0.84060  0.07930  Biso   1.000  H
  N13      1.0000 0.34108  0.25876  0.94189  Biso   1.000  N
  N14      1.0000 0.65892  0.74124  0.05811  Biso   1.000  N
  N15      1.0000 0.39707  0.29945  0.92401  Biso   1.000  N
  N16      1.0000 0.60293  0.70055  0.07599  Biso   1.000  N
  C125     1.0000 0.39180  0.37095  0.94338  Biso   1.000  C
  C126     1.0000 0.60820  0.62905  0.05662  Biso   1.000  C
  H85      1.0000 0.46540  0.39270  0.95490  Biso   1.000  H
  H86      1.0000 0.53460  0.60730  0.04510  Biso   1.000  H
  H87      1.0000 0.35500  0.38260  0.97390  Biso   1.000  H
  H88      1.0000 0.64500  0.61740  0.02610  Biso   1.000  H
  C127     1.0000 0.33290  0.39651  0.90243  Biso   1.000  C
  C128     1.0000 0.66710  0.60349  0.09757  Biso   1.000  C
  H89      1.0000 0.25680  0.37920  0.89420  Biso   1.000  H
  H90      1.0000 0.74320  0.62080  0.10580  Biso   1.000  H
  H91      1.0000 0.36400  0.38000  0.87030  Biso   1.000  H
  H92      1.0000 0.63600  0.62000  0.12970  Biso   1.000  H
  C129     1.0000 0.33930  0.47158  0.92000  Biso   1.000  C
  C130     1.0000 0.66070  0.52842  0.08000  Biso   1.000  C
  H93      1.0000 0.31880  0.48840  0.95480  Biso   1.000  H
  H94      1.0000 0.68120  0.51160  0.04520  Biso   1.000  H
  H95      1.0000 0.41410  0.48870  0.92290  Biso   1.000  H
  H96      1.0000 0.58590  0.51130  0.07710  Biso   1.000  H
  C131     1.0000 0.26650  0.49714  0.88257  Biso   1.000  C
  C132     1.0000 0.73350  0.50286  0.11743  Biso   1.000  C
  H97      1.0000 0.27310  0.54550  0.89530  Biso   1.000  H
  H98      1.0000 0.72690  0.45450  0.10470  Biso   1.000  H
  H99      1.0000 0.19210  0.48110  0.88010  Biso   1.000  H
  H100     1.0000 0.80790  0.51890  0.11990  Biso   1.000  H
  H101     1.0000 0.28740  0.48140  0.84820  Biso   1.000  H
  H102     1.0000 0.71260  0.51860  0.15180  Biso   1.000  H
  C133     1.0000 0.45339  0.26582  0.88818  Biso   1.000  C
  C134     1.0000 0.54661  0.73418  0.11182  Biso   1.000  C
  H103     1.0000 0.49790  0.28390  0.87040  Biso   1.000  H
  H104     1.0000 0.50210  0.71610  0.12960  Biso   1.000  H
  O41      1.0000 0.90179  0.20756  0.18672  Biso   1.000  O
  O42      1.0000 0.09821  0.79244  0.81328  Biso   1.000  O
  N17      1.0000 0.92105  0.15208  0.15294  Biso   1.000  N
  N18      1.0000 0.07895  0.84792  0.84706  Biso   1.000  N
  C135     1.0000 0.85850  0.08751  0.14407  Biso   1.000  C
  C136     1.0000 0.14150  0.91249  0.85593  Biso   1.000  C
  C137     1.0000 0.84550  0.07712  0.19506  Biso   1.000  C
  C138     1.0000 0.15450  0.92288  0.80494  Biso   1.000  C
  H105     1.0000 0.91590  0.07350  0.21390  Biso   1.000  H
  H106     1.0000 0.08410  0.92650  0.78610  Biso   1.000  H
  H107     1.0000 0.79970  0.03650  0.18780  Biso   1.000  H
  H108     1.0000 0.20030  0.96350  0.81220  Biso   1.000  H
  H109     1.0000 0.81250  0.11470  0.21630  Biso   1.000  H
  H110     1.0000 0.18750  0.88530  0.78370  Biso   1.000  H
  C139     1.0000 0.74764  0.09233  0.11439  Biso   1.000  C
  C140     1.0000 0.25236  0.90767  0.88561  Biso   1.000  C
  H111     1.0000 0.75560  0.09860  0.08140  Biso   1.000  H
  H112     1.0000 0.24440  0.90140  0.91860  Biso   1.000  H
  H113     1.0000 0.71420  0.12990  0.13530  Biso   1.000  H
  H114     1.0000 0.28580  0.87010  0.86470  Biso   1.000  H
  H115     1.0000 0.70250  0.05160  0.10750  Biso   1.000  H
  H116     1.0000 0.29750  0.94840  0.89250  Biso   1.000  H
  C141     1.0000 0.92850  0.03925  0.11169  Biso   1.000  C
  C142     1.0000 0.07150  0.96075  0.88831  Biso   1.000  C
  C143     1.0000 0.02160  0.01955  0.14460  Biso   1.000  C
  C144     1.0000 0.97840  0.98045  0.85540  Biso   1.000  C
  H117     1.0000 0.05910  0.05910  0.17120  Biso   1.000  H
  H118     1.0000 0.94090  0.94090  0.82880  Biso   1.000  H
  H119     1.0000 0.07130  0.99680  0.12230  Biso   1.000  H
  H120     1.0000 0.92870  0.00320  0.87770  Biso   1.000  H
  H121     1.0000 0.99380  0.99010  0.16130  Biso   1.000  H
  H122     1.0000 0.00620  0.00990  0.83870  Biso   1.000  H
  C145     1.0000 0.86810  0.97880  0.06954  Biso   1.000  C
  C146     1.0000 0.13190  0.02120  0.93046  Biso   1.000  C
  H123     1.0000 0.80930  0.99270  0.04900  Biso   1.000  H
  H124     1.0000 0.19070  0.00730  0.95100  Biso   1.000  H
  H125     1.0000 0.83920  0.94910  0.08570  Biso   1.000  H
  H126     1.0000 0.16080  0.05090  0.91430  Biso   1.000  H
  H127     1.0000 0.91720  0.95580  0.04690  Biso   1.000  H
  H128     1.0000 0.08280  0.04420  0.95310  Biso   1.000  H
  N19      1.0000 0.97968  0.08336  0.08761  Biso   1.000  N
  N20      1.0000 0.02032  0.91664  0.91239  Biso   1.000  N
  O43      1.0000 0.03147  0.06108  0.05049  Biso   1.000  O
  O44      1.0000 0.96853  0.93892  0.94951  Biso   1.000  O
  C147     1.0000 0.97837  0.14798  0.11547  Biso   1.000  C
  C148     1.0000 0.02163  0.85202  0.88453  Biso   1.000  C
  C149     1.0000 0.02997  0.20157  0.10483  Biso   1.000  C
  C150     1.0000 0.97003  0.79843  0.89517  Biso   1.000  C
  C151     1.0000 0.09630  0.19696  0.06758  Biso   1.000  C
  C152     1.0000 0.90370  0.80304  0.93242  Biso   1.000  C
  H129     1.0000 0.11490  0.15670  0.04510  Biso   1.000  H
  H130     1.0000 0.88510  0.84330  0.95490  Biso   1.000  H
  N21      1.0000 0.12930  0.25615  0.06801  Biso   1.000  N
  N22      1.0000 0.87070  0.74385  0.93199  Biso   1.000  N
  N23      1.0000 0.08469  0.29944  0.10581  Biso   1.000  N
  N24      1.0000 0.91531  0.70056  0.89419  Biso   1.000  N
  C153     1.0000 0.10800  0.37033  0.11621  Biso   1.000  C
  C154     1.0000 0.89200  0.62967  0.88379  Biso   1.000  C
  H131     1.0000 0.07920  0.38130  0.08470  Biso   1.000  H
  H132     1.0000 0.92080  0.61870  0.91530  Biso   1.000  H
  H133     1.0000 0.18660  0.38060  0.12340  Biso   1.000  H
  H134     1.0000 0.81340  0.61940  0.87660  Biso   1.000  H
  C155     1.0000 0.06120  0.41283  0.16121  Biso   1.000  C
  C156     1.0000 0.93880  0.58717  0.83879  Biso   1.000  C
  H135     1.0000 0.09200  0.40360  0.19320  Biso   1.000  H
  H136     1.0000 0.90800  0.59640  0.80680  Biso   1.000  H
  H137     1.0000 0.98280  0.40200  0.15480  Biso   1.000  H
  H138     1.0000 0.01720  0.59800  0.84520  Biso   1.000  H
  C157     1.0000 0.08420  0.48566  0.16901  Biso   1.000  C
  C158     1.0000 0.91580  0.51434  0.83099  Biso   1.000  C
  H139     1.0000 0.16240  0.49560  0.17300  Biso   1.000  H
  H140     1.0000 0.83760  0.50440  0.82700  Biso   1.000  H
  H141     1.0000 0.04960  0.49520  0.13770  Biso   1.000  H
  H142     1.0000 0.95040  0.50480  0.86230  Biso   1.000  H
  C159     1.0000 0.04420  0.53015  0.21622  Biso   1.000  C
  C160     1.0000 0.95580  0.46985  0.78378  Biso   1.000  C
  H143     1.0000 0.06040  0.57630  0.21950  Biso   1.000  H
  H144     1.0000 0.93960  0.42370  0.78050  Biso   1.000  H
  H145     1.0000 0.07980  0.52180  0.24750  Biso   1.000  H
  H146     1.0000 0.92020  0.47820  0.75250  Biso   1.000  H
  H147     1.0000 0.96670  0.52100  0.21220  Biso   1.000  H
  H148     1.0000 0.03330  0.47900  0.78780  Biso   1.000  H
  C161     1.0000 0.02424  0.26871  0.12817  Biso   1.000  C
  C162     1.0000 0.97576  0.73129  0.87183  Biso   1.000  C
  H149     1.0000 0.98490  0.28890  0.15490  Biso   1.000  H
  H150     1.0000 0.01510  0.71110  0.84510  Biso   1.000  H
  O45      1.0000 0.09032  0.28750  0.32383  Biso   1.000  O
  O46      1.0000 0.90968  0.71250  0.67617  Biso   1.000  O
  N25      1.0000 0.08470  0.34321  0.36043  Biso   1.000  N
  N26      1.0000 0.91530  0.65679  0.63957  Biso   1.000  N
  C163     1.0000 0.15130  0.40525  0.36617  Biso   1.000  C
  C164     1.0000 0.84870  0.59475  0.63383  Biso   1.000  C
  C165     1.0000 0.14110  0.41961  0.31524  Biso   1.000  C
  C166     1.0000 0.85890  0.58039  0.68476  Biso   1.000  C
  H151     1.0000 0.17460  0.38600  0.29050  Biso   1.000  H
  H152     1.0000 0.82540  0.61400  0.70950  Biso   1.000  H
  H153     1.0000 0.17680  0.46320  0.32130  Biso   1.000  H
  H154     1.0000 0.82320  0.53680  0.67870  Biso   1.000  H
  H155     1.0000 0.06520  0.41900  0.30100  Biso   1.000  H
  H156     1.0000 0.93480  0.58100  0.69900  Biso   1.000  H
  C167     1.0000 0.26729  0.39307  0.38399  Biso   1.000  C
  C168     1.0000 0.73271  0.60693  0.61601  Biso   1.000  C
  H157     1.0000 0.29360  0.36140  0.35500  Biso   1.000  H
  H158     1.0000 0.70640  0.63860  0.64500  Biso   1.000  H
  H159     1.0000 0.27000  0.37530  0.41270  Biso   1.000  H
  H160     1.0000 0.73000  0.62470  0.58730  Biso   1.000  H
  H161     1.0000 0.31230  0.43470  0.39560  Biso   1.000  H
  H162     1.0000 0.68770  0.56530  0.60440  Biso   1.000  H
  C169     1.0000 0.10140  0.45540  0.40938  Biso   1.000  C
  C170     1.0000 0.89860  0.54460  0.59062  Biso   1.000  C
  C171     1.0000 0.17910  0.51053  0.44744  Biso   1.000  C
  C172     1.0000 0.82090  0.48947  0.55256  Biso   1.000  C
  H163     1.0000 0.14100  0.53940  0.47310  Biso   1.000  H
  H164     1.0000 0.85900  0.46060  0.52690  Biso   1.000  H
  H165     1.0000 0.21040  0.53610  0.42860  Biso   1.000  H
  H166     1.0000 0.78960  0.46390  0.57140  Biso   1.000  H
  H167     1.0000 0.23620  0.49170  0.46520  Biso   1.000  H
  H168     1.0000 0.76380  0.50830  0.53480  Biso   1.000  H
  C173     1.0000 0.00070  0.48277  0.38849  Biso   1.000  C
  C174     1.0000 0.99930  0.51723  0.61151  Biso   1.000  C
  H169     1.0000 0.97340  0.51370  0.41750  Biso   1.000  H
  H170     1.0000 0.02660  0.48630  0.58250  Biso   1.000  H
  H171     1.0000 0.94600  0.44640  0.36970  Biso   1.000  H
  H172     1.0000 0.05400  0.55360  0.63030  Biso   1.000  H
  H173     1.0000 0.01820  0.50570  0.36490  Biso   1.000  H
  H174     1.0000 0.98180  0.49430  0.63510  Biso   1.000  H
  N27      1.0000 0.06276  0.41027  0.43580  Biso   1.000  N
  N28      1.0000 0.93724  0.58973  0.56420  Biso   1.000  N
  O47      1.0000 0.03916  0.43049  0.48117  Biso   1.000  O
  O48      1.0000 0.96084  0.56951  0.51883  Biso   1.000  O
  C175     1.0000 0.04404  0.34715  0.40293  Biso   1.000  C
  C176     1.0000 0.95596  0.65285  0.59707  Biso   1.000  C
  C177     1.0000 0.99072  0.29463  0.41372  Biso   1.000  C
  C178     1.0000 0.00928  0.70537  0.58628  Biso   1.000  C
  C179     1.0000 0.93662  0.30054  0.45538  Biso   1.000  C
  C180     1.0000 0.06338  0.69946  0.54462  Biso   1.000  C
  H175     1.0000 0.93040  0.34100  0.48160  Biso   1.000  H
  H176     1.0000 0.06960  0.65900  0.51840  Biso   1.000  H
  N29      1.0000 0.89528  0.24219  0.45344  Biso   1.000  N
  N30      1.0000 0.10472  0.75781  0.54656  Biso   1.000  N
  N31      1.0000 0.92254  0.19774  0.40996  Biso   1.000  N
  N32      1.0000 0.07746  0.80226  0.59004  Biso   1.000  N
  C181     1.0000 0.89210  0.12729  0.39736  Biso   1.000  C
  C182     1.0000 0.10790  0.87271  0.60264  Biso   1.000  C
  H177     1.0000 0.81520  0.12160  0.39900  Biso   1.000  H
  H178     1.0000 0.18480  0.87840  0.60100  Biso   1.000  H
  H179     1.0000 0.93280  0.11170  0.42430  Biso   1.000  H
  H180     1.0000 0.06720  0.88830  0.57570  Biso   1.000  H
  C183     1.0000 0.91060  0.08528  0.34605  Biso   1.000  C
  C184     1.0000 0.08940  0.91472  0.65395  Biso   1.000  C
  H181     1.0000 0.98800  0.08920  0.34470  Biso   1.000  H
  H182     1.0000 0.01200  0.91080  0.65530  Biso   1.000  H
  H183     1.0000 0.87210  0.10160  0.31910  Biso   1.000  H
  H184     1.0000 0.12790  0.89840  0.68090  Biso   1.000  H
  C185     1.0000 0.69610  0.03025  0.57806  Biso   1.000  C
  C186     1.0000 0.30390  0.96975  0.42194  Biso   1.000  C
  H185     1.0000 0.61960  0.01410  0.56640  Biso   1.000  H
  H186     1.0000 0.38040  0.98590  0.43360  Biso   1.000  H
  H187     1.0000 0.73200  0.01700  0.54730  Biso   1.000  H
  H188     1.0000 0.26800  0.98300  0.45270  Biso   1.000  H
  C187     1.0000 0.87460  0.01393  0.33372  Biso   1.000  C
  C188     1.0000 0.12540  0.98607  0.66628  Biso   1.000  C
  H189     1.0000 0.90970  0.99910  0.36230  Biso   1.000  H
  H190     1.0000 0.09030  0.00090  0.63770  Biso   1.000  H
  H191     1.0000 0.79650  0.01050  0.33350  Biso   1.000  H
  H192     1.0000 0.20350  0.98950  0.66650  Biso   1.000  H
  C189     1.0000 0.89590  0.96748  0.28393  Biso   1.000  C
  C190     1.0000 0.10410  0.03252  0.71607  Biso   1.000  C
  H193     1.0000 0.87000  0.92260  0.28040  Biso   1.000  H
  H194     1.0000 0.13000  0.07740  0.71960  Biso   1.000  H
  H195     1.0000 0.97310  0.96940  0.28360  Biso   1.000  H
  H196     1.0000 0.02690  0.03060  0.71640  Biso   1.000  H
  H197     1.0000 0.85860  0.97990  0.25490  Biso   1.000  H
  H198     1.0000 0.14140  0.02010  0.74510  Biso   1.000  H
  C191     1.0000 0.97896  0.22766  0.38575  Biso   1.000  C
  C192     1.0000 0.02104  0.77234  0.61425  Biso   1.000  C
  H199     1.0000 0.00640  0.20700  0.35480  Biso   1.000  H
  H200     1.0000 0.99360  0.79300  0.64520  Biso   1.000  H
  F97      1.0000 0.38300  0.23390  0.19460  Biso   1.000  F
  F98      1.0000 0.61700  0.76610  0.80540  Biso   1.000  F
  C193     1.0000 0.36050  0.17899  0.49685  Biso   1.000  C
  C194     1.0000 0.63950  0.82101  0.50315  Biso   1.000  C
  H201     1.0000 0.43210  0.19140  0.51790  Biso   1.000  H
  H202     1.0000 0.56790  0.80860  0.48210  Biso   1.000  H
  H203     1.0000 0.36390  0.17690  0.46110  Biso   1.000  H
  H204     1.0000 0.63610  0.82310  0.53890  Biso   1.000  H
  H205     1.0000 0.33410  0.13580  0.49700  Biso   1.000  H
  H206     1.0000 0.66590  0.86420  0.50300  Biso   1.000  H
  C195     1.0000 0.27520  0.23163  0.57456  Biso   1.000  C
  C196     1.0000 0.72480  0.76837  0.42544  Biso   1.000  C
  H207     1.0000 0.34530  0.24530  0.59700  Biso   1.000  H
  H208     1.0000 0.65470  0.75470  0.40300  Biso   1.000  H
  H209     1.0000 0.25090  0.18750  0.57360  Biso   1.000  H
  H210     1.0000 0.74910  0.81250  0.42640  Biso   1.000  H
  H211     1.0000 0.22360  0.26290  0.58820  Biso   1.000  H
  H212     1.0000 0.77640  0.73710  0.41180  Biso   1.000  H
  C197     1.0000 0.17360  0.20859  0.48487  Biso   1.000  C
  C198     1.0000 0.82640  0.79141  0.51513  Biso   1.000  C
  H213     1.0000 0.17830  0.20730  0.44940  Biso   1.000  H
  H214     1.0000 0.82170  0.79270  0.55060  Biso   1.000  H
  H215     1.0000 0.12230  0.23990  0.49880  Biso   1.000  H
  H216     1.0000 0.87770  0.76010  0.50120  Biso   1.000  H
  H217     1.0000 0.14970  0.16460  0.48450  Biso   1.000  H
  H218     1.0000 0.85030  0.83540  0.51550  Biso   1.000  H
  C199     1.0000 0.28450  0.23045  0.51940  Biso   1.000  C
  C200     1.0000 0.71550  0.76955  0.48060  Biso   1.000  C
  C201     1.0000 0.32410  0.29972  0.52250  Biso   1.000  C
  C202     1.0000 0.67590  0.70028  0.47750  Biso   1.000  C
  C203     1.0000 0.43240  0.31725  0.52634  Biso   1.000  C
  C204     1.0000 0.56760  0.68275  0.47366  Biso   1.000  C
  H219     1.0000 0.48180  0.28440  0.52430  Biso   1.000  H
  H220     1.0000 0.51820  0.71560  0.47570  Biso   1.000  H
  C205     1.0000 0.47050  0.38156  0.53306  Biso   1.000  C
  C206     1.0000 0.52950  0.61844  0.46694  Biso   1.000  C
  H221     1.0000 0.54480  0.39210  0.53530  Biso   1.000  H
  H222     1.0000 0.45520  0.60790  0.46470  Biso   1.000  H
  C207     1.0000 0.39930  0.42991  0.53643  Biso   1.000  C
  C208     1.0000 0.60070  0.57009  0.46357  Biso   1.000  C
  H223     1.0000 0.42430  0.47390  0.54100  Biso   1.000  H
  H224     1.0000 0.57570  0.52610  0.45900  Biso   1.000  H
  C209     1.0000 0.29250  0.41385  0.53308  Biso   1.000  C
  C210     1.0000 0.70750  0.58615  0.46692  Biso   1.000  C
  H225     1.0000 0.24360  0.44700  0.53550  Biso   1.000  H
  H226     1.0000 0.75640  0.55300  0.46450  Biso   1.000  H
  C211     1.0000 0.25490  0.34948  0.52619  Biso   1.000  C
  C212     1.0000 0.74510  0.65052  0.47381  Biso   1.000  C
  H227     1.0000 0.18050  0.33940  0.52400  Biso   1.000  H
  H228     1.0000 0.81950  0.66060  0.47600  Biso   1.000  H
  C213     1.0000 0.65440  0.30732  0.00367  Biso   1.000  C
  C214     1.0000 0.34560  0.69268  0.99633  Biso   1.000  C
  H229     1.0000 0.64000  0.30300  0.03640  Biso   1.000  H
  H230     1.0000 0.36000  0.69700  0.96360  Biso   1.000  H
  H231     1.0000 0.59380  0.28630  0.97590  Biso   1.000  H
  H232     1.0000 0.40620  0.71370  0.02410  Biso   1.000  H
  H233     1.0000 0.66450  0.35410  0.00740  Biso   1.000  H
  H234     1.0000 0.33550  0.64590  0.99260  Biso   1.000  H
  C215     1.0000 0.84960  0.31065  0.03332  Biso   1.000  C
  C216     1.0000 0.15040  0.68935  0.96668  Biso   1.000  C
  H235     1.0000 0.83700  0.30670  0.06640  Biso   1.000  H
  H236     1.0000 0.16300  0.69330  0.93360  Biso   1.000  H
  H237     1.0000 0.85510  0.35730  0.03610  Biso   1.000  H
  H238     1.0000 0.14490  0.64270  0.96390  Biso   1.000  H
  H239     1.0000 0.91640  0.29140  0.02500  Biso   1.000  H
  H240     1.0000 0.08360  0.70860  0.97500  Biso   1.000  H
  C217     1.0000 0.77710  0.28038  0.93852  Biso   1.000  C
  C218     1.0000 0.22290  0.71962  0.06148  Biso   1.000  C
  H241     1.0000 0.71810  0.25690  0.91060  Biso   1.000  H
  H242     1.0000 0.28190  0.74310  0.08940  Biso   1.000  H
  H243     1.0000 0.84420  0.26130  0.93060  Biso   1.000  H
  H244     1.0000 0.15580  0.73870  0.06940  Biso   1.000  H
  H245     1.0000 0.78260  0.32710  0.94140  Biso   1.000  H
  H246     1.0000 0.21740  0.67290  0.05860  Biso   1.000  H
  C219     1.0000 0.75580  0.27382  0.99005  Biso   1.000  C
  C220     1.0000 0.24420  0.72618  0.00995  Biso   1.000  C
  C221     1.0000 0.74660  0.20069  0.98454  Biso   1.000  C
  C222     1.0000 0.25340  0.79931  0.01546  Biso   1.000  C
  C223     1.0000 0.83700  0.16523  0.98226  Biso   1.000  C
  C224     1.0000 0.16300  0.83477  0.01774  Biso   1.000  C
  H247     1.0000 0.90480  0.18770  0.98600  Biso   1.000  H
  H248     1.0000 0.09520  0.81230  0.01400  Biso   1.000  H
  C225     1.0000 0.83120  0.09861  0.97472  Biso   1.000  C
  C226     1.0000 0.16880  0.90139  0.02528  Biso   1.000  C
  H249     1.0000 0.89480  0.07620  0.97390  Biso   1.000  H
  H250     1.0000 0.10520  0.92380  0.02610  Biso   1.000  H
  C227     1.0000 0.73410  0.06419  0.96835  Biso   1.000  C
  C228     1.0000 0.26590  0.93581  0.03165  Biso   1.000  C
  H251     1.0000 0.73000  0.01810  0.96250  Biso   1.000  H
  H252     1.0000 0.27000  0.98190  0.03750  Biso   1.000  H
  C229     1.0000 0.64370  0.09736  0.97059  Biso   1.000  C
  C230     1.0000 0.35630  0.90264  0.02941  Biso   1.000  C
  H253     1.0000 0.57640  0.07420  0.96680  Biso   1.000  H
  H254     1.0000 0.42360  0.92580  0.03320  Biso   1.000  H
  C231     1.0000 0.64930  0.16510  0.97845  Biso   1.000  C
  C232     1.0000 0.35070  0.83490  0.02155  Biso   1.000  C
  H255     1.0000 0.58540  0.18720  0.97960  Biso   1.000  H
  H256     1.0000 0.41460  0.81280  0.02040  Biso   1.000  H
