data_image0
_cell_length_a       28.55
_cell_length_b       28.55
_cell_length_c       27.0594
_cell_angle_alpha    90
_cell_angle_beta     90
_cell_angle_gamma    90

_symmetry_space_group_name_H-M    "P 1"
_symmetry_int_tables_number       1

loop_
  _symmetry_equiv_pos_as_xyz
  'x, y, z'

loop_
  _atom_site_label
  _atom_site_occupancy
  _atom_site_fract_x
  _atom_site_fract_y
  _atom_site_fract_z
  _atom_site_thermal_displace_type
  _atom_site_B_iso_or_equiv
  _atom_site_type_symbol
  Cu1      1.0000 0.03505  0.26338  0.21372  Biso   1.000  Cu
  Cu2      1.0000 0.96495  0.73662  0.21372  Biso   1.000  Cu
  Cu3      1.0000 0.73662  0.03505  0.21372  Biso   1.000  Cu
  Cu4      1.0000 0.26338  0.96495  0.21372  Biso   1.000  Cu
  Cu5      1.0000 0.46495  0.76338  0.78628  Biso   1.000  Cu
  Cu6      1.0000 0.53505  0.23662  0.78628  Biso   1.000  Cu
  Cu7      1.0000 0.76338  0.53505  0.78628  Biso   1.000  Cu
  Cu8      1.0000 0.23662  0.46495  0.78628  Biso   1.000  Cu
  Cu9      1.0000 0.96495  0.73662  0.78628  Biso   1.000  Cu
  Cu10     1.0000 0.03505  0.26338  0.78628  Biso   1.000  Cu
  Cu11     1.0000 0.26338  0.96495  0.78628  Biso   1.000  Cu
  Cu12     1.0000 0.73662  0.03505  0.78628  Biso   1.000  Cu
  Cu13     1.0000 0.53505  0.23662  0.21372  Biso   1.000  Cu
  Cu14     1.0000 0.46495  0.76338  0.21372  Biso   1.000  Cu
  Cu15     1.0000 0.23662  0.46495  0.21372  Biso   1.000  Cu
  Cu16     1.0000 0.76338  0.53505  0.21372  Biso   1.000  Cu
  Cu17     1.0000 0.02790  0.20507  0.29091  Biso   1.000  Cu
  Cu18     1.0000 0.97210  0.79493  0.29091  Biso   1.000  Cu
  Cu19     1.0000 0.79493  0.02790  0.29091  Biso   1.000  Cu
  Cu20     1.0000 0.20507  0.97210  0.29091  Biso   1.000  Cu
  Cu21     1.0000 0.47210  0.70507  0.70909  Biso   1.000  Cu
  Cu22     1.0000 0.52790  0.29493  0.70909  Biso   1.000  Cu
  Cu23     1.0000 0.70507  0.52790  0.70909  Biso   1.000  Cu
  Cu24     1.0000 0.29493  0.47210  0.70909  Biso   1.000  Cu
  Cu25     1.0000 0.97210  0.79493  0.70909  Biso   1.000  Cu
  Cu26     1.0000 0.02790  0.20507  0.70909  Biso   1.000  Cu
  Cu27     1.0000 0.20507  0.97210  0.70909  Biso   1.000  Cu
  Cu28     1.0000 0.79493  0.02790  0.70909  Biso   1.000  Cu
  Cu29     1.0000 0.52790  0.29493  0.29091  Biso   1.000  Cu
  Cu30     1.0000 0.47210  0.70507  0.29091  Biso   1.000  Cu
  Cu31     1.0000 0.29493  0.47210  0.29091  Biso   1.000  Cu
  Cu32     1.0000 0.70507  0.52790  0.29091  Biso   1.000  Cu
  Ni1      1.0000 0.77413  0.27413  0.00000  Biso   1.000  Ni
  Ni2      1.0000 0.22587  0.72587  0.00000  Biso   1.000  Ni
  Ni3      1.0000 0.72587  0.77413  0.00000  Biso   1.000  Ni
  Ni4      1.0000 0.27413  0.22587  0.00000  Biso   1.000  Ni
  Ni5      1.0000 0.79353  0.29353  0.50000  Biso   1.000  Ni
  Ni6      1.0000 0.20647  0.70647  0.50000  Biso   1.000  Ni
  Ni7      1.0000 0.70647  0.79353  0.50000  Biso   1.000  Ni
  Ni8      1.0000 0.29353  0.20647  0.50000  Biso   1.000  Ni
  O1       1.0000 0.97843  0.23110  0.19330  Biso   1.000  O
  O2       1.0000 0.02157  0.76890  0.19330  Biso   1.000  O
  O3       1.0000 0.76890  0.97843  0.19330  Biso   1.000  O
  O4       1.0000 0.23110  0.02157  0.19330  Biso   1.000  O
  O5       1.0000 0.52157  0.73110  0.80670  Biso   1.000  O
  O6       1.0000 0.47843  0.26890  0.80670  Biso   1.000  O
  O7       1.0000 0.73110  0.47843  0.80670  Biso   1.000  O
  O8       1.0000 0.26890  0.52157  0.80670  Biso   1.000  O
  O9       1.0000 0.02157  0.76890  0.80670  Biso   1.000  O
  O10      1.0000 0.97843  0.23110  0.80670  Biso   1.000  O
  O11      1.0000 0.23110  0.02157  0.80670  Biso   1.000  O
  O12      1.0000 0.76890  0.97843  0.80670  Biso   1.000  O
  O13      1.0000 0.47843  0.26890  0.19330  Biso   1.000  O
  O14      1.0000 0.52157  0.73110  0.19330  Biso   1.000  O
  O15      1.0000 0.26890  0.52157  0.19330  Biso   1.000  O
  O16      1.0000 0.73110  0.47843  0.19330  Biso   1.000  O
  O17      1.0000 0.97396  0.17992  0.25420  Biso   1.000  O
  O18      1.0000 0.02604  0.82008  0.25420  Biso   1.000  O
  O19      1.0000 0.82008  0.97396  0.25420  Biso   1.000  O
  O20      1.0000 0.17992  0.02604  0.25420  Biso   1.000  O
  O21      1.0000 0.52604  0.67992  0.74580  Biso   1.000  O
  O22      1.0000 0.47396  0.32008  0.74580  Biso   1.000  O
  O23      1.0000 0.67992  0.47396  0.74580  Biso   1.000  O
  O24      1.0000 0.32008  0.52604  0.74580  Biso   1.000  O
  O25      1.0000 0.02604  0.82008  0.74580  Biso   1.000  O
  O26      1.0000 0.97396  0.17992  0.74580  Biso   1.000  O
  O27      1.0000 0.17992  0.02604  0.74580  Biso   1.000  O
  O28      1.0000 0.82008  0.97396  0.74580  Biso   1.000  O
  O29      1.0000 0.47396  0.32008  0.25420  Biso   1.000  O
  O30      1.0000 0.52604  0.67992  0.25420  Biso   1.000  O
  O31      1.0000 0.32008  0.52604  0.25420  Biso   1.000  O
  O32      1.0000 0.67992  0.47396  0.25420  Biso   1.000  O
  O33      1.0000 0.83583  0.06963  0.25600  Biso   1.000  O
  O34      1.0000 0.16417  0.93037  0.25600  Biso   1.000  O
  O35      1.0000 0.93037  0.83583  0.25600  Biso   1.000  O
  O36      1.0000 0.06963  0.16417  0.25600  Biso   1.000  O
  O37      1.0000 0.66417  0.56963  0.74400  Biso   1.000  O
  O38      1.0000 0.33583  0.43037  0.74400  Biso   1.000  O
  O39      1.0000 0.56963  0.33583  0.74400  Biso   1.000  O
  O40      1.0000 0.43037  0.66417  0.74400  Biso   1.000  O
  O41      1.0000 0.16417  0.93037  0.74400  Biso   1.000  O
  O42      1.0000 0.83583  0.06963  0.74400  Biso   1.000  O
  O43      1.0000 0.06963  0.16417  0.74400  Biso   1.000  O
  O44      1.0000 0.93037  0.83583  0.74400  Biso   1.000  O
  O45      1.0000 0.33583  0.43037  0.25600  Biso   1.000  O
  O46      1.0000 0.66417  0.56963  0.25600  Biso   1.000  O
  O47      1.0000 0.43037  0.66417  0.25600  Biso   1.000  O
  O48      1.0000 0.56963  0.33583  0.25600  Biso   1.000  O
  O49      1.0000 0.78700  0.07350  0.18980  Biso   1.000  O
  O50      1.0000 0.21300  0.92650  0.18980  Biso   1.000  O
  O51      1.0000 0.92650  0.78700  0.18980  Biso   1.000  O
  O52      1.0000 0.07350  0.21300  0.18980  Biso   1.000  O
  O53      1.0000 0.71300  0.57350  0.81020  Biso   1.000  O
  O54      1.0000 0.28700  0.42650  0.81020  Biso   1.000  O
  O55      1.0000 0.57350  0.28700  0.81020  Biso   1.000  O
  O56      1.0000 0.42650  0.71300  0.81020  Biso   1.000  O
  O57      1.0000 0.21300  0.92650  0.81020  Biso   1.000  O
  O58      1.0000 0.78700  0.07350  0.81020  Biso   1.000  O
  O59      1.0000 0.07350  0.21300  0.81020  Biso   1.000  O
  O60      1.0000 0.92650  0.78700  0.81020  Biso   1.000  O
  O61      1.0000 0.28700  0.42650  0.18980  Biso   1.000  O
  O62      1.0000 0.71300  0.57350  0.18980  Biso   1.000  O
  O63      1.0000 0.42650  0.71300  0.18980  Biso   1.000  O
  O64      1.0000 0.57350  0.28700  0.18980  Biso   1.000  O
  O65      1.0000 0.71240  0.08990  0.24490  Biso   1.000  O
  O66      1.0000 0.28760  0.91010  0.24490  Biso   1.000  O
  O67      1.0000 0.91010  0.71240  0.24490  Biso   1.000  O
  O68      1.0000 0.08990  0.28760  0.24490  Biso   1.000  O
  O69      1.0000 0.78760  0.58990  0.75510  Biso   1.000  O
  O70      1.0000 0.21240  0.41010  0.75510  Biso   1.000  O
  O71      1.0000 0.58990  0.21240  0.75510  Biso   1.000  O
  O72      1.0000 0.41010  0.78760  0.75510  Biso   1.000  O
  O73      1.0000 0.28760  0.91010  0.75510  Biso   1.000  O
  O74      1.0000 0.71240  0.08990  0.75510  Biso   1.000  O
  O75      1.0000 0.08990  0.28760  0.75510  Biso   1.000  O
  O76      1.0000 0.91010  0.71240  0.75510  Biso   1.000  O
  O77      1.0000 0.21240  0.41010  0.24490  Biso   1.000  O
  O78      1.0000 0.78760  0.58990  0.24490  Biso   1.000  O
  O79      1.0000 0.41010  0.78760  0.24490  Biso   1.000  O
  O80      1.0000 0.58990  0.21240  0.24490  Biso   1.000  O
  O81      1.0000 0.75990  0.08360  0.31220  Biso   1.000  O
  O82      1.0000 0.24010  0.91640  0.31220  Biso   1.000  O
  O83      1.0000 0.91640  0.75990  0.31220  Biso   1.000  O
  O84      1.0000 0.08360  0.24010  0.31220  Biso   1.000  O
  O85      1.0000 0.74010  0.58360  0.68780  Biso   1.000  O
  O86      1.0000 0.25990  0.41640  0.68780  Biso   1.000  O
  O87      1.0000 0.58360  0.25990  0.68780  Biso   1.000  O
  O88      1.0000 0.41640  0.74010  0.68780  Biso   1.000  O
  O89      1.0000 0.24010  0.91640  0.68780  Biso   1.000  O
  O90      1.0000 0.75990  0.08360  0.68780  Biso   1.000  O
  O91      1.0000 0.08360  0.24010  0.68780  Biso   1.000  O
  O92      1.0000 0.91640  0.75990  0.68780  Biso   1.000  O
  O93      1.0000 0.25990  0.41640  0.31220  Biso   1.000  O
  O94      1.0000 0.74010  0.58360  0.31220  Biso   1.000  O
  O95      1.0000 0.41640  0.74010  0.31220  Biso   1.000  O
  O96      1.0000 0.58360  0.25990  0.31220  Biso   1.000  O
  O97      1.0000 0.99860  0.30370  0.24930  Biso   1.000  O
  O98      1.0000 0.00140  0.69630  0.24930  Biso   1.000  O
  O99      1.0000 0.69630  0.99860  0.24930  Biso   1.000  O
  O100     1.0000 0.30370  0.00140  0.24930  Biso   1.000  O
  O101     1.0000 0.50140  0.80370  0.75070  Biso   1.000  O
  O102     1.0000 0.49860  0.19630  0.75070  Biso   1.000  O
  O103     1.0000 0.80370  0.49860  0.75070  Biso   1.000  O
  O104     1.0000 0.19630  0.50140  0.75070  Biso   1.000  O
  O105     1.0000 0.00140  0.69630  0.75070  Biso   1.000  O
  O106     1.0000 0.99860  0.30370  0.75070  Biso   1.000  O
  O107     1.0000 0.30370  0.00140  0.75070  Biso   1.000  O
  O108     1.0000 0.69630  0.99860  0.75070  Biso   1.000  O
  O109     1.0000 0.49860  0.19630  0.24930  Biso   1.000  O
  O110     1.0000 0.50140  0.80370  0.24930  Biso   1.000  O
  O111     1.0000 0.19630  0.50140  0.24930  Biso   1.000  O
  O112     1.0000 0.80370  0.49860  0.24930  Biso   1.000  O
  O113     1.0000 0.98830  0.25590  0.31550  Biso   1.000  O
  O114     1.0000 0.01170  0.74410  0.31550  Biso   1.000  O
  O115     1.0000 0.74410  0.98830  0.31550  Biso   1.000  O
  O116     1.0000 0.25590  0.01170  0.31550  Biso   1.000  O
  O117     1.0000 0.51170  0.75590  0.68450  Biso   1.000  O
  O118     1.0000 0.48830  0.24410  0.68450  Biso   1.000  O
  O119     1.0000 0.75590  0.48830  0.68450  Biso   1.000  O
  O120     1.0000 0.24410  0.51170  0.68450  Biso   1.000  O
  O121     1.0000 0.01170  0.74410  0.68450  Biso   1.000  O
  O122     1.0000 0.98830  0.25590  0.68450  Biso   1.000  O
  O123     1.0000 0.25590  0.01170  0.68450  Biso   1.000  O
  O124     1.0000 0.74410  0.98830  0.68450  Biso   1.000  O
  O125     1.0000 0.48830  0.24410  0.31550  Biso   1.000  O
  O126     1.0000 0.51170  0.75590  0.31550  Biso   1.000  O
  O127     1.0000 0.24410  0.51170  0.31550  Biso   1.000  O
  O128     1.0000 0.75590  0.48830  0.31550  Biso   1.000  O
  O129     1.0000 0.03880  0.30370  0.14650  Biso   1.000  O
  O130     1.0000 0.96120  0.69630  0.14650  Biso   1.000  O
  O131     1.0000 0.69630  0.03880  0.14650  Biso   1.000  O
  O132     1.0000 0.30370  0.96120  0.14650  Biso   1.000  O
  O133     1.0000 0.46120  0.80370  0.85350  Biso   1.000  O
  O134     1.0000 0.53880  0.19630  0.85350  Biso   1.000  O
  O135     1.0000 0.80370  0.53880  0.85350  Biso   1.000  O
  O136     1.0000 0.19630  0.46120  0.85350  Biso   1.000  O
  O137     1.0000 0.96120  0.69630  0.85350  Biso   1.000  O
  O138     1.0000 0.03880  0.30370  0.85350  Biso   1.000  O
  O139     1.0000 0.30370  0.96120  0.85350  Biso   1.000  O
  O140     1.0000 0.69630  0.03880  0.85350  Biso   1.000  O
  O141     1.0000 0.53880  0.19630  0.14650  Biso   1.000  O
  O142     1.0000 0.46120  0.80370  0.14650  Biso   1.000  O
  O143     1.0000 0.19630  0.46120  0.14650  Biso   1.000  O
  O144     1.0000 0.80370  0.53880  0.14650  Biso   1.000  O
  O145     1.0000 0.02360  0.16130  0.35610  Biso   1.000  O
  O146     1.0000 0.97640  0.83870  0.35610  Biso   1.000  O
  O147     1.0000 0.83870  0.02360  0.35610  Biso   1.000  O
  O148     1.0000 0.16130  0.97640  0.35610  Biso   1.000  O
  O149     1.0000 0.47640  0.66130  0.64390  Biso   1.000  O
  O150     1.0000 0.52360  0.33870  0.64390  Biso   1.000  O
  O151     1.0000 0.66130  0.52360  0.64390  Biso   1.000  O
  O152     1.0000 0.33870  0.47640  0.64390  Biso   1.000  O
  O153     1.0000 0.97640  0.83870  0.64390  Biso   1.000  O
  O154     1.0000 0.02360  0.16130  0.64390  Biso   1.000  O
  O155     1.0000 0.16130  0.97640  0.64390  Biso   1.000  O
  O156     1.0000 0.83870  0.02360  0.64390  Biso   1.000  O
  O157     1.0000 0.52360  0.33870  0.35610  Biso   1.000  O
  O158     1.0000 0.47640  0.66130  0.35610  Biso   1.000  O
  O159     1.0000 0.33870  0.47640  0.35610  Biso   1.000  O
  O160     1.0000 0.66130  0.52360  0.35610  Biso   1.000  O
  N1       1.0000 0.77470  0.27470  0.07200  Biso   1.000  N
  N2       1.0000 0.22530  0.72530  0.07200  Biso   1.000  N
  N3       1.0000 0.72530  0.77470  0.07200  Biso   1.000  N
  N4       1.0000 0.27470  0.22530  0.07200  Biso   1.000  N
  N5       1.0000 0.72530  0.77470  0.92800  Biso   1.000  N
  N6       1.0000 0.27470  0.22530  0.92800  Biso   1.000  N
  N7       1.0000 0.77470  0.27470  0.92800  Biso   1.000  N
  N8       1.0000 0.22530  0.72530  0.92800  Biso   1.000  N
  N9       1.0000 0.82260  0.22540  0.00000  Biso   1.000  N
  N10      1.0000 0.17740  0.77460  0.00000  Biso   1.000  N
  N11      1.0000 0.77460  0.82260  0.00000  Biso   1.000  N
  N12      1.0000 0.22540  0.17740  0.00000  Biso   1.000  N
  N13      1.0000 0.67740  0.72540  0.00000  Biso   1.000  N
  N14      1.0000 0.32260  0.27460  0.00000  Biso   1.000  N
  N15      1.0000 0.72540  0.32260  0.00000  Biso   1.000  N
  N16      1.0000 0.27460  0.67740  0.00000  Biso   1.000  N
  N17      1.0000 0.74450  0.24450  0.50000  Biso   1.000  N
  N18      1.0000 0.25550  0.75550  0.50000  Biso   1.000  N
  N19      1.0000 0.75550  0.74450  0.50000  Biso   1.000  N
  N20      1.0000 0.24450  0.25550  0.50000  Biso   1.000  N
  N21      1.0000 0.79330  0.29330  0.42920  Biso   1.000  N
  N22      1.0000 0.20670  0.70670  0.42920  Biso   1.000  N
  N23      1.0000 0.70670  0.79330  0.42920  Biso   1.000  N
  N24      1.0000 0.29330  0.20670  0.42920  Biso   1.000  N
  N25      1.0000 0.70670  0.79330  0.57080  Biso   1.000  N
  N26      1.0000 0.29330  0.20670  0.57080  Biso   1.000  N
  N27      1.0000 0.79330  0.29330  0.57080  Biso   1.000  N
  N28      1.0000 0.20670  0.70670  0.57080  Biso   1.000  N
  N29      1.0000 0.84040  0.34040  0.50000  Biso   1.000  N
  N30      1.0000 0.15960  0.65960  0.50000  Biso   1.000  N
  N31      1.0000 0.65960  0.84040  0.50000  Biso   1.000  N
  N32      1.0000 0.34040  0.15960  0.50000  Biso   1.000  N
  C1       1.0000 0.79040  0.25710  0.15430  Biso   1.000  C
  C2       1.0000 0.20960  0.74290  0.15430  Biso   1.000  C
  C3       1.0000 0.74290  0.79040  0.15430  Biso   1.000  C
  C4       1.0000 0.25710  0.20960  0.15430  Biso   1.000  C
  C5       1.0000 0.70960  0.75710  0.84570  Biso   1.000  C
  C6       1.0000 0.29040  0.24290  0.84570  Biso   1.000  C
  C7       1.0000 0.75710  0.29040  0.84570  Biso   1.000  C
  C8       1.0000 0.24290  0.70960  0.84570  Biso   1.000  C
  C9       1.0000 0.20960  0.74290  0.84570  Biso   1.000  C
  C10      1.0000 0.79040  0.25710  0.84570  Biso   1.000  C
  C11      1.0000 0.25710  0.20960  0.84570  Biso   1.000  C
  C12      1.0000 0.74290  0.79040  0.84570  Biso   1.000  C
  C13      1.0000 0.29040  0.24290  0.15430  Biso   1.000  C
  C14      1.0000 0.70960  0.75710  0.15430  Biso   1.000  C
  C15      1.0000 0.24290  0.70960  0.15430  Biso   1.000  C
  C16      1.0000 0.75710  0.29040  0.15430  Biso   1.000  C
  H1       1.0000 0.80470  0.24390  0.18190  Biso   1.000  H
  H2       1.0000 0.19530  0.75610  0.18190  Biso   1.000  H
  H3       1.0000 0.75610  0.80470  0.18190  Biso   1.000  H
  H4       1.0000 0.24390  0.19530  0.18190  Biso   1.000  H
  H5       1.0000 0.69530  0.74390  0.81810  Biso   1.000  H
  H6       1.0000 0.30470  0.25610  0.81810  Biso   1.000  H
  H7       1.0000 0.74390  0.30470  0.81810  Biso   1.000  H
  H8       1.0000 0.25610  0.69530  0.81810  Biso   1.000  H
  H9       1.0000 0.19530  0.75610  0.81810  Biso   1.000  H
  H10      1.0000 0.80470  0.24390  0.81810  Biso   1.000  H
  H11      1.0000 0.24390  0.19530  0.81810  Biso   1.000  H
  H12      1.0000 0.75610  0.80470  0.81810  Biso   1.000  H
  H13      1.0000 0.30470  0.25610  0.18190  Biso   1.000  H
  H14      1.0000 0.69530  0.74390  0.18190  Biso   1.000  H
  H15      1.0000 0.25610  0.69530  0.18190  Biso   1.000  H
  H16      1.0000 0.74390  0.30470  0.18190  Biso   1.000  H
  C17      1.0000 0.79980  0.24580  0.10310  Biso   1.000  C
  C18      1.0000 0.20020  0.75420  0.10310  Biso   1.000  C
  C19      1.0000 0.75420  0.79980  0.10310  Biso   1.000  C
  C20      1.0000 0.24580  0.20020  0.10310  Biso   1.000  C
  C21      1.0000 0.70020  0.74580  0.89690  Biso   1.000  C
  C22      1.0000 0.29980  0.25420  0.89690  Biso   1.000  C
  C23      1.0000 0.74580  0.29980  0.89690  Biso   1.000  C
  C24      1.0000 0.25420  0.70020  0.89690  Biso   1.000  C
  C25      1.0000 0.20020  0.75420  0.89690  Biso   1.000  C
  C26      1.0000 0.79980  0.24580  0.89690  Biso   1.000  C
  C27      1.0000 0.24580  0.20020  0.89690  Biso   1.000  C
  C28      1.0000 0.75420  0.79980  0.89690  Biso   1.000  C
  C29      1.0000 0.29980  0.25420  0.10310  Biso   1.000  C
  C30      1.0000 0.70020  0.74580  0.10310  Biso   1.000  C
  C31      1.0000 0.25420  0.70020  0.10310  Biso   1.000  C
  C32      1.0000 0.74580  0.29980  0.10310  Biso   1.000  C
  C33      1.0000 0.83180  0.21360  0.08850  Biso   1.000  C
  C34      1.0000 0.16820  0.78640  0.08850  Biso   1.000  C
  C35      1.0000 0.78640  0.83180  0.08850  Biso   1.000  C
  C36      1.0000 0.21360  0.16820  0.08850  Biso   1.000  C
  C37      1.0000 0.66820  0.71360  0.91150  Biso   1.000  C
  C38      1.0000 0.33180  0.28640  0.91150  Biso   1.000  C
  C39      1.0000 0.71360  0.33180  0.91150  Biso   1.000  C
  C40      1.0000 0.28640  0.66820  0.91150  Biso   1.000  C
  C41      1.0000 0.16820  0.78640  0.91150  Biso   1.000  C
  C42      1.0000 0.83180  0.21360  0.91150  Biso   1.000  C
  C43      1.0000 0.21360  0.16820  0.91150  Biso   1.000  C
  C44      1.0000 0.78640  0.83180  0.91150  Biso   1.000  C
  C45      1.0000 0.33180  0.28640  0.08850  Biso   1.000  C
  C46      1.0000 0.66820  0.71360  0.08850  Biso   1.000  C
  C47      1.0000 0.28640  0.66820  0.08850  Biso   1.000  C
  C48      1.0000 0.71360  0.33180  0.08850  Biso   1.000  C
  C49      1.0000 0.84320  0.20490  0.03990  Biso   1.000  C
  C50      1.0000 0.15680  0.79510  0.03990  Biso   1.000  C
  C51      1.0000 0.79510  0.84320  0.03990  Biso   1.000  C
  C52      1.0000 0.20490  0.15680  0.03990  Biso   1.000  C
  C53      1.0000 0.65680  0.70490  0.96010  Biso   1.000  C
  C54      1.0000 0.34320  0.29510  0.96010  Biso   1.000  C
  C55      1.0000 0.70490  0.34320  0.96010  Biso   1.000  C
  C56      1.0000 0.29510  0.65680  0.96010  Biso   1.000  C
  C57      1.0000 0.15680  0.79510  0.96010  Biso   1.000  C
  C58      1.0000 0.84320  0.20490  0.96010  Biso   1.000  C
  C59      1.0000 0.20490  0.15680  0.96010  Biso   1.000  C
  C60      1.0000 0.79510  0.84320  0.96010  Biso   1.000  C
  C61      1.0000 0.34320  0.29510  0.03990  Biso   1.000  C
  C62      1.0000 0.65680  0.70490  0.03990  Biso   1.000  C
  C63      1.0000 0.29510  0.65680  0.03990  Biso   1.000  C
  C64      1.0000 0.70490  0.34320  0.03990  Biso   1.000  C
  C65      1.0000 0.87600  0.16880  0.02420  Biso   1.000  C
  C66      1.0000 0.12400  0.83120  0.02420  Biso   1.000  C
  C67      1.0000 0.83120  0.87600  0.02420  Biso   1.000  C
  C68      1.0000 0.16880  0.12400  0.02420  Biso   1.000  C
  C69      1.0000 0.62400  0.66880  0.97580  Biso   1.000  C
  C70      1.0000 0.37600  0.33120  0.97580  Biso   1.000  C
  C71      1.0000 0.66880  0.37600  0.97580  Biso   1.000  C
  C72      1.0000 0.33120  0.62400  0.97580  Biso   1.000  C
  C73      1.0000 0.12400  0.83120  0.97580  Biso   1.000  C
  C74      1.0000 0.87600  0.16880  0.97580  Biso   1.000  C
  C75      1.0000 0.16880  0.12400  0.97580  Biso   1.000  C
  C76      1.0000 0.83120  0.87600  0.97580  Biso   1.000  C
  C77      1.0000 0.37600  0.33120  0.02420  Biso   1.000  C
  C78      1.0000 0.62400  0.66880  0.02420  Biso   1.000  C
  C79      1.0000 0.33120  0.62400  0.02420  Biso   1.000  C
  C80      1.0000 0.66880  0.37600  0.02420  Biso   1.000  C
  H17      1.0000 0.89360  0.14940  0.04470  Biso   1.000  H
  H18      1.0000 0.10640  0.85060  0.04470  Biso   1.000  H
  H19      1.0000 0.85060  0.89360  0.04470  Biso   1.000  H
  H20      1.0000 0.14940  0.10640  0.04470  Biso   1.000  H
  H21      1.0000 0.60640  0.64940  0.95530  Biso   1.000  H
  H22      1.0000 0.39360  0.35060  0.95530  Biso   1.000  H
  H23      1.0000 0.64940  0.39360  0.95530  Biso   1.000  H
  H24      1.0000 0.35060  0.60640  0.95530  Biso   1.000  H
  H25      1.0000 0.10640  0.85060  0.95530  Biso   1.000  H
  H26      1.0000 0.89360  0.14940  0.95530  Biso   1.000  H
  H27      1.0000 0.14940  0.10640  0.95530  Biso   1.000  H
  H28      1.0000 0.85060  0.89360  0.95530  Biso   1.000  H
  H29      1.0000 0.39360  0.35060  0.04470  Biso   1.000  H
  H30      1.0000 0.60640  0.64940  0.04470  Biso   1.000  H
  H31      1.0000 0.35060  0.60640  0.04470  Biso   1.000  H
  H32      1.0000 0.64940  0.39360  0.04470  Biso   1.000  H
  C81      1.0000 0.85590  0.18580  0.13100  Biso   1.000  C
  C82      1.0000 0.14410  0.81420  0.13100  Biso   1.000  C
  C83      1.0000 0.81420  0.85590  0.13100  Biso   1.000  C
  C84      1.0000 0.18580  0.14410  0.13100  Biso   1.000  C
  C85      1.0000 0.64410  0.68580  0.86900  Biso   1.000  C
  C86      1.0000 0.35590  0.31420  0.86900  Biso   1.000  C
  C87      1.0000 0.68580  0.35590  0.86900  Biso   1.000  C
  C88      1.0000 0.31420  0.64410  0.86900  Biso   1.000  C
  C89      1.0000 0.14410  0.81420  0.86900  Biso   1.000  C
  C90      1.0000 0.85590  0.18580  0.86900  Biso   1.000  C
  C91      1.0000 0.18580  0.14410  0.86900  Biso   1.000  C
  C92      1.0000 0.81420  0.85590  0.86900  Biso   1.000  C
  C93      1.0000 0.35590  0.31420  0.13100  Biso   1.000  C
  C94      1.0000 0.64410  0.68580  0.13100  Biso   1.000  C
  C95      1.0000 0.31420  0.64410  0.13100  Biso   1.000  C
  C96      1.0000 0.68580  0.35590  0.13100  Biso   1.000  C
  C97      1.0000 0.89690  0.20180  0.15160  Biso   1.000  C
  C98      1.0000 0.10310  0.79820  0.15160  Biso   1.000  C
  C99      1.0000 0.79820  0.89690  0.15160  Biso   1.000  C
  C100     1.0000 0.20180  0.10310  0.15160  Biso   1.000  C
  C101     1.0000 0.60310  0.70180  0.84840  Biso   1.000  C
  C102     1.0000 0.39690  0.29820  0.84840  Biso   1.000  C
  C103     1.0000 0.70180  0.39690  0.84840  Biso   1.000  C
  C104     1.0000 0.29820  0.60310  0.84840  Biso   1.000  C
  C105     1.0000 0.10310  0.79820  0.84840  Biso   1.000  C
  C106     1.0000 0.89690  0.20180  0.84840  Biso   1.000  C
  C107     1.0000 0.20180  0.10310  0.84840  Biso   1.000  C
  C108     1.0000 0.79820  0.89690  0.84840  Biso   1.000  C
  C109     1.0000 0.39690  0.29820  0.15160  Biso   1.000  C
  C110     1.0000 0.60310  0.70180  0.15160  Biso   1.000  C
  C111     1.0000 0.29820  0.60310  0.15160  Biso   1.000  C
  C112     1.0000 0.70180  0.39690  0.15160  Biso   1.000  C
  H33      1.0000 0.91170  0.22800  0.13830  Biso   1.000  H
  H34      1.0000 0.08830  0.77200  0.13830  Biso   1.000  H
  H35      1.0000 0.77200  0.91170  0.13830  Biso   1.000  H
  H36      1.0000 0.22800  0.08830  0.13830  Biso   1.000  H
  H37      1.0000 0.58830  0.72800  0.86170  Biso   1.000  H
  H38      1.0000 0.41170  0.27200  0.86170  Biso   1.000  H
  H39      1.0000 0.72800  0.41170  0.86170  Biso   1.000  H
  H40      1.0000 0.27200  0.58830  0.86170  Biso   1.000  H
  H41      1.0000 0.08830  0.77200  0.86170  Biso   1.000  H
  H42      1.0000 0.91170  0.22800  0.86170  Biso   1.000  H
  H43      1.0000 0.22800  0.08830  0.86170  Biso   1.000  H
  H44      1.0000 0.77200  0.91170  0.86170  Biso   1.000  H
  H45      1.0000 0.41170  0.27200  0.13830  Biso   1.000  H
  H46      1.0000 0.58830  0.72800  0.13830  Biso   1.000  H
  H47      1.0000 0.27200  0.58830  0.13830  Biso   1.000  H
  H48      1.0000 0.72800  0.41170  0.13830  Biso   1.000  H
  C113     1.0000 0.91650  0.17900  0.19210  Biso   1.000  C
  C114     1.0000 0.08350  0.82100  0.19210  Biso   1.000  C
  C115     1.0000 0.82100  0.91650  0.19210  Biso   1.000  C
  C116     1.0000 0.17900  0.08350  0.19210  Biso   1.000  C
  C117     1.0000 0.58350  0.67900  0.80790  Biso   1.000  C
  C118     1.0000 0.41650  0.32100  0.80790  Biso   1.000  C
  C119     1.0000 0.67900  0.41650  0.80790  Biso   1.000  C
  C120     1.0000 0.32100  0.58350  0.80790  Biso   1.000  C
  C121     1.0000 0.08350  0.82100  0.80790  Biso   1.000  C
  C122     1.0000 0.91650  0.17900  0.80790  Biso   1.000  C
  C123     1.0000 0.17900  0.08350  0.80790  Biso   1.000  C
  C124     1.0000 0.82100  0.91650  0.80790  Biso   1.000  C
  C125     1.0000 0.41650  0.32100  0.19210  Biso   1.000  C
  C126     1.0000 0.58350  0.67900  0.19210  Biso   1.000  C
  C127     1.0000 0.32100  0.58350  0.19210  Biso   1.000  C
  C128     1.0000 0.67900  0.41650  0.19210  Biso   1.000  C
  C129     1.0000 0.89280  0.14060  0.21210  Biso   1.000  C
  C130     1.0000 0.10720  0.85940  0.21210  Biso   1.000  C
  C131     1.0000 0.85940  0.89280  0.21210  Biso   1.000  C
  C132     1.0000 0.14060  0.10720  0.21210  Biso   1.000  C
  C133     1.0000 0.60720  0.64060  0.78790  Biso   1.000  C
  C134     1.0000 0.39280  0.35940  0.78790  Biso   1.000  C
  C135     1.0000 0.64060  0.39280  0.78790  Biso   1.000  C
  C136     1.0000 0.35940  0.60720  0.78790  Biso   1.000  C
  C137     1.0000 0.10720  0.85940  0.78790  Biso   1.000  C
  C138     1.0000 0.89280  0.14060  0.78790  Biso   1.000  C
  C139     1.0000 0.14060  0.10720  0.78790  Biso   1.000  C
  C140     1.0000 0.85940  0.89280  0.78790  Biso   1.000  C
  C141     1.0000 0.39280  0.35940  0.21210  Biso   1.000  C
  C142     1.0000 0.60720  0.64060  0.21210  Biso   1.000  C
  C143     1.0000 0.35940  0.60720  0.21210  Biso   1.000  C
  C144     1.0000 0.64060  0.39280  0.21210  Biso   1.000  C
  H49      1.0000 0.90450  0.12550  0.24000  Biso   1.000  H
  H50      1.0000 0.09550  0.87450  0.24000  Biso   1.000  H
  H51      1.0000 0.87450  0.90450  0.24000  Biso   1.000  H
  H52      1.0000 0.12550  0.09550  0.24000  Biso   1.000  H
  H53      1.0000 0.59550  0.62550  0.76000  Biso   1.000  H
  H54      1.0000 0.40450  0.37450  0.76000  Biso   1.000  H
  H55      1.0000 0.62550  0.40450  0.76000  Biso   1.000  H
  H56      1.0000 0.37450  0.59550  0.76000  Biso   1.000  H
  H57      1.0000 0.09550  0.87450  0.76000  Biso   1.000  H
  H58      1.0000 0.90450  0.12550  0.76000  Biso   1.000  H
  H59      1.0000 0.12550  0.09550  0.76000  Biso   1.000  H
  H60      1.0000 0.87450  0.90450  0.76000  Biso   1.000  H
  H61      1.0000 0.40450  0.37450  0.24000  Biso   1.000  H
  H62      1.0000 0.59550  0.62550  0.24000  Biso   1.000  H
  H63      1.0000 0.37450  0.59550  0.24000  Biso   1.000  H
  H64      1.0000 0.62550  0.40450  0.24000  Biso   1.000  H
  C145     1.0000 0.85130  0.12520  0.18970  Biso   1.000  C
  C146     1.0000 0.14870  0.87480  0.18970  Biso   1.000  C
  C147     1.0000 0.87480  0.85130  0.18970  Biso   1.000  C
  C148     1.0000 0.12520  0.14870  0.18970  Biso   1.000  C
  C149     1.0000 0.64870  0.62520  0.81030  Biso   1.000  C
  C150     1.0000 0.35130  0.37480  0.81030  Biso   1.000  C
  C151     1.0000 0.62520  0.35130  0.81030  Biso   1.000  C
  C152     1.0000 0.37480  0.64870  0.81030  Biso   1.000  C
  C153     1.0000 0.14870  0.87480  0.81030  Biso   1.000  C
  C154     1.0000 0.85130  0.12520  0.81030  Biso   1.000  C
  C155     1.0000 0.12520  0.14870  0.81030  Biso   1.000  C
  C156     1.0000 0.87480  0.85130  0.81030  Biso   1.000  C
  C157     1.0000 0.35130  0.37480  0.18970  Biso   1.000  C
  C158     1.0000 0.64870  0.62520  0.18970  Biso   1.000  C
  C159     1.0000 0.37480  0.64870  0.18970  Biso   1.000  C
  C160     1.0000 0.62520  0.35130  0.18970  Biso   1.000  C
  C161     1.0000 0.83360  0.14760  0.14890  Biso   1.000  C
  C162     1.0000 0.16640  0.85240  0.14890  Biso   1.000  C
  C163     1.0000 0.85240  0.83360  0.14890  Biso   1.000  C
  C164     1.0000 0.14760  0.16640  0.14890  Biso   1.000  C
  C165     1.0000 0.66640  0.64760  0.85110  Biso   1.000  C
  C166     1.0000 0.33360  0.35240  0.85110  Biso   1.000  C
  C167     1.0000 0.64760  0.33360  0.85110  Biso   1.000  C
  C168     1.0000 0.35240  0.66640  0.85110  Biso   1.000  C
  C169     1.0000 0.16640  0.85240  0.85110  Biso   1.000  C
  C170     1.0000 0.83360  0.14760  0.85110  Biso   1.000  C
  C171     1.0000 0.14760  0.16640  0.85110  Biso   1.000  C
  C172     1.0000 0.85240  0.83360  0.85110  Biso   1.000  C
  C173     1.0000 0.33360  0.35240  0.14890  Biso   1.000  C
  C174     1.0000 0.66640  0.64760  0.14890  Biso   1.000  C
  C175     1.0000 0.35240  0.66640  0.14890  Biso   1.000  C
  C176     1.0000 0.64760  0.33360  0.14890  Biso   1.000  C
  H65      1.0000 0.80650  0.13670  0.13370  Biso   1.000  H
  H66      1.0000 0.19350  0.86330  0.13370  Biso   1.000  H
  H67      1.0000 0.86330  0.80650  0.13370  Biso   1.000  H
  H68      1.0000 0.13670  0.19350  0.13370  Biso   1.000  H
  H69      1.0000 0.69350  0.63670  0.86630  Biso   1.000  H
  H70      1.0000 0.30650  0.36330  0.86630  Biso   1.000  H
  H71      1.0000 0.63670  0.30650  0.86630  Biso   1.000  H
  H72      1.0000 0.36330  0.69350  0.86630  Biso   1.000  H
  H73      1.0000 0.19350  0.86330  0.86630  Biso   1.000  H
  H74      1.0000 0.80650  0.13670  0.86630  Biso   1.000  H
  H75      1.0000 0.13670  0.19350  0.86630  Biso   1.000  H
  H76      1.0000 0.86330  0.80650  0.86630  Biso   1.000  H
  H77      1.0000 0.30650  0.36330  0.13370  Biso   1.000  H
  H78      1.0000 0.69350  0.63670  0.13370  Biso   1.000  H
  H79      1.0000 0.36330  0.69350  0.13370  Biso   1.000  H
  H80      1.0000 0.63670  0.30650  0.13370  Biso   1.000  H
  C177     1.0000 0.96000  0.19710  0.21420  Biso   1.000  C
  C178     1.0000 0.04000  0.80290  0.21420  Biso   1.000  C
  C179     1.0000 0.80290  0.96000  0.21420  Biso   1.000  C
  C180     1.0000 0.19710  0.04000  0.21420  Biso   1.000  C
  C181     1.0000 0.54000  0.69710  0.78580  Biso   1.000  C
  C182     1.0000 0.46000  0.30290  0.78580  Biso   1.000  C
  C183     1.0000 0.69710  0.46000  0.78580  Biso   1.000  C
  C184     1.0000 0.30290  0.54000  0.78580  Biso   1.000  C
  C185     1.0000 0.04000  0.80290  0.78580  Biso   1.000  C
  C186     1.0000 0.96000  0.19710  0.78580  Biso   1.000  C
  C187     1.0000 0.19710  0.04000  0.78580  Biso   1.000  C
  C188     1.0000 0.80290  0.96000  0.78580  Biso   1.000  C
  C189     1.0000 0.46000  0.30290  0.21420  Biso   1.000  C
  C190     1.0000 0.54000  0.69710  0.21420  Biso   1.000  C
  C191     1.0000 0.30290  0.54000  0.21420  Biso   1.000  C
  C192     1.0000 0.69710  0.46000  0.21420  Biso   1.000  C
  C193     1.0000 0.82420  0.08580  0.21510  Biso   1.000  C
  C194     1.0000 0.17580  0.91420  0.21510  Biso   1.000  C
  C195     1.0000 0.91420  0.82420  0.21510  Biso   1.000  C
  C196     1.0000 0.08580  0.17580  0.21510  Biso   1.000  C
  C197     1.0000 0.67580  0.58580  0.78490  Biso   1.000  C
  C198     1.0000 0.32420  0.41420  0.78490  Biso   1.000  C
  C199     1.0000 0.58580  0.32420  0.78490  Biso   1.000  C
  C200     1.0000 0.41420  0.67580  0.78490  Biso   1.000  C
  C201     1.0000 0.17580  0.91420  0.78490  Biso   1.000  C
  C202     1.0000 0.82420  0.08580  0.78490  Biso   1.000  C
  C203     1.0000 0.08580  0.17580  0.78490  Biso   1.000  C
  C204     1.0000 0.91420  0.82420  0.78490  Biso   1.000  C
  C205     1.0000 0.32420  0.41420  0.21510  Biso   1.000  C
  C206     1.0000 0.67580  0.58580  0.21510  Biso   1.000  C
  C207     1.0000 0.41420  0.67580  0.21510  Biso   1.000  C
  C208     1.0000 0.58580  0.32420  0.21510  Biso   1.000  C
  C209     1.0000 0.68980  0.18980  0.47590  Biso   1.000  C
  C210     1.0000 0.31020  0.81020  0.47590  Biso   1.000  C
  C211     1.0000 0.81020  0.68980  0.47590  Biso   1.000  C
  C212     1.0000 0.18980  0.31020  0.47590  Biso   1.000  C
  C213     1.0000 0.81020  0.68980  0.52410  Biso   1.000  C
  C214     1.0000 0.18980  0.31020  0.52410  Biso   1.000  C
  C215     1.0000 0.68980  0.18980  0.52410  Biso   1.000  C
  C216     1.0000 0.31020  0.81020  0.52410  Biso   1.000  C
  H81      1.0000 0.67130  0.17130  0.45550  Biso   1.000  H
  H82      1.0000 0.32870  0.82870  0.45550  Biso   1.000  H
  H83      1.0000 0.82870  0.67130  0.45550  Biso   1.000  H
  H84      1.0000 0.17130  0.32870  0.45550  Biso   1.000  H
  H85      1.0000 0.82870  0.67130  0.54450  Biso   1.000  H
  H86      1.0000 0.17130  0.32870  0.54450  Biso   1.000  H
  H87      1.0000 0.67130  0.17130  0.54450  Biso   1.000  H
  H88      1.0000 0.32870  0.82870  0.54450  Biso   1.000  H
  C217     1.0000 0.72420  0.22420  0.46000  Biso   1.000  C
  C218     1.0000 0.27580  0.77580  0.46000  Biso   1.000  C
  C219     1.0000 0.77580  0.72420  0.46000  Biso   1.000  C
  C220     1.0000 0.22420  0.27580  0.46000  Biso   1.000  C
  C221     1.0000 0.77580  0.72420  0.54000  Biso   1.000  C
  C222     1.0000 0.22420  0.27580  0.54000  Biso   1.000  C
  C223     1.0000 0.72420  0.22420  0.54000  Biso   1.000  C
  C224     1.0000 0.27580  0.77580  0.54000  Biso   1.000  C
  C225     1.0000 0.73500  0.23500  0.41170  Biso   1.000  C
  C226     1.0000 0.26500  0.76500  0.41170  Biso   1.000  C
  C227     1.0000 0.76500  0.73500  0.41170  Biso   1.000  C
  C228     1.0000 0.23500  0.26500  0.41170  Biso   1.000  C
  C229     1.0000 0.76500  0.73500  0.58830  Biso   1.000  C
  C230     1.0000 0.23500  0.26500  0.58830  Biso   1.000  C
  C231     1.0000 0.73500  0.23500  0.58830  Biso   1.000  C
  C232     1.0000 0.26500  0.76500  0.58830  Biso   1.000  C
  C233     1.0000 0.76720  0.26720  0.39740  Biso   1.000  C
  C234     1.0000 0.23280  0.73280  0.39740  Biso   1.000  C
  C235     1.0000 0.73280  0.76720  0.39740  Biso   1.000  C
  C236     1.0000 0.26720  0.23280  0.39740  Biso   1.000  C
  C237     1.0000 0.73280  0.76720  0.60260  Biso   1.000  C
  C238     1.0000 0.26720  0.23280  0.60260  Biso   1.000  C
  C239     1.0000 0.76720  0.26720  0.60260  Biso   1.000  C
  C240     1.0000 0.23280  0.73280  0.60260  Biso   1.000  C
  C241     1.0000 0.77660  0.27660  0.34730  Biso   1.000  C
  C242     1.0000 0.22340  0.72340  0.34730  Biso   1.000  C
  C243     1.0000 0.72340  0.77660  0.34730  Biso   1.000  C
  C244     1.0000 0.27660  0.22340  0.34730  Biso   1.000  C
  C245     1.0000 0.72340  0.77660  0.65270  Biso   1.000  C
  C246     1.0000 0.27660  0.22340  0.65270  Biso   1.000  C
  C247     1.0000 0.77660  0.27660  0.65270  Biso   1.000  C
  C248     1.0000 0.22340  0.72340  0.65270  Biso   1.000  C
  H89      1.0000 0.76260  0.26260  0.32010  Biso   1.000  H
  H90      1.0000 0.23740  0.73740  0.32010  Biso   1.000  H
  H91      1.0000 0.73740  0.76260  0.32010  Biso   1.000  H
  H92      1.0000 0.26260  0.23740  0.32010  Biso   1.000  H
  H93      1.0000 0.73740  0.76260  0.67990  Biso   1.000  H
  H94      1.0000 0.26260  0.23740  0.67990  Biso   1.000  H
  H95      1.0000 0.76260  0.26260  0.67990  Biso   1.000  H
  H96      1.0000 0.23740  0.73740  0.67990  Biso   1.000  H
  C249     1.0000 0.80760  0.30760  0.34670  Biso   1.000  C
  C250     1.0000 0.19240  0.69240  0.34670  Biso   1.000  C
  C251     1.0000 0.69240  0.80760  0.34670  Biso   1.000  C
  C252     1.0000 0.30760  0.19240  0.34670  Biso   1.000  C
  C253     1.0000 0.69240  0.80760  0.65330  Biso   1.000  C
  C254     1.0000 0.30760  0.19240  0.65330  Biso   1.000  C
  C255     1.0000 0.80760  0.30760  0.65330  Biso   1.000  C
  C256     1.0000 0.19240  0.69240  0.65330  Biso   1.000  C
  H97      1.0000 0.82160  0.32160  0.31930  Biso   1.000  H
  H98      1.0000 0.17840  0.67840  0.31930  Biso   1.000  H
  H99      1.0000 0.67840  0.82160  0.31930  Biso   1.000  H
  H100     1.0000 0.32160  0.17840  0.31930  Biso   1.000  H
  H101     1.0000 0.67840  0.82160  0.68070  Biso   1.000  H
  H102     1.0000 0.32160  0.17840  0.68070  Biso   1.000  H
  H103     1.0000 0.82160  0.32160  0.68070  Biso   1.000  H
  H104     1.0000 0.17840  0.67840  0.68070  Biso   1.000  H
  C257     1.0000 0.81650  0.31650  0.39700  Biso   1.000  C
  C258     1.0000 0.18350  0.68350  0.39700  Biso   1.000  C
  C259     1.0000 0.68350  0.81650  0.39700  Biso   1.000  C
  C260     1.0000 0.31650  0.18350  0.39700  Biso   1.000  C
  C261     1.0000 0.68350  0.81650  0.60300  Biso   1.000  C
  C262     1.0000 0.31650  0.18350  0.60300  Biso   1.000  C
  C263     1.0000 0.81650  0.31650  0.60300  Biso   1.000  C
  C264     1.0000 0.18350  0.68350  0.60300  Biso   1.000  C
  C265     1.0000 0.85180  0.35180  0.41210  Biso   1.000  C
  C266     1.0000 0.14820  0.64820  0.41210  Biso   1.000  C
  C267     1.0000 0.64820  0.85180  0.41210  Biso   1.000  C
  C268     1.0000 0.35180  0.14820  0.41210  Biso   1.000  C
  C269     1.0000 0.64820  0.85180  0.58790  Biso   1.000  C
  C270     1.0000 0.35180  0.14820  0.58790  Biso   1.000  C
  C271     1.0000 0.85180  0.35180  0.58790  Biso   1.000  C
  C272     1.0000 0.14820  0.64820  0.58790  Biso   1.000  C
  C273     1.0000 0.86110  0.36110  0.46460  Biso   1.000  C
  C274     1.0000 0.13890  0.63890  0.46460  Biso   1.000  C
  C275     1.0000 0.63890  0.86110  0.46460  Biso   1.000  C
  C276     1.0000 0.36110  0.13890  0.46460  Biso   1.000  C
  C277     1.0000 0.63890  0.86110  0.53540  Biso   1.000  C
  C278     1.0000 0.36110  0.13890  0.53540  Biso   1.000  C
  C279     1.0000 0.86110  0.36110  0.53540  Biso   1.000  C
  C280     1.0000 0.13890  0.63890  0.53540  Biso   1.000  C
  C281     1.0000 0.89610  0.39610  0.47560  Biso   1.000  C
  C282     1.0000 0.10390  0.60390  0.47560  Biso   1.000  C
  C283     1.0000 0.60390  0.89610  0.47560  Biso   1.000  C
  C284     1.0000 0.39610  0.10390  0.47560  Biso   1.000  C
  C285     1.0000 0.60390  0.89610  0.52440  Biso   1.000  C
  C286     1.0000 0.39610  0.10390  0.52440  Biso   1.000  C
  C287     1.0000 0.89610  0.39610  0.52440  Biso   1.000  C
  C288     1.0000 0.10390  0.60390  0.52440  Biso   1.000  C
  H105     1.0000 0.91400  0.41400  0.45400  Biso   1.000  H
  H106     1.0000 0.08600  0.58600  0.45400  Biso   1.000  H
  H107     1.0000 0.58600  0.91400  0.45400  Biso   1.000  H
  H108     1.0000 0.41400  0.08600  0.45400  Biso   1.000  H
  H109     1.0000 0.58600  0.91400  0.54600  Biso   1.000  H
  H110     1.0000 0.41400  0.08600  0.54600  Biso   1.000  H
  H111     1.0000 0.91400  0.41400  0.54600  Biso   1.000  H
  H112     1.0000 0.08600  0.58600  0.54600  Biso   1.000  H
  C289     1.0000 0.70820  0.20820  0.37260  Biso   1.000  C
  C290     1.0000 0.29180  0.79180  0.37260  Biso   1.000  C
  C291     1.0000 0.79180  0.70820  0.37260  Biso   1.000  C
  C292     1.0000 0.20820  0.29180  0.37260  Biso   1.000  C
  C293     1.0000 0.79180  0.70820  0.62740  Biso   1.000  C
  C294     1.0000 0.20820  0.29180  0.62740  Biso   1.000  C
  C295     1.0000 0.70820  0.20820  0.62740  Biso   1.000  C
  C296     1.0000 0.29180  0.79180  0.62740  Biso   1.000  C
  C297     1.0000 0.72820  0.16670  0.35130  Biso   1.000  C
  C298     1.0000 0.27180  0.83330  0.35130  Biso   1.000  C
  C299     1.0000 0.83330  0.72820  0.35130  Biso   1.000  C
  C300     1.0000 0.16670  0.27180  0.35130  Biso   1.000  C
  C301     1.0000 0.77180  0.66670  0.64870  Biso   1.000  C
  C302     1.0000 0.22820  0.33330  0.64870  Biso   1.000  C
  C303     1.0000 0.66670  0.22820  0.64870  Biso   1.000  C
  C304     1.0000 0.33330  0.77180  0.64870  Biso   1.000  C
  C305     1.0000 0.27180  0.83330  0.64870  Biso   1.000  C
  C306     1.0000 0.72820  0.16670  0.64870  Biso   1.000  C
  C307     1.0000 0.16670  0.27180  0.64870  Biso   1.000  C
  C308     1.0000 0.83330  0.72820  0.64870  Biso   1.000  C
  C309     1.0000 0.22820  0.33330  0.35130  Biso   1.000  C
  C310     1.0000 0.77180  0.66670  0.35130  Biso   1.000  C
  C311     1.0000 0.33330  0.77180  0.35130  Biso   1.000  C
  C312     1.0000 0.66670  0.22820  0.35130  Biso   1.000  C
  H113     1.0000 0.75590  0.15410  0.36370  Biso   1.000  H
  H114     1.0000 0.24410  0.84590  0.36370  Biso   1.000  H
  H115     1.0000 0.84590  0.75590  0.36370  Biso   1.000  H
  H116     1.0000 0.15410  0.24410  0.36370  Biso   1.000  H
  H117     1.0000 0.74410  0.65410  0.63630  Biso   1.000  H
  H118     1.0000 0.25590  0.34590  0.63630  Biso   1.000  H
  H119     1.0000 0.65410  0.25590  0.63630  Biso   1.000  H
  H120     1.0000 0.34590  0.74410  0.63630  Biso   1.000  H
  H121     1.0000 0.24410  0.84590  0.63630  Biso   1.000  H
  H122     1.0000 0.75590  0.15410  0.63630  Biso   1.000  H
  H123     1.0000 0.15410  0.24410  0.63630  Biso   1.000  H
  H124     1.0000 0.84590  0.75590  0.63630  Biso   1.000  H
  H125     1.0000 0.25590  0.34590  0.36370  Biso   1.000  H
  H126     1.0000 0.74410  0.65410  0.36370  Biso   1.000  H
  H127     1.0000 0.34590  0.74410  0.36370  Biso   1.000  H
  H128     1.0000 0.65410  0.25590  0.36370  Biso   1.000  H
  C313     1.0000 0.70460  0.14530  0.31090  Biso   1.000  C
  C314     1.0000 0.29540  0.85470  0.31090  Biso   1.000  C
  C315     1.0000 0.85470  0.70460  0.31090  Biso   1.000  C
  C316     1.0000 0.14530  0.29540  0.31090  Biso   1.000  C
  C317     1.0000 0.79540  0.64530  0.68910  Biso   1.000  C
  C318     1.0000 0.20460  0.35470  0.68910  Biso   1.000  C
  C319     1.0000 0.64530  0.20460  0.68910  Biso   1.000  C
  C320     1.0000 0.35470  0.79540  0.68910  Biso   1.000  C
  C321     1.0000 0.29540  0.85470  0.68910  Biso   1.000  C
  C322     1.0000 0.70460  0.14530  0.68910  Biso   1.000  C
  C323     1.0000 0.14530  0.29540  0.68910  Biso   1.000  C
  C324     1.0000 0.85470  0.70460  0.68910  Biso   1.000  C
  C325     1.0000 0.20460  0.35470  0.31090  Biso   1.000  C
  C326     1.0000 0.79540  0.64530  0.31090  Biso   1.000  C
  C327     1.0000 0.35470  0.79540  0.31090  Biso   1.000  C
  C328     1.0000 0.64530  0.20460  0.31090  Biso   1.000  C
  C329     1.0000 0.66640  0.16640  0.28750  Biso   1.000  C
  C330     1.0000 0.33360  0.83360  0.28750  Biso   1.000  C
  C331     1.0000 0.83360  0.66640  0.28750  Biso   1.000  C
  C332     1.0000 0.16640  0.33360  0.28750  Biso   1.000  C
  C333     1.0000 0.83360  0.66640  0.71250  Biso   1.000  C
  C334     1.0000 0.16640  0.33360  0.71250  Biso   1.000  C
  C335     1.0000 0.66640  0.16640  0.71250  Biso   1.000  C
  C336     1.0000 0.33360  0.83360  0.71250  Biso   1.000  C
  H129     1.0000 0.65550  0.15550  0.25730  Biso   1.000  H
  H130     1.0000 0.34450  0.84450  0.25730  Biso   1.000  H
  H131     1.0000 0.84450  0.65550  0.25730  Biso   1.000  H
  H132     1.0000 0.15550  0.34450  0.25730  Biso   1.000  H
  H133     1.0000 0.84450  0.65550  0.74270  Biso   1.000  H
  H134     1.0000 0.15550  0.34450  0.74270  Biso   1.000  H
  H135     1.0000 0.65550  0.15550  0.74270  Biso   1.000  H
  H136     1.0000 0.34450  0.84450  0.74270  Biso   1.000  H
  C337     1.0000 0.72600  0.10240  0.28760  Biso   1.000  C
  C338     1.0000 0.27400  0.89760  0.28760  Biso   1.000  C
  C339     1.0000 0.89760  0.72600  0.28760  Biso   1.000  C
  C340     1.0000 0.10240  0.27400  0.28760  Biso   1.000  C
  C341     1.0000 0.77400  0.60240  0.71240  Biso   1.000  C
  C342     1.0000 0.22600  0.39760  0.71240  Biso   1.000  C
  C343     1.0000 0.60240  0.22600  0.71240  Biso   1.000  C
  C344     1.0000 0.39760  0.77400  0.71240  Biso   1.000  C
  C345     1.0000 0.27400  0.89760  0.71240  Biso   1.000  C
  C346     1.0000 0.72600  0.10240  0.71240  Biso   1.000  C
  C347     1.0000 0.10240  0.27400  0.71240  Biso   1.000  C
  C348     1.0000 0.89760  0.72600  0.71240  Biso   1.000  C
  C349     1.0000 0.22600  0.39760  0.28760  Biso   1.000  C
  C350     1.0000 0.77400  0.60240  0.28760  Biso   1.000  C
  C351     1.0000 0.39760  0.77400  0.28760  Biso   1.000  C
  C352     1.0000 0.60240  0.22600  0.28760  Biso   1.000  C
  C353     1.0000 0.90360  0.35560  0.37440  Biso   1.000  C
  C354     1.0000 0.09640  0.64440  0.37440  Biso   1.000  C
  C355     1.0000 0.64440  0.90360  0.37440  Biso   1.000  C
  C356     1.0000 0.35560  0.09640  0.37440  Biso   1.000  C
  C357     1.0000 0.59640  0.85560  0.62560  Biso   1.000  C
  C358     1.0000 0.40360  0.14440  0.62560  Biso   1.000  C
  C359     1.0000 0.85560  0.40360  0.62560  Biso   1.000  C
  C360     1.0000 0.14440  0.59640  0.62560  Biso   1.000  C
  C361     1.0000 0.09640  0.64440  0.62560  Biso   1.000  C
  C362     1.0000 0.90360  0.35560  0.62560  Biso   1.000  C
  C363     1.0000 0.35560  0.09640  0.62560  Biso   1.000  C
  C364     1.0000 0.64440  0.90360  0.62560  Biso   1.000  C
  C365     1.0000 0.40360  0.14440  0.37440  Biso   1.000  C
  C366     1.0000 0.59640  0.85560  0.37440  Biso   1.000  C
  C367     1.0000 0.14440  0.59640  0.37440  Biso   1.000  C
  C368     1.0000 0.85560  0.40360  0.37440  Biso   1.000  C
  C369     1.0000 0.90180  0.40180  0.35870  Biso   1.000  C
  C370     1.0000 0.09820  0.59820  0.35870  Biso   1.000  C
  C371     1.0000 0.59820  0.90180  0.35870  Biso   1.000  C
  C372     1.0000 0.40180  0.09820  0.35870  Biso   1.000  C
  C373     1.0000 0.59820  0.90180  0.64130  Biso   1.000  C
  C374     1.0000 0.40180  0.09820  0.64130  Biso   1.000  C
  C375     1.0000 0.90180  0.40180  0.64130  Biso   1.000  C
  C376     1.0000 0.09820  0.59820  0.64130  Biso   1.000  C
  C377     1.0000 0.93230  0.43230  0.31340  Biso   1.000  C
  C378     1.0000 0.06770  0.56770  0.31340  Biso   1.000  C
  C379     1.0000 0.56770  0.93230  0.31340  Biso   1.000  C
  C380     1.0000 0.43230  0.06770  0.31340  Biso   1.000  C
  C381     1.0000 0.56770  0.93230  0.68660  Biso   1.000  C
  C382     1.0000 0.43230  0.06770  0.68660  Biso   1.000  C
  C383     1.0000 0.93230  0.43230  0.68660  Biso   1.000  C
  C384     1.0000 0.06770  0.56770  0.68660  Biso   1.000  C
  C385     1.0000 0.96610  0.38710  0.30370  Biso   1.000  C
  C386     1.0000 0.03390  0.61290  0.30370  Biso   1.000  C
  C387     1.0000 0.61290  0.96610  0.30370  Biso   1.000  C
  C388     1.0000 0.38710  0.03390  0.30370  Biso   1.000  C
  C389     1.0000 0.53390  0.88710  0.69630  Biso   1.000  C
  C390     1.0000 0.46610  0.11290  0.69630  Biso   1.000  C
  C391     1.0000 0.88710  0.46610  0.69630  Biso   1.000  C
  C392     1.0000 0.11290  0.53390  0.69630  Biso   1.000  C
  C393     1.0000 0.03390  0.61290  0.69630  Biso   1.000  C
  C394     1.0000 0.96610  0.38710  0.69630  Biso   1.000  C
  C395     1.0000 0.38710  0.03390  0.69630  Biso   1.000  C
  C396     1.0000 0.61290  0.96610  0.69630  Biso   1.000  C
  C397     1.0000 0.46610  0.11290  0.30370  Biso   1.000  C
  C398     1.0000 0.53390  0.88710  0.30370  Biso   1.000  C
  C399     1.0000 0.11290  0.53390  0.30370  Biso   1.000  C
  C400     1.0000 0.88710  0.46610  0.30370  Biso   1.000  C
  H137     1.0000 0.99550  0.39390  0.29080  Biso   1.000  H
  H138     1.0000 0.00450  0.60610  0.29080  Biso   1.000  H
  H139     1.0000 0.60610  0.99550  0.29080  Biso   1.000  H
  H140     1.0000 0.39390  0.00450  0.29080  Biso   1.000  H
  H141     1.0000 0.50450  0.89390  0.70920  Biso   1.000  H
  H142     1.0000 0.49550  0.10610  0.70920  Biso   1.000  H
  H143     1.0000 0.89390  0.49550  0.70920  Biso   1.000  H
  H144     1.0000 0.10610  0.50450  0.70920  Biso   1.000  H
  H145     1.0000 0.00450  0.60610  0.70920  Biso   1.000  H
  H146     1.0000 0.99550  0.39390  0.70920  Biso   1.000  H
  H147     1.0000 0.39390  0.00450  0.70920  Biso   1.000  H
  H148     1.0000 0.60610  0.99550  0.70920  Biso   1.000  H
  H149     1.0000 0.49550  0.10610  0.29080  Biso   1.000  H
  H150     1.0000 0.50450  0.89390  0.29080  Biso   1.000  H
  H151     1.0000 0.10610  0.50450  0.29080  Biso   1.000  H
  H152     1.0000 0.89390  0.49550  0.29080  Biso   1.000  H
  C401     1.0000 0.95520  0.33080  0.31370  Biso   1.000  C
  C402     1.0000 0.04480  0.66920  0.31370  Biso   1.000  C
  C403     1.0000 0.66920  0.95520  0.31370  Biso   1.000  C
  C404     1.0000 0.33080  0.04480  0.31370  Biso   1.000  C
  C405     1.0000 0.54480  0.83080  0.68630  Biso   1.000  C
  C406     1.0000 0.45520  0.16920  0.68630  Biso   1.000  C
  C407     1.0000 0.83080  0.45520  0.68630  Biso   1.000  C
  C408     1.0000 0.16920  0.54480  0.68630  Biso   1.000  C
  C409     1.0000 0.04480  0.66920  0.68630  Biso   1.000  C
  C410     1.0000 0.95520  0.33080  0.68630  Biso   1.000  C
  C411     1.0000 0.33080  0.04480  0.68630  Biso   1.000  C
  C412     1.0000 0.66920  0.95520  0.68630  Biso   1.000  C
  C413     1.0000 0.45520  0.16920  0.31370  Biso   1.000  C
  C414     1.0000 0.54480  0.83080  0.31370  Biso   1.000  C
  C415     1.0000 0.16920  0.54480  0.31370  Biso   1.000  C
  C416     1.0000 0.83080  0.45520  0.31370  Biso   1.000  C
  C417     1.0000 0.92850  0.32170  0.35210  Biso   1.000  C
  C418     1.0000 0.07150  0.67830  0.35210  Biso   1.000  C
  C419     1.0000 0.67830  0.92850  0.35210  Biso   1.000  C
  C420     1.0000 0.32170  0.07150  0.35210  Biso   1.000  C
  C421     1.0000 0.57150  0.82170  0.64790  Biso   1.000  C
  C422     1.0000 0.42850  0.17830  0.64790  Biso   1.000  C
  C423     1.0000 0.82170  0.42850  0.64790  Biso   1.000  C
  C424     1.0000 0.17830  0.57150  0.64790  Biso   1.000  C
  C425     1.0000 0.07150  0.67830  0.64790  Biso   1.000  C
  C426     1.0000 0.92850  0.32170  0.64790  Biso   1.000  C
  C427     1.0000 0.32170  0.07150  0.64790  Biso   1.000  C
  C428     1.0000 0.67830  0.92850  0.64790  Biso   1.000  C
  C429     1.0000 0.42850  0.17830  0.35210  Biso   1.000  C
  C430     1.0000 0.57150  0.82170  0.35210  Biso   1.000  C
  C431     1.0000 0.17830  0.57150  0.35210  Biso   1.000  C
  C432     1.0000 0.82170  0.42850  0.35210  Biso   1.000  C
  H153     1.0000 0.92680  0.29120  0.36400  Biso   1.000  H
  H154     1.0000 0.07320  0.70880  0.36400  Biso   1.000  H
  H155     1.0000 0.70880  0.92680  0.36400  Biso   1.000  H
  H156     1.0000 0.29120  0.07320  0.36400  Biso   1.000  H
  H157     1.0000 0.57320  0.79120  0.63600  Biso   1.000  H
  H158     1.0000 0.42680  0.20880  0.63600  Biso   1.000  H
  H159     1.0000 0.79120  0.42680  0.63600  Biso   1.000  H
  H160     1.0000 0.20880  0.57320  0.63600  Biso   1.000  H
  H161     1.0000 0.07320  0.70880  0.63600  Biso   1.000  H
  H162     1.0000 0.92680  0.29120  0.63600  Biso   1.000  H
  H163     1.0000 0.29120  0.07320  0.63600  Biso   1.000  H
  H164     1.0000 0.70880  0.92680  0.63600  Biso   1.000  H
  H165     1.0000 0.42680  0.20880  0.36400  Biso   1.000  H
  H166     1.0000 0.57320  0.79120  0.36400  Biso   1.000  H
  H167     1.0000 0.20880  0.57320  0.36400  Biso   1.000  H
  H168     1.0000 0.79120  0.42680  0.36400  Biso   1.000  H
  C433     1.0000 0.98230  0.29570  0.29000  Biso   1.000  C
  C434     1.0000 0.01770  0.70430  0.29000  Biso   1.000  C
  C435     1.0000 0.70430  0.98230  0.29000  Biso   1.000  C
  C436     1.0000 0.29570  0.01770  0.29000  Biso   1.000  C
  C437     1.0000 0.51770  0.79570  0.71000  Biso   1.000  C
  C438     1.0000 0.48230  0.20430  0.71000  Biso   1.000  C
  C439     1.0000 0.79570  0.48230  0.71000  Biso   1.000  C
  C440     1.0000 0.20430  0.51770  0.71000  Biso   1.000  C
  C441     1.0000 0.01770  0.70430  0.71000  Biso   1.000  C
  C442     1.0000 0.98230  0.29570  0.71000  Biso   1.000  C
  C443     1.0000 0.29570  0.01770  0.71000  Biso   1.000  C
  C444     1.0000 0.70430  0.98230  0.71000  Biso   1.000  C
  C445     1.0000 0.48230  0.20430  0.29000  Biso   1.000  C
  C446     1.0000 0.51770  0.79570  0.29000  Biso   1.000  C
  C447     1.0000 0.20430  0.51770  0.29000  Biso   1.000  C
  C448     1.0000 0.79570  0.48230  0.29000  Biso   1.000  C
