data_image0
_cell_length_a       34.849
_cell_length_b       13.4109
_cell_length_c       26.387
_cell_angle_alpha    90
_cell_angle_beta     131.039
_cell_angle_gamma    90

_symmetry_space_group_name_H-M    "P 1"
_symmetry_int_tables_number       1

loop_
  _symmetry_equiv_pos_as_xyz
  'x, y, z'

loop_
  _atom_site_label
  _atom_site_occupancy
  _atom_site_fract_x
  _atom_site_fract_y
  _atom_site_fract_z
  _atom_site_thermal_displace_type
  _atom_site_B_iso_or_equiv
  _atom_site_type_symbol
  Cu1      1.0000 0.75810  0.50148  0.85866  Biso   1.000  Cu
  Cu2      1.0000 0.25810  0.00148  0.85866  Biso   1.000  Cu
  Cu3      1.0000 0.24190  0.50148  0.64134  Biso   1.000  Cu
  Cu4      1.0000 0.74190  0.00148  0.64134  Biso   1.000  Cu
  Cu5      1.0000 0.24190  0.49852  0.14134  Biso   1.000  Cu
  Cu6      1.0000 0.74190  0.99852  0.14134  Biso   1.000  Cu
  Cu7      1.0000 0.75810  0.49852  0.35866  Biso   1.000  Cu
  Cu8      1.0000 0.25810  0.99852  0.35866  Biso   1.000  Cu
  Cu9      1.0000 0.58261  0.74618  0.62706  Biso   1.000  Cu
  Cu10     1.0000 0.08261  0.24618  0.62706  Biso   1.000  Cu
  Cu11     1.0000 0.41739  0.74618  0.87294  Biso   1.000  Cu
  Cu12     1.0000 0.91739  0.24618  0.87294  Biso   1.000  Cu
  Cu13     1.0000 0.41739  0.25382  0.37294  Biso   1.000  Cu
  Cu14     1.0000 0.91739  0.75382  0.37294  Biso   1.000  Cu
  Cu15     1.0000 0.58261  0.25382  0.12706  Biso   1.000  Cu
  Cu16     1.0000 0.08261  0.75382  0.12706  Biso   1.000  Cu
  O1       1.0000 0.60190  0.57320  0.64550  Biso   1.000  O
  O2       1.0000 0.10190  0.07320  0.64550  Biso   1.000  O
  O3       1.0000 0.39810  0.57320  0.85450  Biso   1.000  O
  O4       1.0000 0.89810  0.07320  0.85450  Biso   1.000  O
  O5       1.0000 0.39810  0.42680  0.35450  Biso   1.000  O
  O6       1.0000 0.89810  0.92680  0.35450  Biso   1.000  O
  O7       1.0000 0.60190  0.42680  0.14550  Biso   1.000  O
  O8       1.0000 0.10190  0.92680  0.14550  Biso   1.000  O
  O9       1.0000 0.57380  0.64390  0.68830  Biso   1.000  O
  O10      1.0000 0.07380  0.14390  0.68830  Biso   1.000  O
  O11      1.0000 0.42620  0.64390  0.81170  Biso   1.000  O
  O12      1.0000 0.92620  0.14390  0.81170  Biso   1.000  O
  O13      1.0000 0.42620  0.35610  0.31170  Biso   1.000  O
  O14      1.0000 0.92620  0.85610  0.31170  Biso   1.000  O
  O15      1.0000 0.57380  0.35610  0.18830  Biso   1.000  O
  O16      1.0000 0.07380  0.85610  0.18830  Biso   1.000  O
  O17      1.0000 0.68330  0.51710  0.79380  Biso   1.000  O
  O18      1.0000 0.18330  0.01710  0.79380  Biso   1.000  O
  O19      1.0000 0.31670  0.51710  0.70620  Biso   1.000  O
  O20      1.0000 0.81670  0.01710  0.70620  Biso   1.000  O
  O21      1.0000 0.31670  0.48290  0.20620  Biso   1.000  O
  O22      1.0000 0.81670  0.98290  0.20620  Biso   1.000  O
  O23      1.0000 0.68330  0.48290  0.29380  Biso   1.000  O
  O24      1.0000 0.18330  0.98290  0.29380  Biso   1.000  O
  O25      1.0000 0.70130  0.35750  0.80420  Biso   1.000  O
  O26      1.0000 0.20130  0.85750  0.80420  Biso   1.000  O
  O27      1.0000 0.29870  0.35750  0.69580  Biso   1.000  O
  O28      1.0000 0.79870  0.85750  0.69580  Biso   1.000  O
  O29      1.0000 0.29870  0.64250  0.19580  Biso   1.000  O
  O30      1.0000 0.79870  0.14250  0.19580  Biso   1.000  O
  O31      1.0000 0.70130  0.64250  0.30420  Biso   1.000  O
  O32      1.0000 0.20130  0.14250  0.30420  Biso   1.000  O
  O33      1.0000 0.56590  0.13000  0.75870  Biso   1.000  O
  O34      1.0000 0.06590  0.63000  0.75870  Biso   1.000  O
  O35      1.0000 0.43410  0.13000  0.74130  Biso   1.000  O
  O36      1.0000 0.93410  0.63000  0.74130  Biso   1.000  O
  O37      1.0000 0.43410  0.87000  0.24130  Biso   1.000  O
  O38      1.0000 0.93410  0.37000  0.24130  Biso   1.000  O
  O39      1.0000 0.56590  0.87000  0.25870  Biso   1.000  O
  O40      1.0000 0.06590  0.37000  0.25870  Biso   1.000  O
  O41      1.0000 0.41310  0.20370  0.43850  Biso   1.000  O
  O42      1.0000 0.91310  0.70370  0.43850  Biso   1.000  O
  O43      1.0000 0.58690  0.20370  0.06150  Biso   1.000  O
  O44      1.0000 0.08690  0.70370  0.06150  Biso   1.000  O
  O45      1.0000 0.58690  0.79630  0.56150  Biso   1.000  O
  O46      1.0000 0.08690  0.29630  0.56150  Biso   1.000  O
  O47      1.0000 0.41310  0.79630  0.93850  Biso   1.000  O
  O48      1.0000 0.91310  0.29630  0.93850  Biso   1.000  O
  O49      1.0000 0.42120  0.03990  0.42900  Biso   1.000  O
  O50      1.0000 0.92120  0.53990  0.42900  Biso   1.000  O
  O51      1.0000 0.57880  0.03990  0.07100  Biso   1.000  O
  O52      1.0000 0.07880  0.53990  0.07100  Biso   1.000  O
  O53      1.0000 0.57880  0.96010  0.57100  Biso   1.000  O
  O54      1.0000 0.07880  0.46010  0.57100  Biso   1.000  O
  O55      1.0000 0.42120  0.96010  0.92900  Biso   1.000  O
  O56      1.0000 0.92120  0.46010  0.92900  Biso   1.000  O
  O57      1.0000 0.32860  0.04100  0.42230  Biso   1.000  O
  O58      1.0000 0.82860  0.54100  0.42230  Biso   1.000  O
  O59      1.0000 0.67140  0.04100  0.07770  Biso   1.000  O
  O60      1.0000 0.17140  0.54100  0.07770  Biso   1.000  O
  O61      1.0000 0.67140  0.95900  0.57770  Biso   1.000  O
  O62      1.0000 0.17140  0.45900  0.57770  Biso   1.000  O
  O63      1.0000 0.32860  0.95900  0.92230  Biso   1.000  O
  O64      1.0000 0.82860  0.45900  0.92230  Biso   1.000  O
  O65      1.0000 0.34640  0.89710  0.47460  Biso   1.000  O
  O66      1.0000 0.84640  0.39710  0.47460  Biso   1.000  O
  O67      1.0000 0.65360  0.89710  0.02540  Biso   1.000  O
  O68      1.0000 0.15360  0.39710  0.02540  Biso   1.000  O
  O69      1.0000 0.65360  0.10290  0.52540  Biso   1.000  O
  O70      1.0000 0.15360  0.60290  0.52540  Biso   1.000  O
  O71      1.0000 0.34640  0.10290  0.97460  Biso   1.000  O
  O72      1.0000 0.84640  0.60290  0.97460  Biso   1.000  O
  O73      1.0000 0.56380  0.88230  0.65560  Biso   1.000  O
  O74      1.0000 0.06380  0.38230  0.65560  Biso   1.000  O
  O75      1.0000 0.43620  0.88230  0.84440  Biso   1.000  O
  O76      1.0000 0.93620  0.38230  0.84440  Biso   1.000  O
  O77      1.0000 0.43620  0.11770  0.34440  Biso   1.000  O
  O78      1.0000 0.93620  0.61770  0.34440  Biso   1.000  O
  O79      1.0000 0.56380  0.11770  0.15560  Biso   1.000  O
  O80      1.0000 0.06380  0.61770  0.15560  Biso   1.000  O
  H1       1.0000 0.57500  0.89500  0.69480  Biso   1.000  H
  H2       1.0000 0.07500  0.39500  0.69480  Biso   1.000  H
  H3       1.0000 0.42500  0.89500  0.80520  Biso   1.000  H
  H4       1.0000 0.92500  0.39500  0.80520  Biso   1.000  H
  H5       1.0000 0.42500  0.10500  0.30520  Biso   1.000  H
  H6       1.0000 0.92500  0.60500  0.30520  Biso   1.000  H
  H7       1.0000 0.57500  0.10500  0.19480  Biso   1.000  H
  H8       1.0000 0.07500  0.60500  0.19480  Biso   1.000  H
  H9       1.0000 0.56850  0.90650  0.63040  Biso   1.000  H
  H10      1.0000 0.06850  0.40650  0.63040  Biso   1.000  H
  H11      1.0000 0.43150  0.90650  0.86960  Biso   1.000  H
  H12      1.0000 0.93150  0.40650  0.86960  Biso   1.000  H
  H13      1.0000 0.43150  0.09350  0.36960  Biso   1.000  H
  H14      1.0000 0.93150  0.59350  0.36960  Biso   1.000  H
  H15      1.0000 0.56850  0.09350  0.13040  Biso   1.000  H
  H16      1.0000 0.06850  0.59350  0.13040  Biso   1.000  H
  O81      1.0000 0.60430  0.73480  0.93370  Biso   1.000  O
  O82      1.0000 0.10430  0.23480  0.93370  Biso   1.000  O
  O83      1.0000 0.39570  0.73480  0.56630  Biso   1.000  O
  O84      1.0000 0.89570  0.23480  0.56630  Biso   1.000  O
  O85      1.0000 0.39570  0.26520  0.06630  Biso   1.000  O
  O86      1.0000 0.89570  0.76520  0.06630  Biso   1.000  O
  O87      1.0000 0.60430  0.26520  0.43370  Biso   1.000  O
  O88      1.0000 0.10430  0.76520  0.43370  Biso   1.000  O
  H17      1.0000 0.61890  0.78310  0.96120  Biso   1.000  H
  H18      1.0000 0.11890  0.28310  0.96120  Biso   1.000  H
  H19      1.0000 0.38110  0.78310  0.53880  Biso   1.000  H
  H20      1.0000 0.88110  0.28310  0.53880  Biso   1.000  H
  H21      1.0000 0.38110  0.21690  0.03880  Biso   1.000  H
  H22      1.0000 0.88110  0.71690  0.03880  Biso   1.000  H
  H23      1.0000 0.61890  0.21690  0.46120  Biso   1.000  H
  H24      1.0000 0.11890  0.71690  0.46120  Biso   1.000  H
  H25      1.0000 0.60530  0.67250  0.94040  Biso   1.000  H
  H26      1.0000 0.10530  0.17250  0.94040  Biso   1.000  H
  H27      1.0000 0.39470  0.67250  0.55960  Biso   1.000  H
  H28      1.0000 0.89470  0.17250  0.55960  Biso   1.000  H
  H29      1.0000 0.39470  0.32750  0.05960  Biso   1.000  H
  H30      1.0000 0.89470  0.82750  0.05960  Biso   1.000  H
  H31      1.0000 0.60530  0.32750  0.44040  Biso   1.000  H
  H32      1.0000 0.10530  0.82750  0.44040  Biso   1.000  H
  O89      1.0000 0.60680  0.53850  0.95690  Biso   1.000  O
  O90      1.0000 0.10680  0.03850  0.95690  Biso   1.000  O
  O91      1.0000 0.39320  0.53850  0.54310  Biso   1.000  O
  O92      1.0000 0.89320  0.03850  0.54310  Biso   1.000  O
  O93      1.0000 0.39320  0.46150  0.04310  Biso   1.000  O
  O94      1.0000 0.89320  0.96150  0.04310  Biso   1.000  O
  O95      1.0000 0.60680  0.46150  0.45690  Biso   1.000  O
  O96      1.0000 0.10680  0.96150  0.45690  Biso   1.000  O
  H33      1.0000 0.59460  0.52580  0.91730  Biso   1.000  H
  H34      1.0000 0.09460  0.02580  0.91730  Biso   1.000  H
  H35      1.0000 0.40540  0.52580  0.58270  Biso   1.000  H
  H36      1.0000 0.90540  0.02580  0.58270  Biso   1.000  H
  H37      1.0000 0.40540  0.47420  0.08270  Biso   1.000  H
  H38      1.0000 0.90540  0.97420  0.08270  Biso   1.000  H
  H39      1.0000 0.59460  0.47420  0.41730  Biso   1.000  H
  H40      1.0000 0.09460  0.97420  0.41730  Biso   1.000  H
  H41      1.0000 0.61040  0.48300  0.97520  Biso   1.000  H
  H42      1.0000 0.11040  0.98300  0.97520  Biso   1.000  H
  H43      1.0000 0.38960  0.48300  0.52480  Biso   1.000  H
  H44      1.0000 0.88960  0.98300  0.52480  Biso   1.000  H
  H45      1.0000 0.38960  0.51700  0.02480  Biso   1.000  H
  H46      1.0000 0.88960  0.01700  0.02480  Biso   1.000  H
  H47      1.0000 0.61040  0.51700  0.47520  Biso   1.000  H
  H48      1.0000 0.11040  0.01700  0.47520  Biso   1.000  H
  O97      1.0000 0.62130  0.34110  0.01350  Biso   1.000  O
  O98      1.0000 0.12130  0.84110  0.01350  Biso   1.000  O
  O99      1.0000 0.37870  0.34110  0.48650  Biso   1.000  O
  O100     1.0000 0.87870  0.84110  0.48650  Biso   1.000  O
  O101     1.0000 0.37870  0.65890  0.98650  Biso   1.000  O
  O102     1.0000 0.87870  0.15890  0.98650  Biso   1.000  O
  O103     1.0000 0.62130  0.65890  0.51350  Biso   1.000  O
  O104     1.0000 0.12130  0.15890  0.51350  Biso   1.000  O
  H49      1.0000 0.62030  0.31370  0.98440  Biso   1.000  H
  H50      1.0000 0.12030  0.81370  0.98440  Biso   1.000  H
  H51      1.0000 0.37970  0.31370  0.51560  Biso   1.000  H
  H52      1.0000 0.87970  0.81370  0.51560  Biso   1.000  H
  H53      1.0000 0.37970  0.68630  0.01560  Biso   1.000  H
  H54      1.0000 0.87970  0.18630  0.01560  Biso   1.000  H
  H55      1.0000 0.62030  0.68630  0.48440  Biso   1.000  H
  H56      1.0000 0.12030  0.18630  0.48440  Biso   1.000  H
  H57      1.0000 0.62060  0.29820  0.03590  Biso   1.000  H
  H58      1.0000 0.12060  0.79820  0.03590  Biso   1.000  H
  H59      1.0000 0.37940  0.29820  0.46410  Biso   1.000  H
  H60      1.0000 0.87940  0.79820  0.46410  Biso   1.000  H
  H61      1.0000 0.37940  0.70180  0.96410  Biso   1.000  H
  H62      1.0000 0.87940  0.20180  0.96410  Biso   1.000  H
  H63      1.0000 0.62060  0.70180  0.53590  Biso   1.000  H
  H64      1.0000 0.12060  0.20180  0.53590  Biso   1.000  H
  O105     1.0000 0.58140  0.47620  0.83720  Biso   1.000  O
  O106     1.0000 0.08140  0.97620  0.83720  Biso   1.000  O
  O107     1.0000 0.41860  0.47620  0.66280  Biso   1.000  O
  O108     1.0000 0.91860  0.97620  0.66280  Biso   1.000  O
  O109     1.0000 0.41860  0.52380  0.16280  Biso   1.000  O
  O110     1.0000 0.91860  0.02380  0.16280  Biso   1.000  O
  O111     1.0000 0.58140  0.52380  0.33720  Biso   1.000  O
  O112     1.0000 0.08140  0.02380  0.33720  Biso   1.000  O
  H65      1.0000 0.59680  0.51180  0.82830  Biso   1.000  H
  H66      1.0000 0.09680  0.01180  0.82830  Biso   1.000  H
  H67      1.0000 0.40320  0.51180  0.67170  Biso   1.000  H
  H68      1.0000 0.90320  0.01180  0.67170  Biso   1.000  H
  H69      1.0000 0.40320  0.48820  0.17170  Biso   1.000  H
  H70      1.0000 0.90320  0.98820  0.17170  Biso   1.000  H
  H71      1.0000 0.59680  0.48820  0.32830  Biso   1.000  H
  H72      1.0000 0.09680  0.98820  0.32830  Biso   1.000  H
  H73      1.0000 0.55000  0.48670  0.80450  Biso   1.000  H
  H74      1.0000 0.05000  0.98670  0.80450  Biso   1.000  H
  H75      1.0000 0.45000  0.48670  0.69550  Biso   1.000  H
  H76      1.0000 0.95000  0.98670  0.69550  Biso   1.000  H
  H77      1.0000 0.45000  0.51330  0.19550  Biso   1.000  H
  H78      1.0000 0.95000  0.01330  0.19550  Biso   1.000  H
  H79      1.0000 0.55000  0.51330  0.30450  Biso   1.000  H
  H80      1.0000 0.05000  0.01330  0.30450  Biso   1.000  H
  O113     1.0000 0.60130  0.92880  0.78350  Biso   1.000  O
  O114     1.0000 0.10130  0.42880  0.78350  Biso   1.000  O
  O115     1.0000 0.39870  0.92880  0.71650  Biso   1.000  O
  O116     1.0000 0.89870  0.42880  0.71650  Biso   1.000  O
  O117     1.0000 0.39870  0.07120  0.21650  Biso   1.000  O
  O118     1.0000 0.89870  0.57120  0.21650  Biso   1.000  O
  O119     1.0000 0.60130  0.07120  0.28350  Biso   1.000  O
  O120     1.0000 0.10130  0.57120  0.28350  Biso   1.000  O
  H81      1.0000 0.60650  0.33670  0.87770  Biso   1.000  H
  H82      1.0000 0.10650  0.83670  0.87770  Biso   1.000  H
  H83      1.0000 0.39350  0.33670  0.62230  Biso   1.000  H
  H84      1.0000 0.89350  0.83670  0.62230  Biso   1.000  H
  H85      1.0000 0.39350  0.66330  0.12230  Biso   1.000  H
  H86      1.0000 0.89350  0.16330  0.12230  Biso   1.000  H
  H87      1.0000 0.60650  0.66330  0.37770  Biso   1.000  H
  H88      1.0000 0.10650  0.16330  0.37770  Biso   1.000  H
  H89      1.0000 0.60140  0.23270  0.85530  Biso   1.000  H
  H90      1.0000 0.10140  0.73270  0.85530  Biso   1.000  H
  H91      1.0000 0.39860  0.23270  0.64470  Biso   1.000  H
  H92      1.0000 0.89860  0.73270  0.64470  Biso   1.000  H
  H93      1.0000 0.39860  0.76730  0.14470  Biso   1.000  H
  H94      1.0000 0.89860  0.26730  0.14470  Biso   1.000  H
  H95      1.0000 0.60140  0.76730  0.35530  Biso   1.000  H
  H96      1.0000 0.10140  0.26730  0.35530  Biso   1.000  H
  O121     1.0000 0.61680  0.27010  0.89100  Biso   1.000  O
  O122     1.0000 0.11680  0.77010  0.89100  Biso   1.000  O
  O123     1.0000 0.38320  0.27010  0.60900  Biso   1.000  O
  O124     1.0000 0.88320  0.77010  0.60900  Biso   1.000  O
  O125     1.0000 0.38320  0.72990  0.10900  Biso   1.000  O
  O126     1.0000 0.88320  0.22990  0.10900  Biso   1.000  O
  O127     1.0000 0.61680  0.72990  0.39100  Biso   1.000  O
  O128     1.0000 0.11680  0.22990  0.39100  Biso   1.000  O
  H97      1.0000 0.59320  0.98760  0.77850  Biso   1.000  H
  H98      1.0000 0.09320  0.48760  0.77850  Biso   1.000  H
  H99      1.0000 0.40680  0.98760  0.72150  Biso   1.000  H
  H100     1.0000 0.90680  0.48760  0.72150  Biso   1.000  H
  H101     1.0000 0.40680  0.01240  0.22150  Biso   1.000  H
  H102     1.0000 0.90680  0.51240  0.22150  Biso   1.000  H
  H103     1.0000 0.59320  0.01240  0.27850  Biso   1.000  H
  H104     1.0000 0.09320  0.51240  0.27850  Biso   1.000  H
  H105     1.0000 0.60140  0.85560  0.77760  Biso   1.000  H
  H106     1.0000 0.10140  0.35560  0.77760  Biso   1.000  H
  H107     1.0000 0.39860  0.85560  0.72240  Biso   1.000  H
  H108     1.0000 0.89860  0.35560  0.72240  Biso   1.000  H
  H109     1.0000 0.39860  0.14440  0.22240  Biso   1.000  H
  H110     1.0000 0.89860  0.64440  0.22240  Biso   1.000  H
  H111     1.0000 0.60140  0.14440  0.27760  Biso   1.000  H
  H112     1.0000 0.10140  0.64440  0.27760  Biso   1.000  H
  O129     1.0000 0.50000  0.71500  0.75000  Biso   1.000  O
  O130     1.0000 0.00000  0.21500  0.75000  Biso   1.000  O
  O131     1.0000 0.50000  0.28500  0.25000  Biso   1.000  O
  O132     1.0000 0.00000  0.78500  0.25000  Biso   1.000  O
  H113     1.0000 0.51930  0.69730  0.79110  Biso   1.000  H
  H114     1.0000 0.01930  0.19730  0.79110  Biso   1.000  H
  H115     1.0000 0.48070  0.69730  0.70890  Biso   1.000  H
  H116     1.0000 0.98070  0.19730  0.70890  Biso   1.000  H
  H117     1.0000 0.48070  0.30270  0.20890  Biso   1.000  H
  H118     1.0000 0.98070  0.80270  0.20890  Biso   1.000  H
  H119     1.0000 0.51930  0.30270  0.29110  Biso   1.000  H
  H120     1.0000 0.01930  0.80270  0.29110  Biso   1.000  H
  N1       1.0000 0.65790  0.76940  0.70690  Biso   1.000  N
  N2       1.0000 0.15790  0.26940  0.70690  Biso   1.000  N
  N3       1.0000 0.34210  0.76940  0.79310  Biso   1.000  N
  N4       1.0000 0.84210  0.26940  0.79310  Biso   1.000  N
  N5       1.0000 0.34210  0.23060  0.29310  Biso   1.000  N
  N6       1.0000 0.84210  0.73060  0.29310  Biso   1.000  N
  N7       1.0000 0.65790  0.23060  0.20690  Biso   1.000  N
  N8       1.0000 0.15790  0.73060  0.20690  Biso   1.000  N
  N9       1.0000 0.00870  0.77610  0.04770  Biso   1.000  N
  N10      1.0000 0.50870  0.27610  0.04770  Biso   1.000  N
  N11      1.0000 0.99130  0.77610  0.45230  Biso   1.000  N
  N12      1.0000 0.49130  0.27610  0.45230  Biso   1.000  N
  N13      1.0000 0.99130  0.22390  0.95230  Biso   1.000  N
  N14      1.0000 0.49130  0.72390  0.95230  Biso   1.000  N
  N15      1.0000 0.00870  0.22390  0.54770  Biso   1.000  N
  N16      1.0000 0.50870  0.72390  0.54770  Biso   1.000  N
  N17      1.0000 0.76420  0.53710  0.79030  Biso   1.000  N
  N18      1.0000 0.26420  0.03710  0.79030  Biso   1.000  N
  N19      1.0000 0.23580  0.53710  0.70970  Biso   1.000  N
  N20      1.0000 0.73580  0.03710  0.70970  Biso   1.000  N
  N21      1.0000 0.23580  0.46290  0.20970  Biso   1.000  N
  N22      1.0000 0.73580  0.96290  0.20970  Biso   1.000  N
  N23      1.0000 0.76420  0.46290  0.29030  Biso   1.000  N
  N24      1.0000 0.26420  0.96290  0.29030  Biso   1.000  N
  N25      1.0000 0.75380  0.51160  0.43000  Biso   1.000  N
  N26      1.0000 0.25380  0.01160  0.43000  Biso   1.000  N
  N27      1.0000 0.24620  0.51160  0.07000  Biso   1.000  N
  N28      1.0000 0.74620  0.01160  0.07000  Biso   1.000  N
  N29      1.0000 0.24620  0.48840  0.57000  Biso   1.000  N
  N30      1.0000 0.74620  0.98840  0.57000  Biso   1.000  N
  N31      1.0000 0.75380  0.48840  0.93000  Biso   1.000  N
  N32      1.0000 0.25380  0.98840  0.93000  Biso   1.000  N
  C1       1.0000 0.57640  0.47170  0.69120  Biso   1.000  C
  C2       1.0000 0.07640  0.97170  0.69120  Biso   1.000  C
  C3       1.0000 0.42360  0.47170  0.80880  Biso   1.000  C
  C4       1.0000 0.92360  0.97170  0.80880  Biso   1.000  C
  C5       1.0000 0.42360  0.52830  0.30880  Biso   1.000  C
  C6       1.0000 0.92360  0.02830  0.30880  Biso   1.000  C
  C7       1.0000 0.57640  0.52830  0.19120  Biso   1.000  C
  C8       1.0000 0.07640  0.02830  0.19120  Biso   1.000  C
  C9       1.0000 0.61370  0.40700  0.73330  Biso   1.000  C
  C10      1.0000 0.11370  0.90700  0.73330  Biso   1.000  C
  C11      1.0000 0.38630  0.40700  0.76670  Biso   1.000  C
  C12      1.0000 0.88630  0.90700  0.76670  Biso   1.000  C
  C13      1.0000 0.38630  0.59300  0.26670  Biso   1.000  C
  C14      1.0000 0.88630  0.09300  0.26670  Biso   1.000  C
  C15      1.0000 0.61370  0.59300  0.23330  Biso   1.000  C
  C16      1.0000 0.11370  0.09300  0.23330  Biso   1.000  C
  C17      1.0000 0.60120  0.30540  0.73790  Biso   1.000  C
  C18      1.0000 0.10120  0.80540  0.73790  Biso   1.000  C
  C19      1.0000 0.39880  0.30540  0.76210  Biso   1.000  C
  C20      1.0000 0.89880  0.80540  0.76210  Biso   1.000  C
  C21      1.0000 0.39880  0.69460  0.26210  Biso   1.000  C
  C22      1.0000 0.89880  0.19460  0.26210  Biso   1.000  C
  C23      1.0000 0.60120  0.69460  0.23790  Biso   1.000  C
  C24      1.0000 0.10120  0.19460  0.23790  Biso   1.000  C
  H121     1.0000 0.62700  0.26000  0.76700  Biso   1.000  H
  H122     1.0000 0.12700  0.76000  0.76700  Biso   1.000  H
  H123     1.0000 0.37300  0.26000  0.73300  Biso   1.000  H
  H124     1.0000 0.87300  0.76000  0.73300  Biso   1.000  H
  H125     1.0000 0.37300  0.74000  0.23300  Biso   1.000  H
  H126     1.0000 0.87300  0.24000  0.23300  Biso   1.000  H
  H127     1.0000 0.62700  0.74000  0.26700  Biso   1.000  H
  H128     1.0000 0.12700  0.24000  0.26700  Biso   1.000  H
  C25      1.0000 0.54960  0.27610  0.69800  Biso   1.000  C
  C26      1.0000 0.04960  0.77610  0.69800  Biso   1.000  C
  C27      1.0000 0.45040  0.27610  0.80200  Biso   1.000  C
  C28      1.0000 0.95040  0.77610  0.80200  Biso   1.000  C
  C29      1.0000 0.45040  0.72390  0.30200  Biso   1.000  C
  C30      1.0000 0.95040  0.22390  0.30200  Biso   1.000  C
  C31      1.0000 0.54960  0.72390  0.19800  Biso   1.000  C
  C32      1.0000 0.04960  0.22390  0.19800  Biso   1.000  C
  C33      1.0000 0.51340  0.34910  0.65700  Biso   1.000  C
  C34      1.0000 0.01340  0.84910  0.65700  Biso   1.000  C
  C35      1.0000 0.48660  0.34910  0.84300  Biso   1.000  C
  C36      1.0000 0.98660  0.84910  0.84300  Biso   1.000  C
  C37      1.0000 0.48660  0.65090  0.34300  Biso   1.000  C
  C38      1.0000 0.98660  0.15090  0.34300  Biso   1.000  C
  C39      1.0000 0.51340  0.65090  0.15700  Biso   1.000  C
  C40      1.0000 0.01340  0.15090  0.15700  Biso   1.000  C
  H129     1.0000 0.47910  0.33470  0.63170  Biso   1.000  H
  H130     1.0000 0.97910  0.83470  0.63170  Biso   1.000  H
  H131     1.0000 0.52090  0.33470  0.86830  Biso   1.000  H
  H132     1.0000 0.02090  0.83470  0.86830  Biso   1.000  H
  H133     1.0000 0.52090  0.66530  0.36830  Biso   1.000  H
  H134     1.0000 0.02090  0.16530  0.36830  Biso   1.000  H
  H135     1.0000 0.47910  0.66530  0.13170  Biso   1.000  H
  H136     1.0000 0.97910  0.16530  0.13170  Biso   1.000  H
  C41      1.0000 0.52790  0.44220  0.65370  Biso   1.000  C
  C42      1.0000 0.02790  0.94220  0.65370  Biso   1.000  C
  C43      1.0000 0.47210  0.44220  0.84630  Biso   1.000  C
  C44      1.0000 0.97210  0.94220  0.84630  Biso   1.000  C
  C45      1.0000 0.47210  0.55780  0.34630  Biso   1.000  C
  C46      1.0000 0.97210  0.05780  0.34630  Biso   1.000  C
  C47      1.0000 0.52790  0.55780  0.15370  Biso   1.000  C
  C48      1.0000 0.02790  0.05780  0.15370  Biso   1.000  C
  H137     1.0000 0.50250  0.48780  0.62360  Biso   1.000  H
  H138     1.0000 0.00250  0.98780  0.62360  Biso   1.000  H
  H139     1.0000 0.49750  0.48780  0.87640  Biso   1.000  H
  H140     1.0000 0.99750  0.98780  0.87640  Biso   1.000  H
  H141     1.0000 0.49750  0.51220  0.37640  Biso   1.000  H
  H142     1.0000 0.99750  0.01220  0.37640  Biso   1.000  H
  H143     1.0000 0.50250  0.51220  0.12360  Biso   1.000  H
  H144     1.0000 0.00250  0.01220  0.12360  Biso   1.000  H
  C49      1.0000 0.58460  0.57130  0.67330  Biso   1.000  C
  C50      1.0000 0.08460  0.07130  0.67330  Biso   1.000  C
  C51      1.0000 0.41540  0.57130  0.82670  Biso   1.000  C
  C52      1.0000 0.91540  0.07130  0.82670  Biso   1.000  C
  C53      1.0000 0.41540  0.42870  0.32670  Biso   1.000  C
  C54      1.0000 0.91540  0.92870  0.32670  Biso   1.000  C
  C55      1.0000 0.58460  0.42870  0.17330  Biso   1.000  C
  C56      1.0000 0.08460  0.92870  0.17330  Biso   1.000  C
  C57      1.0000 0.67030  0.42630  0.78100  Biso   1.000  C
  C58      1.0000 0.17030  0.92630  0.78100  Biso   1.000  C
  C59      1.0000 0.32970  0.42630  0.71900  Biso   1.000  C
  C60      1.0000 0.82970  0.92630  0.71900  Biso   1.000  C
  C61      1.0000 0.32970  0.57370  0.21900  Biso   1.000  C
  C62      1.0000 0.82970  0.07370  0.21900  Biso   1.000  C
  C63      1.0000 0.67030  0.57370  0.28100  Biso   1.000  C
  C64      1.0000 0.17030  0.07370  0.28100  Biso   1.000  C
  C65      1.0000 0.53860  0.17340  0.70320  Biso   1.000  C
  C66      1.0000 0.03860  0.67340  0.70320  Biso   1.000  C
  C67      1.0000 0.46140  0.17340  0.79680  Biso   1.000  C
  C68      1.0000 0.96140  0.67340  0.79680  Biso   1.000  C
  C69      1.0000 0.46140  0.82660  0.29680  Biso   1.000  C
  C70      1.0000 0.96140  0.32660  0.29680  Biso   1.000  C
  C71      1.0000 0.53860  0.82660  0.20320  Biso   1.000  C
  C72      1.0000 0.03860  0.32660  0.20320  Biso   1.000  C
  C73      1.0000 0.49400  0.11950  0.64520  Biso   1.000  C
  C74      1.0000 0.99400  0.61950  0.64520  Biso   1.000  C
  C75      1.0000 0.50600  0.11950  0.85480  Biso   1.000  C
  C76      1.0000 0.00600  0.61950  0.85480  Biso   1.000  C
  C77      1.0000 0.50600  0.88050  0.35480  Biso   1.000  C
  C78      1.0000 0.00600  0.38050  0.35480  Biso   1.000  C
  C79      1.0000 0.49400  0.88050  0.14520  Biso   1.000  C
  C80      1.0000 0.99400  0.38050  0.14520  Biso   1.000  C
  C81      1.0000 0.47720  0.13880  0.58140  Biso   1.000  C
  C82      1.0000 0.97720  0.63880  0.58140  Biso   1.000  C
  C83      1.0000 0.52280  0.13880  0.91860  Biso   1.000  C
  C84      1.0000 0.02280  0.63880  0.91860  Biso   1.000  C
  C85      1.0000 0.52280  0.86120  0.41860  Biso   1.000  C
  C86      1.0000 0.02280  0.36120  0.41860  Biso   1.000  C
  C87      1.0000 0.47720  0.86120  0.08140  Biso   1.000  C
  C88      1.0000 0.97720  0.36120  0.08140  Biso   1.000  C
  H145     1.0000 0.49400  0.18570  0.57590  Biso   1.000  H
  H146     1.0000 0.99400  0.68570  0.57590  Biso   1.000  H
  H147     1.0000 0.50600  0.18570  0.92410  Biso   1.000  H
  H148     1.0000 0.00600  0.68570  0.92410  Biso   1.000  H
  H149     1.0000 0.50600  0.81430  0.42410  Biso   1.000  H
  H150     1.0000 0.00600  0.31430  0.42410  Biso   1.000  H
  H151     1.0000 0.49400  0.81430  0.07590  Biso   1.000  H
  H152     1.0000 0.99400  0.31430  0.07590  Biso   1.000  H
  C89      1.0000 0.43400  0.08600  0.52420  Biso   1.000  C
  C90      1.0000 0.93400  0.58600  0.52420  Biso   1.000  C
  C91      1.0000 0.56600  0.08600  0.97580  Biso   1.000  C
  C92      1.0000 0.06600  0.58600  0.97580  Biso   1.000  C
  C93      1.0000 0.56600  0.91400  0.47580  Biso   1.000  C
  C94      1.0000 0.06600  0.41400  0.47580  Biso   1.000  C
  C95      1.0000 0.43400  0.91400  0.02420  Biso   1.000  C
  C96      1.0000 0.93400  0.41400  0.02420  Biso   1.000  C
  C97      1.0000 0.40720  0.02370  0.53160  Biso   1.000  C
  C98      1.0000 0.90720  0.52370  0.53160  Biso   1.000  C
  C99      1.0000 0.59280  0.02370  0.96840  Biso   1.000  C
  C100     1.0000 0.09280  0.52370  0.96840  Biso   1.000  C
  C101     1.0000 0.59280  0.97630  0.46840  Biso   1.000  C
  C102     1.0000 0.09280  0.47630  0.46840  Biso   1.000  C
  C103     1.0000 0.40720  0.97630  0.03160  Biso   1.000  C
  C104     1.0000 0.90720  0.47630  0.03160  Biso   1.000  C
  C105     1.0000 0.42600  0.99990  0.59610  Biso   1.000  C
  C106     1.0000 0.92600  0.49990  0.59610  Biso   1.000  C
  C107     1.0000 0.57400  0.99990  0.90390  Biso   1.000  C
  C108     1.0000 0.07400  0.49990  0.90390  Biso   1.000  C
  C109     1.0000 0.57400  0.00010  0.40390  Biso   1.000  C
  C110     1.0000 0.07400  0.50010  0.40390  Biso   1.000  C
  C111     1.0000 0.42600  0.00010  0.09610  Biso   1.000  C
  C112     1.0000 0.92600  0.50010  0.09610  Biso   1.000  C
  H153     1.0000 0.40980  0.95190  0.60170  Biso   1.000  H
  H154     1.0000 0.90980  0.45190  0.60170  Biso   1.000  H
  H155     1.0000 0.59020  0.95190  0.89830  Biso   1.000  H
  H156     1.0000 0.09020  0.45190  0.89830  Biso   1.000  H
  H157     1.0000 0.59020  0.04810  0.39830  Biso   1.000  H
  H158     1.0000 0.09020  0.54810  0.39830  Biso   1.000  H
  H159     1.0000 0.40980  0.04810  0.10170  Biso   1.000  H
  H160     1.0000 0.90980  0.54810  0.10170  Biso   1.000  H
  C113     1.0000 0.46830  0.04750  0.65060  Biso   1.000  C
  C114     1.0000 0.96830  0.54750  0.65060  Biso   1.000  C
  C115     1.0000 0.53170  0.04750  0.84940  Biso   1.000  C
  C116     1.0000 0.03170  0.54750  0.84940  Biso   1.000  C
  C117     1.0000 0.53170  0.95250  0.34940  Biso   1.000  C
  C118     1.0000 0.03170  0.45250  0.34940  Biso   1.000  C
  C119     1.0000 0.46830  0.95250  0.15060  Biso   1.000  C
  C120     1.0000 0.96830  0.45250  0.15060  Biso   1.000  C
  H161     1.0000 0.48030  0.03100  0.69310  Biso   1.000  H
  H162     1.0000 0.98030  0.53100  0.69310  Biso   1.000  H
  H163     1.0000 0.51970  0.03100  0.80690  Biso   1.000  H
  H164     1.0000 0.01970  0.53100  0.80690  Biso   1.000  H
  H165     1.0000 0.51970  0.96900  0.30690  Biso   1.000  H
  H166     1.0000 0.01970  0.46900  0.30690  Biso   1.000  H
  H167     1.0000 0.48030  0.96900  0.19310  Biso   1.000  H
  H168     1.0000 0.98030  0.46900  0.19310  Biso   1.000  H
  C121     1.0000 0.42070  0.11900  0.45670  Biso   1.000  C
  C122     1.0000 0.92070  0.61900  0.45670  Biso   1.000  C
  C123     1.0000 0.57930  0.11900  0.04330  Biso   1.000  C
  C124     1.0000 0.07930  0.61900  0.04330  Biso   1.000  C
  C125     1.0000 0.57930  0.88100  0.54330  Biso   1.000  C
  C126     1.0000 0.07930  0.38100  0.54330  Biso   1.000  C
  C127     1.0000 0.42070  0.88100  0.95670  Biso   1.000  C
  C128     1.0000 0.92070  0.38100  0.95670  Biso   1.000  C
  C129     1.0000 0.35760  0.98260  0.47280  Biso   1.000  C
  C130     1.0000 0.85760  0.48260  0.47280  Biso   1.000  C
  C131     1.0000 0.64240  0.98260  0.02720  Biso   1.000  C
  C132     1.0000 0.14240  0.48260  0.02720  Biso   1.000  C
  C133     1.0000 0.64240  0.01740  0.52720  Biso   1.000  C
  C134     1.0000 0.14240  0.51740  0.52720  Biso   1.000  C
  C135     1.0000 0.35760  0.01740  0.97280  Biso   1.000  C
  C136     1.0000 0.85760  0.51740  0.97280  Biso   1.000  C
  C137     1.0000 0.67540  0.75830  0.76800  Biso   1.000  C
  C138     1.0000 0.17540  0.25830  0.76800  Biso   1.000  C
  C139     1.0000 0.32460  0.75830  0.73200  Biso   1.000  C
  C140     1.0000 0.82460  0.25830  0.73200  Biso   1.000  C
  C141     1.0000 0.32460  0.24170  0.23200  Biso   1.000  C
  C142     1.0000 0.82460  0.74170  0.23200  Biso   1.000  C
  C143     1.0000 0.67540  0.24170  0.26800  Biso   1.000  C
  C144     1.0000 0.17540  0.74170  0.26800  Biso   1.000  C
  H169     1.0000 0.65310  0.74170  0.77460  Biso   1.000  H
  H170     1.0000 0.15310  0.24170  0.77460  Biso   1.000  H
  H171     1.0000 0.34690  0.74170  0.72540  Biso   1.000  H
  H172     1.0000 0.84690  0.24170  0.72540  Biso   1.000  H
  H173     1.0000 0.34690  0.25830  0.22540  Biso   1.000  H
  H174     1.0000 0.84690  0.75830  0.22540  Biso   1.000  H
  H175     1.0000 0.65310  0.25830  0.27460  Biso   1.000  H
  H176     1.0000 0.15310  0.75830  0.27460  Biso   1.000  H
  C145     1.0000 0.72680  0.77080  0.82340  Biso   1.000  C
  C146     1.0000 0.22680  0.27080  0.82340  Biso   1.000  C
  C147     1.0000 0.27320  0.77080  0.67660  Biso   1.000  C
  C148     1.0000 0.77320  0.27080  0.67660  Biso   1.000  C
  C149     1.0000 0.27320  0.22920  0.17660  Biso   1.000  C
  C150     1.0000 0.77320  0.72920  0.17660  Biso   1.000  C
  C151     1.0000 0.72680  0.22920  0.32340  Biso   1.000  C
  C152     1.0000 0.22680  0.72920  0.32340  Biso   1.000  C
  H177     1.0000 0.73870  0.76450  0.86670  Biso   1.000  H
  H178     1.0000 0.23870  0.26450  0.86670  Biso   1.000  H
  H179     1.0000 0.26130  0.76450  0.63330  Biso   1.000  H
  H180     1.0000 0.76130  0.26450  0.63330  Biso   1.000  H
  H181     1.0000 0.26130  0.23550  0.13330  Biso   1.000  H
  H182     1.0000 0.76130  0.73550  0.13330  Biso   1.000  H
  H183     1.0000 0.73870  0.23550  0.36670  Biso   1.000  H
  H184     1.0000 0.23870  0.73550  0.36670  Biso   1.000  H
  C153     1.0000 0.75930  0.79230  0.81340  Biso   1.000  C
  C154     1.0000 0.25930  0.29230  0.81340  Biso   1.000  C
  C155     1.0000 0.24070  0.79230  0.68660  Biso   1.000  C
  C156     1.0000 0.74070  0.29230  0.68660  Biso   1.000  C
  C157     1.0000 0.24070  0.20770  0.18660  Biso   1.000  C
  C158     1.0000 0.74070  0.70770  0.18660  Biso   1.000  C
  C159     1.0000 0.75930  0.20770  0.31340  Biso   1.000  C
  C160     1.0000 0.25930  0.70770  0.31340  Biso   1.000  C
  C161     1.0000 0.74140  0.80130  0.75240  Biso   1.000  C
  C162     1.0000 0.24140  0.30130  0.75240  Biso   1.000  C
  C163     1.0000 0.25860  0.80130  0.74760  Biso   1.000  C
  C164     1.0000 0.75860  0.30130  0.74760  Biso   1.000  C
  C165     1.0000 0.25860  0.19870  0.24760  Biso   1.000  C
  C166     1.0000 0.75860  0.69870  0.24760  Biso   1.000  C
  C167     1.0000 0.74140  0.19870  0.25240  Biso   1.000  C
  C168     1.0000 0.24140  0.69870  0.25240  Biso   1.000  C
  H185     1.0000 0.76330  0.81290  0.74430  Biso   1.000  H
  H186     1.0000 0.26330  0.31290  0.74430  Biso   1.000  H
  H187     1.0000 0.23670  0.81290  0.75570  Biso   1.000  H
  H188     1.0000 0.73670  0.31290  0.75570  Biso   1.000  H
  H189     1.0000 0.23670  0.18710  0.25570  Biso   1.000  H
  H190     1.0000 0.73670  0.68710  0.25570  Biso   1.000  H
  H191     1.0000 0.76330  0.18710  0.24430  Biso   1.000  H
  H192     1.0000 0.26330  0.68710  0.24430  Biso   1.000  H
  C169     1.0000 0.69150  0.79380  0.70130  Biso   1.000  C
  C170     1.0000 0.19150  0.29380  0.70130  Biso   1.000  C
  C171     1.0000 0.30850  0.79380  0.79870  Biso   1.000  C
  C172     1.0000 0.80850  0.29380  0.79870  Biso   1.000  C
  C173     1.0000 0.30850  0.20620  0.29870  Biso   1.000  C
  C174     1.0000 0.80850  0.70620  0.29870  Biso   1.000  C
  C175     1.0000 0.69150  0.20620  0.20130  Biso   1.000  C
  C176     1.0000 0.19150  0.70620  0.20130  Biso   1.000  C
  H193     1.0000 0.67950  0.80690  0.65840  Biso   1.000  H
  H194     1.0000 0.17950  0.30690  0.65840  Biso   1.000  H
  H195     1.0000 0.32050  0.80690  0.84160  Biso   1.000  H
  H196     1.0000 0.82050  0.30690  0.84160  Biso   1.000  H
  H197     1.0000 0.32050  0.19310  0.34160  Biso   1.000  H
  H198     1.0000 0.82050  0.69310  0.34160  Biso   1.000  H
  H199     1.0000 0.67950  0.19310  0.15840  Biso   1.000  H
  H200     1.0000 0.17950  0.69310  0.15840  Biso   1.000  H
  C177     1.0000 0.81710  0.80090  0.87840  Biso   1.000  C
  C178     1.0000 0.31710  0.30090  0.87840  Biso   1.000  C
  C179     1.0000 0.18290  0.80090  0.62160  Biso   1.000  C
  C180     1.0000 0.68290  0.30090  0.62160  Biso   1.000  C
  C181     1.0000 0.18290  0.19910  0.12160  Biso   1.000  C
  C182     1.0000 0.68290  0.69910  0.12160  Biso   1.000  C
  C183     1.0000 0.81710  0.19910  0.37840  Biso   1.000  C
  C184     1.0000 0.31710  0.69910  0.37840  Biso   1.000  C
  H201     1.0000 0.82180  0.85820  0.90430  Biso   1.000  H
  H202     1.0000 0.32180  0.35820  0.90430  Biso   1.000  H
  H203     1.0000 0.17820  0.85820  0.59570  Biso   1.000  H
  H204     1.0000 0.67820  0.35820  0.59570  Biso   1.000  H
  H205     1.0000 0.17820  0.14180  0.09570  Biso   1.000  H
  H206     1.0000 0.67820  0.64180  0.09570  Biso   1.000  H
  H207     1.0000 0.82180  0.14180  0.40430  Biso   1.000  H
  H208     1.0000 0.32180  0.64180  0.40430  Biso   1.000  H
  H209     1.0000 0.82710  0.74190  0.90580  Biso   1.000  H
  H210     1.0000 0.32710  0.24190  0.90580  Biso   1.000  H
  H211     1.0000 0.17290  0.74190  0.59420  Biso   1.000  H
  H212     1.0000 0.67290  0.24190  0.59420  Biso   1.000  H
  H213     1.0000 0.17290  0.25810  0.09420  Biso   1.000  H
  H214     1.0000 0.67290  0.75810  0.09420  Biso   1.000  H
  H215     1.0000 0.82710  0.25810  0.40580  Biso   1.000  H
  H216     1.0000 0.32710  0.75810  0.40580  Biso   1.000  H
  C185     1.0000 0.85240  0.81210  0.86140  Biso   1.000  C
  C186     1.0000 0.35240  0.31210  0.86140  Biso   1.000  C
  C187     1.0000 0.14760  0.81210  0.63860  Biso   1.000  C
  C188     1.0000 0.64760  0.31210  0.63860  Biso   1.000  C
  C189     1.0000 0.14760  0.18790  0.13860  Biso   1.000  C
  C190     1.0000 0.64760  0.68790  0.13860  Biso   1.000  C
  C191     1.0000 0.85240  0.18790  0.36140  Biso   1.000  C
  C192     1.0000 0.35240  0.68790  0.36140  Biso   1.000  C
  H217     1.0000 0.84390  0.76240  0.82870  Biso   1.000  H
  H218     1.0000 0.34390  0.26240  0.82870  Biso   1.000  H
  H219     1.0000 0.15610  0.76240  0.67130  Biso   1.000  H
  H220     1.0000 0.65610  0.26240  0.67130  Biso   1.000  H
  H221     1.0000 0.15610  0.23760  0.17130  Biso   1.000  H
  H222     1.0000 0.65610  0.73760  0.17130  Biso   1.000  H
  H223     1.0000 0.84390  0.23760  0.32870  Biso   1.000  H
  H224     1.0000 0.34390  0.73760  0.32870  Biso   1.000  H
  H225     1.0000 0.84850  0.87770  0.84300  Biso   1.000  H
  H226     1.0000 0.34850  0.37770  0.84300  Biso   1.000  H
  H227     1.0000 0.15150  0.87770  0.65700  Biso   1.000  H
  H228     1.0000 0.65150  0.37770  0.65700  Biso   1.000  H
  H229     1.0000 0.15150  0.12230  0.15700  Biso   1.000  H
  H230     1.0000 0.65150  0.62230  0.15700  Biso   1.000  H
  H231     1.0000 0.84850  0.12230  0.34300  Biso   1.000  H
  H232     1.0000 0.34850  0.62230  0.34300  Biso   1.000  H
  C193     1.0000 0.90790  0.79700  0.92820  Biso   1.000  C
  C194     1.0000 0.40790  0.29700  0.92820  Biso   1.000  C
  C195     1.0000 0.09210  0.79700  0.57180  Biso   1.000  C
  C196     1.0000 0.59210  0.29700  0.57180  Biso   1.000  C
  C197     1.0000 0.09210  0.20300  0.07180  Biso   1.000  C
  C198     1.0000 0.59210  0.70300  0.07180  Biso   1.000  C
  C199     1.0000 0.90790  0.20300  0.42820  Biso   1.000  C
  C200     1.0000 0.40790  0.70300  0.42820  Biso   1.000  C
  C201     1.0000 0.93980  0.88050  0.96150  Biso   1.000  C
  C202     1.0000 0.43980  0.38050  0.96150  Biso   1.000  C
  C203     1.0000 0.06020  0.88050  0.53850  Biso   1.000  C
  C204     1.0000 0.56020  0.38050  0.53850  Biso   1.000  C
  C205     1.0000 0.06020  0.11950  0.03850  Biso   1.000  C
  C206     1.0000 0.56020  0.61950  0.03850  Biso   1.000  C
  C207     1.0000 0.93980  0.11950  0.46150  Biso   1.000  C
  C208     1.0000 0.43980  0.61950  0.46150  Biso   1.000  C
  H233     1.0000 0.92810  0.94510  0.94590  Biso   1.000  H
  H234     1.0000 0.42810  0.44510  0.94590  Biso   1.000  H
  H235     1.0000 0.07190  0.94510  0.55410  Biso   1.000  H
  H236     1.0000 0.57190  0.44510  0.55410  Biso   1.000  H
  H237     1.0000 0.07190  0.05490  0.05410  Biso   1.000  H
  H238     1.0000 0.57190  0.55490  0.05410  Biso   1.000  H
  H239     1.0000 0.92810  0.05490  0.44590  Biso   1.000  H
  H240     1.0000 0.42810  0.55490  0.44590  Biso   1.000  H
  C209     1.0000 0.98990  0.86130  0.01920  Biso   1.000  C
  C210     1.0000 0.48990  0.36130  0.01920  Biso   1.000  C
  C211     1.0000 0.01010  0.86130  0.48080  Biso   1.000  C
  C212     1.0000 0.51010  0.36130  0.48080  Biso   1.000  C
  C213     1.0000 0.01010  0.13870  0.98080  Biso   1.000  C
  C214     1.0000 0.51010  0.63870  0.98080  Biso   1.000  C
  C215     1.0000 0.98990  0.13870  0.51920  Biso   1.000  C
  C216     1.0000 0.48990  0.63870  0.51920  Biso   1.000  C
  H241     1.0000 0.01190  0.91560  0.03920  Biso   1.000  H
  H242     1.0000 0.51190  0.41560  0.03920  Biso   1.000  H
  H243     1.0000 0.98810  0.91560  0.46080  Biso   1.000  H
  H244     1.0000 0.48810  0.41560  0.46080  Biso   1.000  H
  H245     1.0000 0.98810  0.08440  0.96080  Biso   1.000  H
  H246     1.0000 0.48810  0.58440  0.96080  Biso   1.000  H
  H247     1.0000 0.01190  0.08440  0.53920  Biso   1.000  H
  H248     1.0000 0.51190  0.58440  0.53920  Biso   1.000  H
  C217     1.0000 0.97600  0.70110  0.01460  Biso   1.000  C
  C218     1.0000 0.47600  0.20110  0.01460  Biso   1.000  C
  C219     1.0000 0.02400  0.70110  0.48540  Biso   1.000  C
  C220     1.0000 0.52400  0.20110  0.48540  Biso   1.000  C
  C221     1.0000 0.02400  0.29890  0.98540  Biso   1.000  C
  C222     1.0000 0.52400  0.79890  0.98540  Biso   1.000  C
  C223     1.0000 0.97600  0.29890  0.51460  Biso   1.000  C
  C224     1.0000 0.47600  0.79890  0.51460  Biso   1.000  C
  H249     1.0000 0.98770  0.63830  0.03400  Biso   1.000  H
  H250     1.0000 0.48770  0.13830  0.03400  Biso   1.000  H
  H251     1.0000 0.01230  0.63830  0.46600  Biso   1.000  H
  H252     1.0000 0.51230  0.13830  0.46600  Biso   1.000  H
  H253     1.0000 0.01230  0.36170  0.96600  Biso   1.000  H
  H254     1.0000 0.51230  0.86170  0.96600  Biso   1.000  H
  H255     1.0000 0.98770  0.36170  0.53400  Biso   1.000  H
  H256     1.0000 0.48770  0.86170  0.53400  Biso   1.000  H
  C225     1.0000 0.92780  0.70670  0.95570  Biso   1.000  C
  C226     1.0000 0.42780  0.20670  0.95570  Biso   1.000  C
  C227     1.0000 0.07220  0.70670  0.54430  Biso   1.000  C
  C228     1.0000 0.57220  0.20670  0.54430  Biso   1.000  C
  C229     1.0000 0.07220  0.29330  0.04430  Biso   1.000  C
  C230     1.0000 0.57220  0.79330  0.04430  Biso   1.000  C
  C231     1.0000 0.92780  0.29330  0.45570  Biso   1.000  C
  C232     1.0000 0.42780  0.79330  0.45570  Biso   1.000  C
  H257     1.0000 0.90850  0.64920  0.93450  Biso   1.000  H
  H258     1.0000 0.40850  0.14920  0.93450  Biso   1.000  H
  H259     1.0000 0.09150  0.64920  0.56550  Biso   1.000  H
  H260     1.0000 0.59150  0.14920  0.56550  Biso   1.000  H
  H261     1.0000 0.09150  0.35080  0.06550  Biso   1.000  H
  H262     1.0000 0.59150  0.85080  0.06550  Biso   1.000  H
  H263     1.0000 0.90850  0.35080  0.43450  Biso   1.000  H
  H264     1.0000 0.40850  0.85080  0.43450  Biso   1.000  H
  C233     1.0000 0.80720  0.53970  0.80350  Biso   1.000  C
  C234     1.0000 0.30720  0.03970  0.80350  Biso   1.000  C
  C235     1.0000 0.19280  0.53970  0.69650  Biso   1.000  C
  C236     1.0000 0.69280  0.03970  0.69650  Biso   1.000  C
  C237     1.0000 0.19280  0.46030  0.19650  Biso   1.000  C
  C238     1.0000 0.69280  0.96030  0.19650  Biso   1.000  C
  C239     1.0000 0.80720  0.46030  0.30350  Biso   1.000  C
  C240     1.0000 0.30720  0.96030  0.30350  Biso   1.000  C
  H265     1.0000 0.83660  0.52760  0.84760  Biso   1.000  H
  H266     1.0000 0.33660  0.02760  0.84760  Biso   1.000  H
  H267     1.0000 0.16340  0.52760  0.65240  Biso   1.000  H
  H268     1.0000 0.66340  0.02760  0.65240  Biso   1.000  H
  H269     1.0000 0.16340  0.47240  0.15240  Biso   1.000  H
  H270     1.0000 0.66340  0.97240  0.15240  Biso   1.000  H
  H271     1.0000 0.83660  0.47240  0.34760  Biso   1.000  H
  H272     1.0000 0.33660  0.97240  0.34760  Biso   1.000  H
  C241     1.0000 0.81260  0.55870  0.75790  Biso   1.000  C
  C242     1.0000 0.31260  0.05870  0.75790  Biso   1.000  C
  C243     1.0000 0.18740  0.55870  0.74210  Biso   1.000  C
  C244     1.0000 0.68740  0.05870  0.74210  Biso   1.000  C
  C245     1.0000 0.18740  0.44130  0.24210  Biso   1.000  C
  C246     1.0000 0.68740  0.94130  0.24210  Biso   1.000  C
  C247     1.0000 0.81260  0.44130  0.25790  Biso   1.000  C
  C248     1.0000 0.31260  0.94130  0.25790  Biso   1.000  C
  H273     1.0000 0.84450  0.56320  0.77050  Biso   1.000  H
  H274     1.0000 0.34450  0.06320  0.77050  Biso   1.000  H
  H275     1.0000 0.15550  0.56320  0.72950  Biso   1.000  H
  H276     1.0000 0.65550  0.06320  0.72950  Biso   1.000  H
  H277     1.0000 0.15550  0.43680  0.22950  Biso   1.000  H
  H278     1.0000 0.65550  0.93680  0.22950  Biso   1.000  H
  H279     1.0000 0.84450  0.43680  0.27050  Biso   1.000  H
  H280     1.0000 0.34450  0.93680  0.27050  Biso   1.000  H
  C249     1.0000 0.76820  0.57090  0.69160  Biso   1.000  C
  C250     1.0000 0.26820  0.07090  0.69160  Biso   1.000  C
  C251     1.0000 0.23180  0.57090  0.80840  Biso   1.000  C
  C252     1.0000 0.73180  0.07090  0.80840  Biso   1.000  C
  C253     1.0000 0.23180  0.42910  0.30840  Biso   1.000  C
  C254     1.0000 0.73180  0.92910  0.30840  Biso   1.000  C
  C255     1.0000 0.76820  0.42910  0.19160  Biso   1.000  C
  C256     1.0000 0.26820  0.92910  0.19160  Biso   1.000  C
  C257     1.0000 0.72400  0.57200  0.67690  Biso   1.000  C
  C258     1.0000 0.22400  0.07200  0.67690  Biso   1.000  C
  C259     1.0000 0.27600  0.57200  0.82310  Biso   1.000  C
  C260     1.0000 0.77600  0.07200  0.82310  Biso   1.000  C
  C261     1.0000 0.27600  0.42800  0.32310  Biso   1.000  C
  C262     1.0000 0.77600  0.92800  0.32310  Biso   1.000  C
  C263     1.0000 0.72400  0.42800  0.17690  Biso   1.000  C
  C264     1.0000 0.22400  0.92800  0.17690  Biso   1.000  C
  H281     1.0000 0.69410  0.58470  0.63330  Biso   1.000  H
  H282     1.0000 0.19410  0.08470  0.63330  Biso   1.000  H
  H283     1.0000 0.30590  0.58470  0.86670  Biso   1.000  H
  H284     1.0000 0.80590  0.08470  0.86670  Biso   1.000  H
  H285     1.0000 0.30590  0.41530  0.36670  Biso   1.000  H
  H286     1.0000 0.80590  0.91530  0.36670  Biso   1.000  H
  H287     1.0000 0.69410  0.41530  0.13330  Biso   1.000  H
  H288     1.0000 0.19410  0.91530  0.13330  Biso   1.000  H
  C265     1.0000 0.72280  0.55500  0.72510  Biso   1.000  C
  C266     1.0000 0.22280  0.05500  0.72510  Biso   1.000  C
  C267     1.0000 0.27720  0.55500  0.77490  Biso   1.000  C
  C268     1.0000 0.77720  0.05500  0.77490  Biso   1.000  C
  C269     1.0000 0.27720  0.44500  0.27490  Biso   1.000  C
  C270     1.0000 0.77720  0.94500  0.27490  Biso   1.000  C
  C271     1.0000 0.72280  0.44500  0.22510  Biso   1.000  C
  C272     1.0000 0.22280  0.94500  0.22510  Biso   1.000  C
  H289     1.0000 0.69120  0.55520  0.71350  Biso   1.000  H
  H290     1.0000 0.19120  0.05520  0.71350  Biso   1.000  H
  H291     1.0000 0.30880  0.55520  0.78650  Biso   1.000  H
  H292     1.0000 0.80880  0.05520  0.78650  Biso   1.000  H
  H293     1.0000 0.30880  0.44480  0.28650  Biso   1.000  H
  H294     1.0000 0.80880  0.94480  0.28650  Biso   1.000  H
  H295     1.0000 0.69120  0.44480  0.21350  Biso   1.000  H
  H296     1.0000 0.19120  0.94480  0.21350  Biso   1.000  H
  C273     1.0000 0.77280  0.58830  0.63900  Biso   1.000  C
  C274     1.0000 0.27280  0.08830  0.63900  Biso   1.000  C
  C275     1.0000 0.22720  0.58830  0.86100  Biso   1.000  C
  C276     1.0000 0.72720  0.08830  0.86100  Biso   1.000  C
  C277     1.0000 0.22720  0.41170  0.36100  Biso   1.000  C
  C278     1.0000 0.72720  0.91170  0.36100  Biso   1.000  C
  C279     1.0000 0.77280  0.41170  0.13900  Biso   1.000  C
  C280     1.0000 0.27280  0.91170  0.13900  Biso   1.000  C
  H297     1.0000 0.75740  0.65170  0.61700  Biso   1.000  H
  H298     1.0000 0.25740  0.15170  0.61700  Biso   1.000  H
  H299     1.0000 0.24260  0.65170  0.88300  Biso   1.000  H
  H300     1.0000 0.74260  0.15170  0.88300  Biso   1.000  H
  H301     1.0000 0.24260  0.34830  0.38300  Biso   1.000  H
  H302     1.0000 0.74260  0.84830  0.38300  Biso   1.000  H
  H303     1.0000 0.75740  0.34830  0.11700  Biso   1.000  H
  H304     1.0000 0.25740  0.84830  0.11700  Biso   1.000  H
  H305     1.0000 0.80850  0.59090  0.66060  Biso   1.000  H
  H306     1.0000 0.30850  0.09090  0.66060  Biso   1.000  H
  H307     1.0000 0.19150  0.59090  0.83940  Biso   1.000  H
  H308     1.0000 0.69150  0.09090  0.83940  Biso   1.000  H
  H309     1.0000 0.19150  0.40910  0.33940  Biso   1.000  H
  H310     1.0000 0.69150  0.90910  0.33940  Biso   1.000  H
  H311     1.0000 0.80850  0.40910  0.16060  Biso   1.000  H
  H312     1.0000 0.30850  0.90910  0.16060  Biso   1.000  H
  C281     1.0000 0.74770  0.50820  0.58900  Biso   1.000  C
  C282     1.0000 0.24770  0.00820  0.58900  Biso   1.000  C
  C283     1.0000 0.25230  0.50820  0.91100  Biso   1.000  C
  C284     1.0000 0.75230  0.00820  0.91100  Biso   1.000  C
  C285     1.0000 0.25230  0.49180  0.41100  Biso   1.000  C
  C286     1.0000 0.75230  0.99180  0.41100  Biso   1.000  C
  C287     1.0000 0.74770  0.49180  0.08900  Biso   1.000  C
  C288     1.0000 0.24770  0.99180  0.08900  Biso   1.000  C
  H313     1.0000 0.71240  0.50500  0.56880  Biso   1.000  H
  H314     1.0000 0.21240  0.00500  0.56880  Biso   1.000  H
  H315     1.0000 0.28760  0.50500  0.93120  Biso   1.000  H
  H316     1.0000 0.78760  0.00500  0.93120  Biso   1.000  H
  H317     1.0000 0.28760  0.49500  0.43120  Biso   1.000  H
  H318     1.0000 0.78760  0.99500  0.43120  Biso   1.000  H
  H319     1.0000 0.71240  0.49500  0.06880  Biso   1.000  H
  H320     1.0000 0.21240  0.99500  0.06880  Biso   1.000  H
  H321     1.0000 0.76350  0.44530  0.61170  Biso   1.000  H
  H322     1.0000 0.26350  0.94530  0.61170  Biso   1.000  H
  H323     1.0000 0.23650  0.44530  0.88830  Biso   1.000  H
  H324     1.0000 0.73650  0.94530  0.88830  Biso   1.000  H
  H325     1.0000 0.23650  0.55470  0.38830  Biso   1.000  H
  H326     1.0000 0.73650  0.05470  0.38830  Biso   1.000  H
  H327     1.0000 0.76350  0.55470  0.11170  Biso   1.000  H
  H328     1.0000 0.26350  0.05470  0.11170  Biso   1.000  H
  C289     1.0000 0.74970  0.52050  0.53440  Biso   1.000  C
  C290     1.0000 0.24970  0.02050  0.53440  Biso   1.000  C
  C291     1.0000 0.25030  0.52050  0.96560  Biso   1.000  C
  C292     1.0000 0.75030  0.02050  0.96560  Biso   1.000  C
  C293     1.0000 0.25030  0.47950  0.46560  Biso   1.000  C
  C294     1.0000 0.75030  0.97950  0.46560  Biso   1.000  C
  C295     1.0000 0.74970  0.47950  0.03440  Biso   1.000  C
  C296     1.0000 0.24970  0.97950  0.03440  Biso   1.000  C
  C297     1.0000 0.73260  0.44360  0.49200  Biso   1.000  C
  C298     1.0000 0.23260  0.94360  0.49200  Biso   1.000  C
  C299     1.0000 0.26740  0.44360  0.00800  Biso   1.000  C
  C300     1.0000 0.76740  0.94360  0.00800  Biso   1.000  C
  C301     1.0000 0.26740  0.55640  0.50800  Biso   1.000  C
  C302     1.0000 0.76740  0.05640  0.50800  Biso   1.000  C
  C303     1.0000 0.73260  0.55640  0.99200  Biso   1.000  C
  C304     1.0000 0.23260  0.05640  0.99200  Biso   1.000  C
  H329     1.0000 0.71730  0.39060  0.49570  Biso   1.000  H
  H330     1.0000 0.21730  0.89060  0.49570  Biso   1.000  H
  H331     1.0000 0.28270  0.39060  0.00430  Biso   1.000  H
  H332     1.0000 0.78270  0.89060  0.00430  Biso   1.000  H
  H333     1.0000 0.28270  0.60940  0.50430  Biso   1.000  H
  H334     1.0000 0.78270  0.10940  0.50430  Biso   1.000  H
  H335     1.0000 0.71730  0.60940  0.99570  Biso   1.000  H
  H336     1.0000 0.21730  0.10940  0.99570  Biso   1.000  H
  C305     1.0000 0.73650  0.43830  0.44150  Biso   1.000  C
  C306     1.0000 0.23650  0.93830  0.44150  Biso   1.000  C
  C307     1.0000 0.26350  0.43830  0.05850  Biso   1.000  C
  C308     1.0000 0.76350  0.93830  0.05850  Biso   1.000  C
  C309     1.0000 0.26350  0.56170  0.55850  Biso   1.000  C
  C310     1.0000 0.76350  0.06170  0.55850  Biso   1.000  C
  C311     1.0000 0.73650  0.56170  0.94150  Biso   1.000  C
  C312     1.0000 0.23650  0.06170  0.94150  Biso   1.000  C
  H337     1.0000 0.72620  0.38040  0.41610  Biso   1.000  H
  H338     1.0000 0.22620  0.88040  0.41610  Biso   1.000  H
  H339     1.0000 0.27380  0.38040  0.08390  Biso   1.000  H
  H340     1.0000 0.77380  0.88040  0.08390  Biso   1.000  H
  H341     1.0000 0.27380  0.61960  0.58390  Biso   1.000  H
  H342     1.0000 0.77380  0.11960  0.58390  Biso   1.000  H
  H343     1.0000 0.72620  0.61960  0.91610  Biso   1.000  H
  H344     1.0000 0.22620  0.11960  0.91610  Biso   1.000  H
  C313     1.0000 0.77260  0.59050  0.47050  Biso   1.000  C
  C314     1.0000 0.27260  0.09050  0.47050  Biso   1.000  C
  C315     1.0000 0.22740  0.59050  0.02950  Biso   1.000  C
  C316     1.0000 0.72740  0.09050  0.02950  Biso   1.000  C
  C317     1.0000 0.22740  0.40950  0.52950  Biso   1.000  C
  C318     1.0000 0.72740  0.90950  0.52950  Biso   1.000  C
  C319     1.0000 0.77260  0.40950  0.97050  Biso   1.000  C
  C320     1.0000 0.27260  0.90950  0.97050  Biso   1.000  C
  H345     1.0000 0.78820  0.64160  0.46600  Biso   1.000  H
  H346     1.0000 0.28820  0.14160  0.46600  Biso   1.000  H
  H347     1.0000 0.21180  0.64160  0.03400  Biso   1.000  H
  H348     1.0000 0.71180  0.14160  0.03400  Biso   1.000  H
  H349     1.0000 0.21180  0.35840  0.53400  Biso   1.000  H
  H350     1.0000 0.71180  0.85840  0.53400  Biso   1.000  H
  H351     1.0000 0.78820  0.35840  0.96600  Biso   1.000  H
  H352     1.0000 0.28820  0.85840  0.96600  Biso   1.000  H
  C321     1.0000 0.76830  0.59680  0.52300  Biso   1.000  C
  C322     1.0000 0.26830  0.09680  0.52300  Biso   1.000  C
  C323     1.0000 0.23170  0.59680  0.97700  Biso   1.000  C
  C324     1.0000 0.73170  0.09680  0.97700  Biso   1.000  C
  C325     1.0000 0.23170  0.40320  0.47700  Biso   1.000  C
  C326     1.0000 0.73170  0.90320  0.47700  Biso   1.000  C
  C327     1.0000 0.76830  0.40320  0.02300  Biso   1.000  C
  C328     1.0000 0.26830  0.90320  0.02300  Biso   1.000  C
  H353     1.0000 0.77880  0.65460  0.54850  Biso   1.000  H
  H354     1.0000 0.27880  0.15460  0.54850  Biso   1.000  H
  H355     1.0000 0.22120  0.65460  0.95150  Biso   1.000  H
  H356     1.0000 0.72120  0.15460  0.95150  Biso   1.000  H
  H357     1.0000 0.22120  0.34540  0.45150  Biso   1.000  H
  H358     1.0000 0.72120  0.84540  0.45150  Biso   1.000  H
  H359     1.0000 0.77880  0.34540  0.04850  Biso   1.000  H
  H360     1.0000 0.27880  0.84540  0.04850  Biso   1.000  H
