data_image0
_cell_length_a       10.0603
_cell_length_b       23.2653
_cell_length_c       14.5686
_cell_angle_alpha    90
_cell_angle_beta     100.321
_cell_angle_gamma    90

_symmetry_space_group_name_H-M    "P 1"
_symmetry_int_tables_number       1

loop_
  _symmetry_equiv_pos_as_xyz
  'x, y, z'

loop_
  _atom_site_label
  _atom_site_occupancy
  _atom_site_fract_x
  _atom_site_fract_y
  _atom_site_fract_z
  _atom_site_thermal_displace_type
  _atom_site_B_iso_or_equiv
  _atom_site_type_symbol
  Cu1      1.0000 0.46618  0.06095  0.07399  Biso   1.000  Cu
  Cu2      1.0000 0.53382  0.06095  0.42601  Biso   1.000  Cu
  Cu3      1.0000 0.96618  0.56095  0.07399  Biso   1.000  Cu
  Cu4      1.0000 0.03382  0.56095  0.42601  Biso   1.000  Cu
  Cu5      1.0000 0.53382  0.93905  0.92601  Biso   1.000  Cu
  Cu6      1.0000 0.46618  0.93905  0.57399  Biso   1.000  Cu
  Cu7      1.0000 0.03382  0.43905  0.92601  Biso   1.000  Cu
  Cu8      1.0000 0.96618  0.43905  0.57399  Biso   1.000  Cu
  Cl1      1.0000 0.62930  0.99219  0.10410  Biso   1.000  Cl
  Cl2      1.0000 0.37070  0.99219  0.39590  Biso   1.000  Cl
  Cl3      1.0000 0.12930  0.49219  0.10410  Biso   1.000  Cl
  Cl4      1.0000 0.87070  0.49219  0.39590  Biso   1.000  Cl
  Cl5      1.0000 0.37070  0.00781  0.89590  Biso   1.000  Cl
  Cl6      1.0000 0.62930  0.00781  0.60410  Biso   1.000  Cl
  Cl7      1.0000 0.87070  0.50781  0.89590  Biso   1.000  Cl
  Cl8      1.0000 0.12930  0.50781  0.60410  Biso   1.000  Cl
  S1       1.0000 0.50000  0.09981  0.25000  Biso   1.000  S
  S2       1.0000 0.00000  0.59981  0.25000  Biso   1.000  S
  S3       1.0000 0.50000  0.90019  0.75000  Biso   1.000  S
  S4       1.0000 0.00000  0.40019  0.75000  Biso   1.000  S
  N1       1.0000 0.32420  0.12516  0.04620  Biso   1.000  N
  N2       1.0000 0.67580  0.12516  0.45380  Biso   1.000  N
  N3       1.0000 0.82420  0.62516  0.04620  Biso   1.000  N
  N4       1.0000 0.17580  0.62516  0.45380  Biso   1.000  N
  N5       1.0000 0.67580  0.87484  0.95380  Biso   1.000  N
  N6       1.0000 0.32420  0.87484  0.54620  Biso   1.000  N
  N7       1.0000 0.17580  0.37484  0.95380  Biso   1.000  N
  N8       1.0000 0.82420  0.37484  0.54620  Biso   1.000  N
  C1       1.0000 0.34490  0.17090  0.11950  Biso   1.000  C
  C2       1.0000 0.65510  0.17090  0.38050  Biso   1.000  C
  C3       1.0000 0.84490  0.67090  0.11950  Biso   1.000  C
  C4       1.0000 0.15510  0.67090  0.38050  Biso   1.000  C
  C5       1.0000 0.65510  0.82910  0.88050  Biso   1.000  C
  C6       1.0000 0.34490  0.82910  0.61950  Biso   1.000  C
  C7       1.0000 0.15510  0.32910  0.88050  Biso   1.000  C
  C8       1.0000 0.84490  0.32910  0.61950  Biso   1.000  C
  H1       1.0000 0.26780  0.19800  0.10770  Biso   1.000  H
  H2       1.0000 0.73220  0.19800  0.39230  Biso   1.000  H
  H3       1.0000 0.76780  0.69800  0.10770  Biso   1.000  H
  H4       1.0000 0.23220  0.69800  0.39230  Biso   1.000  H
  H5       1.0000 0.73220  0.80200  0.89230  Biso   1.000  H
  H6       1.0000 0.26780  0.80200  0.60770  Biso   1.000  H
  H7       1.0000 0.23220  0.30200  0.89230  Biso   1.000  H
  H8       1.0000 0.76780  0.30200  0.60770  Biso   1.000  H
  H9       1.0000 0.42770  0.19280  0.11440  Biso   1.000  H
  H10      1.0000 0.57230  0.19280  0.38560  Biso   1.000  H
  H11      1.0000 0.92770  0.69280  0.11440  Biso   1.000  H
  H12      1.0000 0.07230  0.69280  0.38560  Biso   1.000  H
  H13      1.0000 0.57230  0.80720  0.88560  Biso   1.000  H
  H14      1.0000 0.42770  0.80720  0.61440  Biso   1.000  H
  H15      1.0000 0.07230  0.30720  0.88560  Biso   1.000  H
  H16      1.0000 0.92770  0.30720  0.61440  Biso   1.000  H
  C9       1.0000 0.35800  0.14770  0.21840  Biso   1.000  C
  C10      1.0000 0.64200  0.14770  0.28160  Biso   1.000  C
  C11      1.0000 0.85800  0.64770  0.21840  Biso   1.000  C
  C12      1.0000 0.14200  0.64770  0.28160  Biso   1.000  C
  C13      1.0000 0.64200  0.85230  0.78160  Biso   1.000  C
  C14      1.0000 0.35800  0.85230  0.71840  Biso   1.000  C
  C15      1.0000 0.14200  0.35230  0.78160  Biso   1.000  C
  C16      1.0000 0.85800  0.35230  0.71840  Biso   1.000  C
  H17      1.0000 0.27410  0.12700  0.22440  Biso   1.000  H
  H18      1.0000 0.72590  0.12700  0.27560  Biso   1.000  H
  H19      1.0000 0.77410  0.62700  0.22440  Biso   1.000  H
  H20      1.0000 0.22590  0.62700  0.27560  Biso   1.000  H
  H21      1.0000 0.72590  0.87300  0.77560  Biso   1.000  H
  H22      1.0000 0.27410  0.87300  0.72440  Biso   1.000  H
  H23      1.0000 0.22590  0.37300  0.77560  Biso   1.000  H
  H24      1.0000 0.77410  0.37300  0.72440  Biso   1.000  H
  H25      1.0000 0.36800  0.18040  0.26260  Biso   1.000  H
  H26      1.0000 0.63200  0.18040  0.23740  Biso   1.000  H
  H27      1.0000 0.86800  0.68040  0.26260  Biso   1.000  H
  H28      1.0000 0.13200  0.68040  0.23740  Biso   1.000  H
  H29      1.0000 0.63200  0.81960  0.73740  Biso   1.000  H
  H30      1.0000 0.36800  0.81960  0.76260  Biso   1.000  H
  H31      1.0000 0.13200  0.31960  0.73740  Biso   1.000  H
  H32      1.0000 0.86800  0.31960  0.76260  Biso   1.000  H
  N9       1.0000 0.31190  0.01764  0.11110  Biso   1.000  N
  N10      1.0000 0.68810  0.01764  0.38890  Biso   1.000  N
  N11      1.0000 0.81190  0.51764  0.11110  Biso   1.000  N
  N12      1.0000 0.18810  0.51764  0.38890  Biso   1.000  N
  N13      1.0000 0.68810  0.98236  0.88890  Biso   1.000  N
  N14      1.0000 0.31190  0.98236  0.61110  Biso   1.000  N
  N15      1.0000 0.18810  0.48236  0.88890  Biso   1.000  N
  N16      1.0000 0.81190  0.48236  0.61110  Biso   1.000  N
  C17      1.0000 0.19240  0.04400  0.08940  Biso   1.000  C
  C18      1.0000 0.80760  0.04400  0.41060  Biso   1.000  C
  C19      1.0000 0.69240  0.54400  0.08940  Biso   1.000  C
  C20      1.0000 0.30760  0.54400  0.41060  Biso   1.000  C
  C21      1.0000 0.80760  0.95600  0.91060  Biso   1.000  C
  C22      1.0000 0.19240  0.95600  0.58940  Biso   1.000  C
  C23      1.0000 0.30760  0.45600  0.91060  Biso   1.000  C
  C24      1.0000 0.69240  0.45600  0.58940  Biso   1.000  C
  C25      1.0000 0.07510  0.01870  0.11320  Biso   1.000  C
  C26      1.0000 0.92490  0.01870  0.38680  Biso   1.000  C
  C27      1.0000 0.57510  0.51870  0.11320  Biso   1.000  C
  C28      1.0000 0.42490  0.51870  0.38680  Biso   1.000  C
  C29      1.0000 0.92490  0.98130  0.88680  Biso   1.000  C
  C30      1.0000 0.07510  0.98130  0.61320  Biso   1.000  C
  C31      1.0000 0.42490  0.48130  0.88680  Biso   1.000  C
  C32      1.0000 0.57510  0.48130  0.61320  Biso   1.000  C
  H33      1.0000 0.99000  0.03750  0.09970  Biso   1.000  H
  H34      1.0000 0.01000  0.03750  0.40030  Biso   1.000  H
  H35      1.0000 0.49000  0.53750  0.09970  Biso   1.000  H
  H36      1.0000 0.51000  0.53750  0.40030  Biso   1.000  H
  H37      1.0000 0.01000  0.96250  0.90030  Biso   1.000  H
  H38      1.0000 0.99000  0.96250  0.59970  Biso   1.000  H
  H39      1.0000 0.51000  0.46250  0.90030  Biso   1.000  H
  H40      1.0000 0.49000  0.46250  0.59970  Biso   1.000  H
  C33      1.0000 0.08830  0.96610  0.15650  Biso   1.000  C
  C34      1.0000 0.91170  0.96610  0.34350  Biso   1.000  C
  C35      1.0000 0.58830  0.46610  0.15650  Biso   1.000  C
  C36      1.0000 0.41170  0.46610  0.34350  Biso   1.000  C
  C37      1.0000 0.91170  0.03390  0.84350  Biso   1.000  C
  C38      1.0000 0.08830  0.03390  0.65650  Biso   1.000  C
  C39      1.0000 0.41170  0.53390  0.84350  Biso   1.000  C
  C40      1.0000 0.58830  0.53390  0.65650  Biso   1.000  C
  H41      1.0000 0.01040  0.94780  0.17120  Biso   1.000  H
  H42      1.0000 0.98960  0.94780  0.32880  Biso   1.000  H
  H43      1.0000 0.51040  0.44780  0.17120  Biso   1.000  H
  H44      1.0000 0.48960  0.44780  0.32880  Biso   1.000  H
  H45      1.0000 0.98960  0.05220  0.82880  Biso   1.000  H
  H46      1.0000 0.01040  0.05220  0.67120  Biso   1.000  H
  H47      1.0000 0.48960  0.55220  0.82880  Biso   1.000  H
  H48      1.0000 0.51040  0.55220  0.67120  Biso   1.000  H
  C41      1.0000 0.21030  0.93960  0.17890  Biso   1.000  C
  C42      1.0000 0.78970  0.93960  0.32110  Biso   1.000  C
  C43      1.0000 0.71030  0.43960  0.17890  Biso   1.000  C
  C44      1.0000 0.28970  0.43960  0.32110  Biso   1.000  C
  C45      1.0000 0.78970  0.06040  0.82110  Biso   1.000  C
  C46      1.0000 0.21030  0.06040  0.67890  Biso   1.000  C
  C47      1.0000 0.28970  0.56040  0.82110  Biso   1.000  C
  C48      1.0000 0.71030  0.56040  0.67890  Biso   1.000  C
  H49      1.0000 0.21850  0.90330  0.20950  Biso   1.000  H
  H50      1.0000 0.78150  0.90330  0.29050  Biso   1.000  H
  H51      1.0000 0.71850  0.40330  0.20950  Biso   1.000  H
  H52      1.0000 0.28150  0.40330  0.29050  Biso   1.000  H
  H53      1.0000 0.78150  0.09670  0.79050  Biso   1.000  H
  H54      1.0000 0.21850  0.09670  0.70950  Biso   1.000  H
  H55      1.0000 0.28150  0.59670  0.79050  Biso   1.000  H
  H56      1.0000 0.71850  0.59670  0.70950  Biso   1.000  H
  C49      1.0000 0.32210  0.96670  0.15580  Biso   1.000  C
  C50      1.0000 0.67790  0.96670  0.34420  Biso   1.000  C
  C51      1.0000 0.82210  0.46670  0.15580  Biso   1.000  C
  C52      1.0000 0.17790  0.46670  0.34420  Biso   1.000  C
  C53      1.0000 0.67790  0.03330  0.84420  Biso   1.000  C
  C54      1.0000 0.32210  0.03330  0.65580  Biso   1.000  C
  C55      1.0000 0.17790  0.53330  0.84420  Biso   1.000  C
  C56      1.0000 0.82210  0.53330  0.65580  Biso   1.000  C
  H57      1.0000 0.40820  0.94900  0.17180  Biso   1.000  H
  H58      1.0000 0.59180  0.94900  0.32820  Biso   1.000  H
  H59      1.0000 0.90820  0.44900  0.17180  Biso   1.000  H
  H60      1.0000 0.09180  0.44900  0.32820  Biso   1.000  H
  H61      1.0000 0.59180  0.05100  0.82820  Biso   1.000  H
  H62      1.0000 0.40820  0.05100  0.67180  Biso   1.000  H
  H63      1.0000 0.09180  0.55100  0.82820  Biso   1.000  H
  H64      1.0000 0.90820  0.55100  0.67180  Biso   1.000  H
  C57      1.0000 0.18820  0.09820  0.03690  Biso   1.000  C
  C58      1.0000 0.81180  0.09820  0.46310  Biso   1.000  C
  C59      1.0000 0.68820  0.59820  0.03690  Biso   1.000  C
  C60      1.0000 0.31180  0.59820  0.46310  Biso   1.000  C
  C61      1.0000 0.81180  0.90180  0.96310  Biso   1.000  C
  C62      1.0000 0.18820  0.90180  0.53690  Biso   1.000  C
  C63      1.0000 0.31180  0.40180  0.96310  Biso   1.000  C
  C64      1.0000 0.68820  0.40180  0.53690  Biso   1.000  C
  H65      1.0000 0.12580  0.12530  0.06010  Biso   1.000  H
  H66      1.0000 0.87420  0.12530  0.43990  Biso   1.000  H
  H67      1.0000 0.62580  0.62530  0.06010  Biso   1.000  H
  H68      1.0000 0.37420  0.62530  0.43990  Biso   1.000  H
  H69      1.0000 0.87420  0.87470  0.93990  Biso   1.000  H
  H70      1.0000 0.12580  0.87470  0.56010  Biso   1.000  H
  H71      1.0000 0.37420  0.37470  0.93990  Biso   1.000  H
  H72      1.0000 0.62580  0.37470  0.56010  Biso   1.000  H
  H73      1.0000 0.15250  0.09070  0.97020  Biso   1.000  H
  H74      1.0000 0.84750  0.09070  0.52980  Biso   1.000  H
  H75      1.0000 0.65250  0.59070  0.97020  Biso   1.000  H
  H76      1.0000 0.34750  0.59070  0.52980  Biso   1.000  H
  H77      1.0000 0.84750  0.90930  0.02980  Biso   1.000  H
  H78      1.0000 0.15250  0.90930  0.47020  Biso   1.000  H
  H79      1.0000 0.34750  0.40930  0.02980  Biso   1.000  H
  H80      1.0000 0.65250  0.40930  0.47020  Biso   1.000  H
  N17      1.0000 0.57420  0.11853  0.01830  Biso   1.000  N
  N18      1.0000 0.42580  0.11853  0.48170  Biso   1.000  N
  N19      1.0000 0.07420  0.61853  0.01830  Biso   1.000  N
  N20      1.0000 0.92580  0.61853  0.48170  Biso   1.000  N
  N21      1.0000 0.42580  0.88147  0.98170  Biso   1.000  N
  N22      1.0000 0.57420  0.88147  0.51830  Biso   1.000  N
  N23      1.0000 0.92580  0.38147  0.98170  Biso   1.000  N
  N24      1.0000 0.07420  0.38147  0.51830  Biso   1.000  N
  C65      1.0000 0.49560  0.15620  0.96090  Biso   1.000  C
  C66      1.0000 0.50440  0.15620  0.53910  Biso   1.000  C
  C67      1.0000 0.99560  0.65620  0.96090  Biso   1.000  C
  C68      1.0000 0.00440  0.65620  0.53910  Biso   1.000  C
  C69      1.0000 0.50440  0.84380  0.03910  Biso   1.000  C
  C70      1.0000 0.49560  0.84380  0.46090  Biso   1.000  C
  C71      1.0000 0.00440  0.34380  0.03910  Biso   1.000  C
  C72      1.0000 0.99560  0.34380  0.46090  Biso   1.000  C
  C73      1.0000 0.55220  0.19650  0.90890  Biso   1.000  C
  C74      1.0000 0.44780  0.19650  0.59110  Biso   1.000  C
  C75      1.0000 0.05220  0.69650  0.90890  Biso   1.000  C
  C76      1.0000 0.94780  0.69650  0.59110  Biso   1.000  C
  C77      1.0000 0.44780  0.80350  0.09110  Biso   1.000  C
  C78      1.0000 0.55220  0.80350  0.40890  Biso   1.000  C
  C79      1.0000 0.94780  0.30350  0.09110  Biso   1.000  C
  C80      1.0000 0.05220  0.30350  0.40890  Biso   1.000  C
  H81      1.0000 0.49610  0.22190  0.86800  Biso   1.000  H
  H82      1.0000 0.50390  0.22190  0.63200  Biso   1.000  H
  H83      1.0000 0.99610  0.72190  0.86800  Biso   1.000  H
  H84      1.0000 0.00390  0.72190  0.63200  Biso   1.000  H
  H85      1.0000 0.50390  0.77810  0.13200  Biso   1.000  H
  H86      1.0000 0.49610  0.77810  0.36800  Biso   1.000  H
  H87      1.0000 0.00390  0.27810  0.13200  Biso   1.000  H
  H88      1.0000 0.99610  0.27810  0.36800  Biso   1.000  H
  C81      1.0000 0.68920  0.19910  0.91750  Biso   1.000  C
  C82      1.0000 0.31080  0.19910  0.58250  Biso   1.000  C
  C83      1.0000 0.18920  0.69910  0.91750  Biso   1.000  C
  C84      1.0000 0.81080  0.69910  0.58250  Biso   1.000  C
  C85      1.0000 0.31080  0.80090  0.08250  Biso   1.000  C
  C86      1.0000 0.68920  0.80090  0.41750  Biso   1.000  C
  C87      1.0000 0.81080  0.30090  0.08250  Biso   1.000  C
  C88      1.0000 0.18920  0.30090  0.41750  Biso   1.000  C
  H89      1.0000 0.72890  0.22610  0.88160  Biso   1.000  H
  H90      1.0000 0.27110  0.22610  0.61840  Biso   1.000  H
  H91      1.0000 0.22890  0.72610  0.88160  Biso   1.000  H
  H92      1.0000 0.77110  0.72610  0.61840  Biso   1.000  H
  H93      1.0000 0.27110  0.77390  0.11840  Biso   1.000  H
  H94      1.0000 0.72890  0.77390  0.38160  Biso   1.000  H
  H95      1.0000 0.77110  0.27390  0.11840  Biso   1.000  H
  H96      1.0000 0.22890  0.27390  0.38160  Biso   1.000  H
  C89      1.0000 0.77010  0.16300  0.97760  Biso   1.000  C
  C90      1.0000 0.22990  0.16300  0.52240  Biso   1.000  C
  C91      1.0000 0.27010  0.66300  0.97760  Biso   1.000  C
  C92      1.0000 0.72990  0.66300  0.52240  Biso   1.000  C
  C93      1.0000 0.22990  0.83700  0.02240  Biso   1.000  C
  C94      1.0000 0.77010  0.83700  0.47760  Biso   1.000  C
  C95      1.0000 0.72990  0.33700  0.02240  Biso   1.000  C
  C96      1.0000 0.27010  0.33700  0.47760  Biso   1.000  C
  H97      1.0000 0.86570  0.16530  0.98500  Biso   1.000  H
  H98      1.0000 0.13430  0.16530  0.51500  Biso   1.000  H
  H99      1.0000 0.36570  0.66530  0.98500  Biso   1.000  H
  H100     1.0000 0.63430  0.66530  0.51500  Biso   1.000  H
  H101     1.0000 0.13430  0.83470  0.01500  Biso   1.000  H
  H102     1.0000 0.86570  0.83470  0.48500  Biso   1.000  H
  H103     1.0000 0.63430  0.33470  0.01500  Biso   1.000  H
  H104     1.0000 0.36570  0.33470  0.48500  Biso   1.000  H
  C97      1.0000 0.70870  0.12280  0.02750  Biso   1.000  C
  C98      1.0000 0.29130  0.12280  0.47250  Biso   1.000  C
  C99      1.0000 0.20870  0.62280  0.02750  Biso   1.000  C
  C100     1.0000 0.79130  0.62280  0.47250  Biso   1.000  C
  C101     1.0000 0.29130  0.87720  0.97250  Biso   1.000  C
  C102     1.0000 0.70870  0.87720  0.52750  Biso   1.000  C
  C103     1.0000 0.79130  0.37720  0.97250  Biso   1.000  C
  C104     1.0000 0.20870  0.37720  0.52750  Biso   1.000  C
  H105     1.0000 0.76410  0.09770  0.06950  Biso   1.000  H
  H106     1.0000 0.23590  0.09770  0.43050  Biso   1.000  H
  H107     1.0000 0.26410  0.59770  0.06950  Biso   1.000  H
  H108     1.0000 0.73590  0.59770  0.43050  Biso   1.000  H
  H109     1.0000 0.23590  0.90230  0.93050  Biso   1.000  H
  H110     1.0000 0.76410  0.90230  0.56950  Biso   1.000  H
  H111     1.0000 0.73590  0.40230  0.93050  Biso   1.000  H
  H112     1.0000 0.26410  0.40230  0.56950  Biso   1.000  H
  C105     1.0000 0.34820  0.15040  0.95690  Biso   1.000  C
  C106     1.0000 0.65180  0.15040  0.54310  Biso   1.000  C
  C107     1.0000 0.84820  0.65040  0.95690  Biso   1.000  C
  C108     1.0000 0.15180  0.65040  0.54310  Biso   1.000  C
  C109     1.0000 0.65180  0.84960  0.04310  Biso   1.000  C
  C110     1.0000 0.34820  0.84960  0.45690  Biso   1.000  C
  C111     1.0000 0.15180  0.34960  0.04310  Biso   1.000  C
  C112     1.0000 0.84820  0.34960  0.45690  Biso   1.000  C
  H113     1.0000 0.30900  0.12530  0.90420  Biso   1.000  H
  H114     1.0000 0.69100  0.12530  0.59580  Biso   1.000  H
  H115     1.0000 0.80900  0.62530  0.90420  Biso   1.000  H
  H116     1.0000 0.19100  0.62530  0.59580  Biso   1.000  H
  H117     1.0000 0.69100  0.87470  0.09580  Biso   1.000  H
  H118     1.0000 0.30900  0.87470  0.40420  Biso   1.000  H
  H119     1.0000 0.19100  0.37470  0.09580  Biso   1.000  H
  H120     1.0000 0.80900  0.37470  0.40420  Biso   1.000  H
  H121     1.0000 0.30450  0.18860  0.94730  Biso   1.000  H
  H122     1.0000 0.69550  0.18860  0.55270  Biso   1.000  H
  H123     1.0000 0.80450  0.68860  0.94730  Biso   1.000  H
  H124     1.0000 0.19550  0.68860  0.55270  Biso   1.000  H
  H125     1.0000 0.69550  0.81140  0.05270  Biso   1.000  H
  H126     1.0000 0.30450  0.81140  0.44730  Biso   1.000  H
  H127     1.0000 0.19550  0.31140  0.05270  Biso   1.000  H
  H128     1.0000 0.80450  0.31140  0.44730  Biso   1.000  H
  Cu9      1.0000 0.47020  0.93794  0.07650  Biso   1.000  Cu
  Cu10     1.0000 0.52980  0.93794  0.42350  Biso   1.000  Cu
  Cu11     1.0000 0.97020  0.43794  0.07650  Biso   1.000  Cu
  Cu12     1.0000 0.02980  0.43794  0.42350  Biso   1.000  Cu
  Cu13     1.0000 0.52980  0.06206  0.92350  Biso   1.000  Cu
  Cu14     1.0000 0.47020  0.06206  0.57650  Biso   1.000  Cu
  Cu15     1.0000 0.02980  0.56206  0.92350  Biso   1.000  Cu
  Cu16     1.0000 0.97020  0.56206  0.57650  Biso   1.000  Cu
  Cl9      1.0000 0.62460  0.00830  0.10230  Biso   1.000  Cl
  Cl10     1.0000 0.37540  0.00830  0.39770  Biso   1.000  Cl
  Cl11     1.0000 0.12460  0.50830  0.10230  Biso   1.000  Cl
  Cl12     1.0000 0.87540  0.50830  0.39770  Biso   1.000  Cl
  Cl13     1.0000 0.37540  0.99170  0.89770  Biso   1.000  Cl
  Cl14     1.0000 0.62460  0.99170  0.60230  Biso   1.000  Cl
  Cl15     1.0000 0.87540  0.49170  0.89770  Biso   1.000  Cl
  Cl16     1.0000 0.12460  0.49170  0.60230  Biso   1.000  Cl
  S5       1.0000 0.50000  0.89640  0.25000  Biso   1.000  S
  S6       1.0000 0.00000  0.39640  0.25000  Biso   1.000  S
  S7       1.0000 0.50000  0.10360  0.75000  Biso   1.000  S
  S8       1.0000 0.00000  0.60360  0.75000  Biso   1.000  S
  N25      1.0000 0.32280  0.87550  0.05110  Biso   1.000  N
  N26      1.0000 0.67720  0.87550  0.44890  Biso   1.000  N
  N27      1.0000 0.82280  0.37550  0.05110  Biso   1.000  N
  N28      1.0000 0.17720  0.37550  0.44890  Biso   1.000  N
  N29      1.0000 0.67720  0.12450  0.94890  Biso   1.000  N
  N30      1.0000 0.32280  0.12450  0.55110  Biso   1.000  N
  N31      1.0000 0.17720  0.62450  0.94890  Biso   1.000  N
  N32      1.0000 0.82280  0.62450  0.55110  Biso   1.000  N
  C113     1.0000 0.34500  0.82710  0.12030  Biso   1.000  C
  C114     1.0000 0.65500  0.82710  0.37970  Biso   1.000  C
  C115     1.0000 0.84500  0.32710  0.12030  Biso   1.000  C
  C116     1.0000 0.15500  0.32710  0.37970  Biso   1.000  C
  C117     1.0000 0.65500  0.17290  0.87970  Biso   1.000  C
  C118     1.0000 0.34500  0.17290  0.62030  Biso   1.000  C
  C119     1.0000 0.15500  0.67290  0.87970  Biso   1.000  C
  C120     1.0000 0.84500  0.67290  0.62030  Biso   1.000  C
  H129     1.0000 0.43030  0.80680  0.11540  Biso   1.000  H
  H130     1.0000 0.56970  0.80680  0.38460  Biso   1.000  H
  H131     1.0000 0.93030  0.30680  0.11540  Biso   1.000  H
  H132     1.0000 0.06970  0.30680  0.38460  Biso   1.000  H
  H133     1.0000 0.56970  0.19320  0.88460  Biso   1.000  H
  H134     1.0000 0.43030  0.19320  0.61540  Biso   1.000  H
  H135     1.0000 0.06970  0.69320  0.88460  Biso   1.000  H
  H136     1.0000 0.93030  0.69320  0.61540  Biso   1.000  H
  H137     1.0000 0.27000  0.79920  0.10640  Biso   1.000  H
  H138     1.0000 0.73000  0.79920  0.39360  Biso   1.000  H
  H139     1.0000 0.77000  0.29920  0.10640  Biso   1.000  H
  H140     1.0000 0.23000  0.29920  0.39360  Biso   1.000  H
  H141     1.0000 0.73000  0.20080  0.89360  Biso   1.000  H
  H142     1.0000 0.27000  0.20080  0.60640  Biso   1.000  H
  H143     1.0000 0.23000  0.70080  0.89360  Biso   1.000  H
  H144     1.0000 0.77000  0.70080  0.60640  Biso   1.000  H
  C121     1.0000 0.35300  0.85080  0.21910  Biso   1.000  C
  C122     1.0000 0.64700  0.85080  0.28090  Biso   1.000  C
  C123     1.0000 0.85300  0.35080  0.21910  Biso   1.000  C
  C124     1.0000 0.14700  0.35080  0.28090  Biso   1.000  C
  C125     1.0000 0.64700  0.14920  0.78090  Biso   1.000  C
  C126     1.0000 0.35300  0.14920  0.71910  Biso   1.000  C
  C127     1.0000 0.14700  0.64920  0.78090  Biso   1.000  C
  C128     1.0000 0.85300  0.64920  0.71910  Biso   1.000  C
  H145     1.0000 0.35880  0.81850  0.26390  Biso   1.000  H
  H146     1.0000 0.64120  0.81850  0.23610  Biso   1.000  H
  H147     1.0000 0.85880  0.31850  0.26390  Biso   1.000  H
  H148     1.0000 0.14120  0.31850  0.23610  Biso   1.000  H
  H149     1.0000 0.64120  0.18150  0.73610  Biso   1.000  H
  H150     1.0000 0.35880  0.18150  0.76390  Biso   1.000  H
  H151     1.0000 0.14120  0.68150  0.73610  Biso   1.000  H
  H152     1.0000 0.85880  0.68150  0.76390  Biso   1.000  H
  H153     1.0000 0.27070  0.87310  0.22260  Biso   1.000  H
  H154     1.0000 0.72930  0.87310  0.27740  Biso   1.000  H
  H155     1.0000 0.77070  0.37310  0.22260  Biso   1.000  H
  H156     1.0000 0.22930  0.37310  0.27740  Biso   1.000  H
  H157     1.0000 0.72930  0.12690  0.77740  Biso   1.000  H
  H158     1.0000 0.27070  0.12690  0.72260  Biso   1.000  H
  H159     1.0000 0.22930  0.62690  0.77740  Biso   1.000  H
  H160     1.0000 0.77070  0.62690  0.72260  Biso   1.000  H
  N33      1.0000 0.31740  0.98260  0.11800  Biso   1.000  N
  N34      1.0000 0.68260  0.98260  0.38200  Biso   1.000  N
  N35      1.0000 0.81740  0.48260  0.11800  Biso   1.000  N
  N36      1.0000 0.18260  0.48260  0.38200  Biso   1.000  N
  N37      1.0000 0.68260  0.01740  0.88200  Biso   1.000  N
  N38      1.0000 0.31740  0.01740  0.61800  Biso   1.000  N
  N39      1.0000 0.18260  0.51740  0.88200  Biso   1.000  N
  N40      1.0000 0.81740  0.51740  0.61800  Biso   1.000  N
  C129     1.0000 0.19600  0.95790  0.10500  Biso   1.000  C
  C130     1.0000 0.80400  0.95790  0.39500  Biso   1.000  C
  C131     1.0000 0.69600  0.45790  0.10500  Biso   1.000  C
  C132     1.0000 0.30400  0.45790  0.39500  Biso   1.000  C
  C133     1.0000 0.80400  0.04210  0.89500  Biso   1.000  C
  C134     1.0000 0.19600  0.04210  0.60500  Biso   1.000  C
  C135     1.0000 0.30400  0.54210  0.89500  Biso   1.000  C
  C136     1.0000 0.69600  0.54210  0.60500  Biso   1.000  C
  C137     1.0000 0.08000  0.98870  0.12700  Biso   1.000  C
  C138     1.0000 0.92000  0.98870  0.37300  Biso   1.000  C
  C139     1.0000 0.58000  0.48870  0.12700  Biso   1.000  C
  C140     1.0000 0.42000  0.48870  0.37300  Biso   1.000  C
  C141     1.0000 0.92000  0.01130  0.87300  Biso   1.000  C
  C142     1.0000 0.08000  0.01130  0.62700  Biso   1.000  C
  C143     1.0000 0.42000  0.51130  0.87300  Biso   1.000  C
  C144     1.0000 0.58000  0.51130  0.62700  Biso   1.000  C
  H161     1.0000 0.99050  0.97540  0.10750  Biso   1.000  H
  H162     1.0000 0.00950  0.97540  0.39250  Biso   1.000  H
  H163     1.0000 0.49050  0.47540  0.10750  Biso   1.000  H
  H164     1.0000 0.50950  0.47540  0.39250  Biso   1.000  H
  H165     1.0000 0.00950  0.02460  0.89250  Biso   1.000  H
  H166     1.0000 0.99050  0.02460  0.60750  Biso   1.000  H
  H167     1.0000 0.50950  0.52460  0.89250  Biso   1.000  H
  H168     1.0000 0.49050  0.52460  0.60750  Biso   1.000  H
  C145     1.0000 0.10800  0.03820  0.17800  Biso   1.000  C
  C146     1.0000 0.89200  0.03820  0.32200  Biso   1.000  C
  C147     1.0000 0.60800  0.53820  0.17800  Biso   1.000  C
  C148     1.0000 0.39200  0.53820  0.32200  Biso   1.000  C
  C149     1.0000 0.89200  0.96180  0.82200  Biso   1.000  C
  C150     1.0000 0.10800  0.96180  0.67800  Biso   1.000  C
  C151     1.0000 0.39200  0.46180  0.82200  Biso   1.000  C
  C152     1.0000 0.60800  0.46180  0.67800  Biso   1.000  C
  H169     1.0000 0.03650  0.05740  0.19920  Biso   1.000  H
  H170     1.0000 0.96350  0.05740  0.30080  Biso   1.000  H
  H171     1.0000 0.53650  0.55740  0.19920  Biso   1.000  H
  H172     1.0000 0.46350  0.55740  0.30080  Biso   1.000  H
  H173     1.0000 0.96350  0.94260  0.80080  Biso   1.000  H
  H174     1.0000 0.03650  0.94260  0.69920  Biso   1.000  H
  H175     1.0000 0.46350  0.44260  0.80080  Biso   1.000  H
  H176     1.0000 0.53650  0.44260  0.69920  Biso   1.000  H
  C153     1.0000 0.23400  0.06080  0.19800  Biso   1.000  C
  C154     1.0000 0.76600  0.06080  0.30200  Biso   1.000  C
  C155     1.0000 0.73400  0.56080  0.19800  Biso   1.000  C
  C156     1.0000 0.26600  0.56080  0.30200  Biso   1.000  C
  C157     1.0000 0.76600  0.93920  0.80200  Biso   1.000  C
  C158     1.0000 0.23400  0.93920  0.69800  Biso   1.000  C
  C159     1.0000 0.26600  0.43920  0.80200  Biso   1.000  C
  C160     1.0000 0.73400  0.43920  0.69800  Biso   1.000  C
  H177     1.0000 0.25020  0.09540  0.23250  Biso   1.000  H
  H178     1.0000 0.74980  0.09540  0.26750  Biso   1.000  H
  H179     1.0000 0.75020  0.59540  0.23250  Biso   1.000  H
  H180     1.0000 0.24980  0.59540  0.26750  Biso   1.000  H
  H181     1.0000 0.74980  0.90460  0.76750  Biso   1.000  H
  H182     1.0000 0.25020  0.90460  0.73250  Biso   1.000  H
  H183     1.0000 0.24980  0.40460  0.76750  Biso   1.000  H
  H184     1.0000 0.75020  0.40460  0.73250  Biso   1.000  H
  C161     1.0000 0.33800  0.03170  0.16700  Biso   1.000  C
  C162     1.0000 0.66200  0.03170  0.33300  Biso   1.000  C
  C163     1.0000 0.83800  0.53170  0.16700  Biso   1.000  C
  C164     1.0000 0.16200  0.53170  0.33300  Biso   1.000  C
  C165     1.0000 0.66200  0.96830  0.83300  Biso   1.000  C
  C166     1.0000 0.33800  0.96830  0.66700  Biso   1.000  C
  C167     1.0000 0.16200  0.46830  0.83300  Biso   1.000  C
  C168     1.0000 0.83800  0.46830  0.66700  Biso   1.000  C
  H185     1.0000 0.42680  0.04710  0.18030  Biso   1.000  H
  H186     1.0000 0.57320  0.04710  0.31970  Biso   1.000  H
  H187     1.0000 0.92680  0.54710  0.18030  Biso   1.000  H
  H188     1.0000 0.07320  0.54710  0.31970  Biso   1.000  H
  H189     1.0000 0.57320  0.95290  0.81970  Biso   1.000  H
  H190     1.0000 0.42680  0.95290  0.68030  Biso   1.000  H
  H191     1.0000 0.07320  0.45290  0.81970  Biso   1.000  H
  H192     1.0000 0.92680  0.45290  0.68030  Biso   1.000  H
  C169     1.0000 0.19000  0.90330  0.05400  Biso   1.000  C
  C170     1.0000 0.81000  0.90330  0.44600  Biso   1.000  C
  C171     1.0000 0.69000  0.40330  0.05400  Biso   1.000  C
  C172     1.0000 0.31000  0.40330  0.44600  Biso   1.000  C
  C173     1.0000 0.81000  0.09670  0.94600  Biso   1.000  C
  C174     1.0000 0.19000  0.09670  0.55400  Biso   1.000  C
  C175     1.0000 0.31000  0.59670  0.94600  Biso   1.000  C
  C176     1.0000 0.69000  0.59670  0.55400  Biso   1.000  C
  H193     1.0000 0.14390  0.91030  0.98890  Biso   1.000  H
  H194     1.0000 0.85610  0.91030  0.51110  Biso   1.000  H
  H195     1.0000 0.64390  0.41030  0.98890  Biso   1.000  H
  H196     1.0000 0.35610  0.41030  0.51110  Biso   1.000  H
  H197     1.0000 0.85610  0.08970  0.01110  Biso   1.000  H
  H198     1.0000 0.14390  0.08970  0.48890  Biso   1.000  H
  H199     1.0000 0.35610  0.58970  0.01110  Biso   1.000  H
  H200     1.0000 0.64390  0.58970  0.48890  Biso   1.000  H
  H201     1.0000 0.13370  0.87600  0.08230  Biso   1.000  H
  H202     1.0000 0.86630  0.87600  0.41770  Biso   1.000  H
  H203     1.0000 0.63370  0.37600  0.08230  Biso   1.000  H
  H204     1.0000 0.36630  0.37600  0.41770  Biso   1.000  H
  H205     1.0000 0.86630  0.12400  0.91770  Biso   1.000  H
  H206     1.0000 0.13370  0.12400  0.58230  Biso   1.000  H
  H207     1.0000 0.36630  0.62400  0.91770  Biso   1.000  H
  H208     1.0000 0.63370  0.62400  0.58230  Biso   1.000  H
  N41      1.0000 0.57600  0.88160  0.01700  Biso   1.000  N
  N42      1.0000 0.42400  0.88160  0.48300  Biso   1.000  N
  N43      1.0000 0.07600  0.38160  0.01700  Biso   1.000  N
  N44      1.0000 0.92400  0.38160  0.48300  Biso   1.000  N
  N45      1.0000 0.42400  0.11840  0.98300  Biso   1.000  N
  N46      1.0000 0.57600  0.11840  0.51700  Biso   1.000  N
  N47      1.0000 0.92400  0.61840  0.98300  Biso   1.000  N
  N48      1.0000 0.07600  0.61840  0.51700  Biso   1.000  N
  C177     1.0000 0.49100  0.84510  0.96000  Biso   1.000  C
  C178     1.0000 0.50900  0.84510  0.54000  Biso   1.000  C
  C179     1.0000 0.99100  0.34510  0.96000  Biso   1.000  C
  C180     1.0000 0.00900  0.34510  0.54000  Biso   1.000  C
  C181     1.0000 0.50900  0.15490  0.04000  Biso   1.000  C
  C182     1.0000 0.49100  0.15490  0.46000  Biso   1.000  C
  C183     1.0000 0.00900  0.65490  0.04000  Biso   1.000  C
  C184     1.0000 0.99100  0.65490  0.46000  Biso   1.000  C
  C185     1.0000 0.54300  0.80560  0.90300  Biso   1.000  C
  C186     1.0000 0.45700  0.80560  0.59700  Biso   1.000  C
  C187     1.0000 0.04300  0.30560  0.90300  Biso   1.000  C
  C188     1.0000 0.95700  0.30560  0.59700  Biso   1.000  C
  C189     1.0000 0.45700  0.19440  0.09700  Biso   1.000  C
  C190     1.0000 0.54300  0.19440  0.40300  Biso   1.000  C
  C191     1.0000 0.95700  0.69440  0.09700  Biso   1.000  C
  C192     1.0000 0.04300  0.69440  0.40300  Biso   1.000  C
  H209     1.0000 0.48540  0.78170  0.86050  Biso   1.000  H
  H210     1.0000 0.51460  0.78170  0.63950  Biso   1.000  H
  H211     1.0000 0.98540  0.28170  0.86050  Biso   1.000  H
  H212     1.0000 0.01460  0.28170  0.63950  Biso   1.000  H
  H213     1.0000 0.51460  0.21830  0.13950  Biso   1.000  H
  H214     1.0000 0.48540  0.21830  0.36050  Biso   1.000  H
  H215     1.0000 0.01460  0.71830  0.13950  Biso   1.000  H
  H216     1.0000 0.98540  0.71830  0.36050  Biso   1.000  H
  C193     1.0000 0.68100  0.80280  0.91100  Biso   1.000  C
  C194     1.0000 0.31900  0.80280  0.58900  Biso   1.000  C
  C195     1.0000 0.18100  0.30280  0.91100  Biso   1.000  C
  C196     1.0000 0.81900  0.30280  0.58900  Biso   1.000  C
  C197     1.0000 0.31900  0.19720  0.08900  Biso   1.000  C
  C198     1.0000 0.68100  0.19720  0.41100  Biso   1.000  C
  C199     1.0000 0.81900  0.69720  0.08900  Biso   1.000  C
  C200     1.0000 0.18100  0.69720  0.41100  Biso   1.000  C
  H217     1.0000 0.71700  0.77700  0.87170  Biso   1.000  H
  H218     1.0000 0.28300  0.77700  0.62830  Biso   1.000  H
  H219     1.0000 0.21700  0.27700  0.87170  Biso   1.000  H
  H220     1.0000 0.78300  0.27700  0.62830  Biso   1.000  H
  H221     1.0000 0.28300  0.22300  0.12830  Biso   1.000  H
  H222     1.0000 0.71700  0.22300  0.37170  Biso   1.000  H
  H223     1.0000 0.78300  0.72300  0.12830  Biso   1.000  H
  H224     1.0000 0.21700  0.72300  0.37170  Biso   1.000  H
  C201     1.0000 0.76800  0.83510  0.97300  Biso   1.000  C
  C202     1.0000 0.23200  0.83510  0.52700  Biso   1.000  C
  C203     1.0000 0.26800  0.33510  0.97300  Biso   1.000  C
  C204     1.0000 0.73200  0.33510  0.52700  Biso   1.000  C
  C205     1.0000 0.23200  0.16490  0.02700  Biso   1.000  C
  C206     1.0000 0.76800  0.16490  0.47300  Biso   1.000  C
  C207     1.0000 0.73200  0.66490  0.02700  Biso   1.000  C
  C208     1.0000 0.26800  0.66490  0.47300  Biso   1.000  C
  H225     1.0000 0.86330  0.82880  0.98360  Biso   1.000  H
  H226     1.0000 0.13670  0.82880  0.51640  Biso   1.000  H
  H227     1.0000 0.36330  0.32880  0.98360  Biso   1.000  H
  H228     1.0000 0.63670  0.32880  0.51640  Biso   1.000  H
  H229     1.0000 0.13670  0.17120  0.01640  Biso   1.000  H
  H230     1.0000 0.86330  0.17120  0.48360  Biso   1.000  H
  H231     1.0000 0.63670  0.67120  0.01640  Biso   1.000  H
  H232     1.0000 0.36330  0.67120  0.48360  Biso   1.000  H
  C209     1.0000 0.70900  0.87840  0.02100  Biso   1.000  C
  C210     1.0000 0.29100  0.87840  0.47900  Biso   1.000  C
  C211     1.0000 0.20900  0.37840  0.02100  Biso   1.000  C
  C212     1.0000 0.79100  0.37840  0.47900  Biso   1.000  C
  C213     1.0000 0.29100  0.12160  0.97900  Biso   1.000  C
  C214     1.0000 0.70900  0.12160  0.52100  Biso   1.000  C
  C215     1.0000 0.79100  0.62160  0.97900  Biso   1.000  C
  C216     1.0000 0.20900  0.62160  0.52100  Biso   1.000  C
  H233     1.0000 0.76550  0.90610  0.05610  Biso   1.000  H
  H234     1.0000 0.23450  0.90610  0.44390  Biso   1.000  H
  H235     1.0000 0.26550  0.40610  0.05610  Biso   1.000  H
  H236     1.0000 0.73450  0.40610  0.44390  Biso   1.000  H
  H237     1.0000 0.23450  0.09390  0.94390  Biso   1.000  H
  H238     1.0000 0.76550  0.09390  0.55610  Biso   1.000  H
  H239     1.0000 0.73450  0.59390  0.94390  Biso   1.000  H
  H240     1.0000 0.26550  0.59390  0.55610  Biso   1.000  H
  C217     1.0000 0.34500  0.85290  0.96000  Biso   1.000  C
  C218     1.0000 0.65500  0.85290  0.54000  Biso   1.000  C
  C219     1.0000 0.84500  0.35290  0.96000  Biso   1.000  C
  C220     1.0000 0.15500  0.35290  0.54000  Biso   1.000  C
  C221     1.0000 0.65500  0.14710  0.04000  Biso   1.000  C
  C222     1.0000 0.34500  0.14710  0.46000  Biso   1.000  C
  C223     1.0000 0.15500  0.64710  0.04000  Biso   1.000  C
  C224     1.0000 0.84500  0.64710  0.46000  Biso   1.000  C
  H241     1.0000 0.29820  0.81560  0.94720  Biso   1.000  H
  H242     1.0000 0.70180  0.81560  0.55280  Biso   1.000  H
  H243     1.0000 0.79820  0.31560  0.94720  Biso   1.000  H
  H244     1.0000 0.20180  0.31560  0.55280  Biso   1.000  H
  H245     1.0000 0.70180  0.18440  0.05280  Biso   1.000  H
  H246     1.0000 0.29820  0.18440  0.44720  Biso   1.000  H
  H247     1.0000 0.20180  0.68440  0.05280  Biso   1.000  H
  H248     1.0000 0.79820  0.68440  0.44720  Biso   1.000  H
  H249     1.0000 0.30710  0.88000  0.90980  Biso   1.000  H
  H250     1.0000 0.69290  0.88000  0.59020  Biso   1.000  H
  H251     1.0000 0.80710  0.38000  0.90980  Biso   1.000  H
  H252     1.0000 0.19290  0.38000  0.59020  Biso   1.000  H
  H253     1.0000 0.69290  0.12000  0.09020  Biso   1.000  H
  H254     1.0000 0.30710  0.12000  0.40980  Biso   1.000  H
  H255     1.0000 0.19290  0.62000  0.09020  Biso   1.000  H
  H256     1.0000 0.80710  0.62000  0.40980  Biso   1.000  H
  B1       1.0000 0.00300  0.17320  0.25460  Biso   1.000  B
  B2       1.0000 0.99700  0.17320  0.24540  Biso   1.000  B
  B3       1.0000 0.50300  0.67320  0.25460  Biso   1.000  B
  B4       1.0000 0.49700  0.67320  0.24540  Biso   1.000  B
  B5       1.0000 0.99700  0.82680  0.74540  Biso   1.000  B
  B6       1.0000 0.00300  0.82680  0.75460  Biso   1.000  B
  B7       1.0000 0.49700  0.32680  0.74540  Biso   1.000  B
  B8       1.0000 0.50300  0.32680  0.75460  Biso   1.000  B
  F1       1.0000 0.11460  0.20760  0.25910  Biso   1.000  F
  F2       1.0000 0.88540  0.20760  0.24090  Biso   1.000  F
  F3       1.0000 0.61460  0.70760  0.25910  Biso   1.000  F
  F4       1.0000 0.38540  0.70760  0.24090  Biso   1.000  F
  F5       1.0000 0.88540  0.79240  0.74090  Biso   1.000  F
  F6       1.0000 0.11460  0.79240  0.75910  Biso   1.000  F
  F7       1.0000 0.38540  0.29240  0.74090  Biso   1.000  F
  F8       1.0000 0.61460  0.29240  0.75910  Biso   1.000  F
  F9       1.0000 0.03170  0.12510  0.30290  Biso   1.000  F
  F10      1.0000 0.96830  0.12510  0.19710  Biso   1.000  F
  F11      1.0000 0.53170  0.62510  0.30290  Biso   1.000  F
  F12      1.0000 0.46830  0.62510  0.19710  Biso   1.000  F
  F13      1.0000 0.96830  0.87490  0.69710  Biso   1.000  F
  F14      1.0000 0.03170  0.87490  0.80290  Biso   1.000  F
  F15      1.0000 0.46830  0.37490  0.69710  Biso   1.000  F
  F16      1.0000 0.53170  0.37490  0.80290  Biso   1.000  F
  F17      1.0000 0.96120  0.16090  0.16520  Biso   1.000  F
  F18      1.0000 0.03880  0.16090  0.33480  Biso   1.000  F
  F19      1.0000 0.46120  0.66090  0.16520  Biso   1.000  F
  F20      1.0000 0.53880  0.66090  0.33480  Biso   1.000  F
  F21      1.0000 0.03880  0.83910  0.83480  Biso   1.000  F
  F22      1.0000 0.96120  0.83910  0.66520  Biso   1.000  F
  F23      1.0000 0.53880  0.33910  0.83480  Biso   1.000  F
  F24      1.0000 0.46120  0.33910  0.66520  Biso   1.000  F
  F25      1.0000 0.91310  0.20620  0.28860  Biso   1.000  F
  F26      1.0000 0.08690  0.20620  0.21140  Biso   1.000  F
  F27      1.0000 0.41310  0.70620  0.28860  Biso   1.000  F
  F28      1.0000 0.58690  0.70620  0.21140  Biso   1.000  F
  F29      1.0000 0.08690  0.79380  0.71140  Biso   1.000  F
  F30      1.0000 0.91310  0.79380  0.78860  Biso   1.000  F
  F31      1.0000 0.58690  0.29380  0.71140  Biso   1.000  F
  F32      1.0000 0.41310  0.29380  0.78860  Biso   1.000  F
  B9       1.0000 0.50200  0.31240  0.24190  Biso   1.000  B
  B10      1.0000 0.49800  0.31240  0.25810  Biso   1.000  B
  B11      1.0000 0.00200  0.81240  0.24190  Biso   1.000  B
  B12      1.0000 0.99800  0.81240  0.25810  Biso   1.000  B
  B13      1.0000 0.49800  0.68760  0.75810  Biso   1.000  B
  B14      1.0000 0.50200  0.68760  0.74190  Biso   1.000  B
  B15      1.0000 0.99800  0.18760  0.75810  Biso   1.000  B
  B16      1.0000 0.00200  0.18760  0.74190  Biso   1.000  B
  F33      1.0000 0.55430  0.27510  0.18700  Biso   1.000  F
  F34      1.0000 0.44570  0.27510  0.31300  Biso   1.000  F
  F35      1.0000 0.05430  0.77510  0.18700  Biso   1.000  F
  F36      1.0000 0.94570  0.77510  0.31300  Biso   1.000  F
  F37      1.0000 0.44570  0.72490  0.81300  Biso   1.000  F
  F38      1.0000 0.55430  0.72490  0.68700  Biso   1.000  F
  F39      1.0000 0.94570  0.22490  0.81300  Biso   1.000  F
  F40      1.0000 0.05430  0.22490  0.68700  Biso   1.000  F
  F41      1.0000 0.44930  0.35700  0.18540  Biso   1.000  F
  F42      1.0000 0.55070  0.35700  0.31460  Biso   1.000  F
  F43      1.0000 0.94930  0.85700  0.18540  Biso   1.000  F
  F44      1.0000 0.05070  0.85700  0.31460  Biso   1.000  F
  F45      1.0000 0.55070  0.64300  0.81460  Biso   1.000  F
  F46      1.0000 0.44930  0.64300  0.68540  Biso   1.000  F
  F47      1.0000 0.05070  0.14300  0.81460  Biso   1.000  F
  F48      1.0000 0.94930  0.14300  0.68540  Biso   1.000  F
  F49      1.0000 0.59830  0.33890  0.30230  Biso   1.000  F
  F50      1.0000 0.40170  0.33890  0.19770  Biso   1.000  F
  F51      1.0000 0.09830  0.83890  0.30230  Biso   1.000  F
  F52      1.0000 0.90170  0.83890  0.19770  Biso   1.000  F
  F53      1.0000 0.40170  0.66110  0.69770  Biso   1.000  F
  F54      1.0000 0.59830  0.66110  0.80230  Biso   1.000  F
  F55      1.0000 0.90170  0.16110  0.69770  Biso   1.000  F
  F56      1.0000 0.09830  0.16110  0.80230  Biso   1.000  F
  F57      1.0000 0.39810  0.28720  0.26770  Biso   1.000  F
  F58      1.0000 0.60190  0.28720  0.23230  Biso   1.000  F
  F59      1.0000 0.89810  0.78720  0.26770  Biso   1.000  F
  F60      1.0000 0.10190  0.78720  0.23230  Biso   1.000  F
  F61      1.0000 0.60190  0.71280  0.73230  Biso   1.000  F
  F62      1.0000 0.39810  0.71280  0.76770  Biso   1.000  F
  F63      1.0000 0.10190  0.21280  0.73230  Biso   1.000  F
  F64      1.0000 0.89810  0.21280  0.76770  Biso   1.000  F
