data_image0
_cell_length_a       24.031
_cell_length_b       24.031
_cell_length_c       26.102
_cell_angle_alpha    90
_cell_angle_beta     90
_cell_angle_gamma    120

_symmetry_space_group_name_H-M    "P 1"
_symmetry_int_tables_number       1

loop_
  _symmetry_equiv_pos_as_xyz
  'x, y, z'

loop_
  _atom_site_label
  _atom_site_occupancy
  _atom_site_fract_x
  _atom_site_fract_y
  _atom_site_fract_z
  _atom_site_thermal_displace_type
  _atom_site_B_iso_or_equiv
  _atom_site_type_symbol
  C1       1.0000 0.02180  0.43800  0.21200  Biso   1.000  C
  C2       1.0000 0.56200  0.58380  0.21200  Biso   1.000  C
  C3       1.0000 0.41620  0.97820  0.21200  Biso   1.000  C
  C4       1.0000 0.68847  0.77133  0.54533  Biso   1.000  C
  C5       1.0000 0.22867  0.91713  0.54533  Biso   1.000  C
  C6       1.0000 0.08287  0.31153  0.54533  Biso   1.000  C
  C7       1.0000 0.35513  0.10467  0.87867  Biso   1.000  C
  C8       1.0000 0.89533  0.25047  0.87867  Biso   1.000  C
  C9       1.0000 0.74953  0.64487  0.87867  Biso   1.000  C
  C10      1.0000 0.97820  0.56200  0.78800  Biso   1.000  C
  C11      1.0000 0.43800  0.41620  0.78800  Biso   1.000  C
  C12      1.0000 0.58380  0.02180  0.78800  Biso   1.000  C
  C13      1.0000 0.64487  0.89533  0.12133  Biso   1.000  C
  C14      1.0000 0.10467  0.74953  0.12133  Biso   1.000  C
  C15      1.0000 0.25047  0.35513  0.12133  Biso   1.000  C
  C16      1.0000 0.31153  0.22867  0.45467  Biso   1.000  C
  C17      1.0000 0.77133  0.08287  0.45467  Biso   1.000  C
  C18      1.0000 0.91713  0.68847  0.45467  Biso   1.000  C
  H1       1.0000 0.00600  0.39600  0.22650  Biso   1.000  H
  H2       1.0000 0.60400  0.61000  0.22650  Biso   1.000  H
  H3       1.0000 0.39000  0.99400  0.22650  Biso   1.000  H
  H4       1.0000 0.67267  0.72933  0.55983  Biso   1.000  H
  H5       1.0000 0.27067  0.94333  0.55983  Biso   1.000  H
  H6       1.0000 0.05667  0.32733  0.55983  Biso   1.000  H
  H7       1.0000 0.33933  0.06267  0.89317  Biso   1.000  H
  H8       1.0000 0.93733  0.27667  0.89317  Biso   1.000  H
  H9       1.0000 0.72333  0.66067  0.89317  Biso   1.000  H
  H10      1.0000 0.99400  0.60400  0.77350  Biso   1.000  H
  H11      1.0000 0.39600  0.39000  0.77350  Biso   1.000  H
  H12      1.0000 0.61000  0.00600  0.77350  Biso   1.000  H
  H13      1.0000 0.66067  0.93733  0.10683  Biso   1.000  H
  H14      1.0000 0.06267  0.72333  0.10683  Biso   1.000  H
  H15      1.0000 0.27667  0.33933  0.10683  Biso   1.000  H
  H16      1.0000 0.32733  0.27067  0.44017  Biso   1.000  H
  H17      1.0000 0.72933  0.05667  0.44017  Biso   1.000  H
  H18      1.0000 0.94333  0.67267  0.44017  Biso   1.000  H
  H19      1.0000 0.98950  0.43790  0.19030  Biso   1.000  H
  H20      1.0000 0.56210  0.55160  0.19030  Biso   1.000  H
  H21      1.0000 0.44840  0.01050  0.19030  Biso   1.000  H
  H22      1.0000 0.65617  0.77123  0.52363  Biso   1.000  H
  H23      1.0000 0.22877  0.88493  0.52363  Biso   1.000  H
  H24      1.0000 0.11507  0.34383  0.52363  Biso   1.000  H
  H25      1.0000 0.32283  0.10457  0.85697  Biso   1.000  H
  H26      1.0000 0.89543  0.21827  0.85697  Biso   1.000  H
  H27      1.0000 0.78173  0.67717  0.85697  Biso   1.000  H
  H28      1.0000 0.01050  0.56210  0.80970  Biso   1.000  H
  H29      1.0000 0.43790  0.44840  0.80970  Biso   1.000  H
  H30      1.0000 0.55160  0.98950  0.80970  Biso   1.000  H
  H31      1.0000 0.67717  0.89543  0.14303  Biso   1.000  H
  H32      1.0000 0.10457  0.78173  0.14303  Biso   1.000  H
  H33      1.0000 0.21827  0.32283  0.14303  Biso   1.000  H
  H34      1.0000 0.34383  0.22877  0.47637  Biso   1.000  H
  H35      1.0000 0.77123  0.11507  0.47637  Biso   1.000  H
  H36      1.0000 0.88493  0.65617  0.47637  Biso   1.000  H
  H37      1.0000 0.05970  0.44950  0.19230  Biso   1.000  H
  H38      1.0000 0.55050  0.61020  0.19230  Biso   1.000  H
  H39      1.0000 0.38980  0.94030  0.19230  Biso   1.000  H
  H40      1.0000 0.72637  0.78283  0.52563  Biso   1.000  H
  H41      1.0000 0.21717  0.94353  0.52563  Biso   1.000  H
  H42      1.0000 0.05647  0.27363  0.52563  Biso   1.000  H
  H43      1.0000 0.39303  0.11617  0.85897  Biso   1.000  H
  H44      1.0000 0.88383  0.27687  0.85897  Biso   1.000  H
  H45      1.0000 0.72313  0.60697  0.85897  Biso   1.000  H
  H46      1.0000 0.94030  0.55050  0.80770  Biso   1.000  H
  H47      1.0000 0.44950  0.38980  0.80770  Biso   1.000  H
  H48      1.0000 0.61020  0.05970  0.80770  Biso   1.000  H
  H49      1.0000 0.60697  0.88383  0.14103  Biso   1.000  H
  H50      1.0000 0.11617  0.72313  0.14103  Biso   1.000  H
  H51      1.0000 0.27687  0.39303  0.14103  Biso   1.000  H
  H52      1.0000 0.27363  0.21717  0.47437  Biso   1.000  H
  H53      1.0000 0.78283  0.05647  0.47437  Biso   1.000  H
  H54      1.0000 0.94353  0.72637  0.47437  Biso   1.000  H
  C19      1.0000 0.03780  0.48580  0.25417  Biso   1.000  C
  C20      1.0000 0.51420  0.55200  0.25417  Biso   1.000  C
  C21      1.0000 0.44800  0.96220  0.25417  Biso   1.000  C
  C22      1.0000 0.70447  0.81913  0.58750  Biso   1.000  C
  C23      1.0000 0.18087  0.88533  0.58750  Biso   1.000  C
  C24      1.0000 0.11467  0.29553  0.58750  Biso   1.000  C
  C25      1.0000 0.37113  0.15247  0.92084  Biso   1.000  C
  C26      1.0000 0.84753  0.21867  0.92084  Biso   1.000  C
  C27      1.0000 0.78133  0.62887  0.92084  Biso   1.000  C
  C28      1.0000 0.96220  0.51420  0.74583  Biso   1.000  C
  C29      1.0000 0.48580  0.44800  0.74583  Biso   1.000  C
  C30      1.0000 0.55200  0.03780  0.74583  Biso   1.000  C
  C31      1.0000 0.62887  0.84753  0.07916  Biso   1.000  C
  C32      1.0000 0.15247  0.78133  0.07916  Biso   1.000  C
  C33      1.0000 0.21867  0.37113  0.07916  Biso   1.000  C
  C34      1.0000 0.29553  0.18087  0.41250  Biso   1.000  C
  C35      1.0000 0.81913  0.11467  0.41250  Biso   1.000  C
  C36      1.0000 0.88533  0.70447  0.41250  Biso   1.000  C
  C37      1.0000 0.06340  0.55480  0.24558  Biso   1.000  C
  C38      1.0000 0.44520  0.50860  0.24558  Biso   1.000  C
  C39      1.0000 0.49140  0.93660  0.24558  Biso   1.000  C
  C40      1.0000 0.73007  0.88813  0.57891  Biso   1.000  C
  C41      1.0000 0.11187  0.84193  0.57891  Biso   1.000  C
  C42      1.0000 0.15807  0.26993  0.57891  Biso   1.000  C
  C43      1.0000 0.39673  0.22147  0.91225  Biso   1.000  C
  C44      1.0000 0.77853  0.17527  0.91225  Biso   1.000  C
  C45      1.0000 0.82473  0.60327  0.91225  Biso   1.000  C
  C46      1.0000 0.93660  0.44520  0.75442  Biso   1.000  C
  C47      1.0000 0.55480  0.49140  0.75442  Biso   1.000  C
  C48      1.0000 0.50860  0.06340  0.75442  Biso   1.000  C
  C49      1.0000 0.60327  0.77853  0.08775  Biso   1.000  C
  C50      1.0000 0.22147  0.82473  0.08775  Biso   1.000  C
  C51      1.0000 0.17527  0.39673  0.08775  Biso   1.000  C
  C52      1.0000 0.26993  0.11187  0.42109  Biso   1.000  C
  C53      1.0000 0.88813  0.15807  0.42109  Biso   1.000  C
  C54      1.0000 0.84193  0.73007  0.42109  Biso   1.000  C
  C55      1.0000 0.06970  0.57830  0.19180  Biso   1.000  C
  C56      1.0000 0.42170  0.49140  0.19180  Biso   1.000  C
  C57      1.0000 0.50860  0.93030  0.19180  Biso   1.000  C
  C58      1.0000 0.73637  0.91163  0.52513  Biso   1.000  C
  C59      1.0000 0.08837  0.82473  0.52513  Biso   1.000  C
  C60      1.0000 0.17527  0.26363  0.52513  Biso   1.000  C
  C61      1.0000 0.40303  0.24497  0.85847  Biso   1.000  C
  C62      1.0000 0.75503  0.15807  0.85847  Biso   1.000  C
  C63      1.0000 0.84193  0.59697  0.85847  Biso   1.000  C
  C64      1.0000 0.93030  0.42170  0.80820  Biso   1.000  C
  C65      1.0000 0.57830  0.50860  0.80820  Biso   1.000  C
  C66      1.0000 0.49140  0.06970  0.80820  Biso   1.000  C
  C67      1.0000 0.59697  0.75503  0.14153  Biso   1.000  C
  C68      1.0000 0.24497  0.84193  0.14153  Biso   1.000  C
  C69      1.0000 0.15807  0.40303  0.14153  Biso   1.000  C
  C70      1.0000 0.26363  0.08837  0.47487  Biso   1.000  C
  C71      1.0000 0.91163  0.17527  0.47487  Biso   1.000  C
  C72      1.0000 0.82473  0.73637  0.47487  Biso   1.000  C
  H55      1.0000 0.08710  0.62400  0.19190  Biso   1.000  H
  H56      1.0000 0.37600  0.46310  0.19190  Biso   1.000  H
  H57      1.0000 0.53690  0.91290  0.19190  Biso   1.000  H
  H58      1.0000 0.75377  0.95733  0.52523  Biso   1.000  H
  H59      1.0000 0.04267  0.79643  0.52523  Biso   1.000  H
  H60      1.0000 0.20357  0.24623  0.52523  Biso   1.000  H
  H61      1.0000 0.42043  0.29067  0.85857  Biso   1.000  H
  H62      1.0000 0.70933  0.12977  0.85857  Biso   1.000  H
  H63      1.0000 0.87023  0.57957  0.85857  Biso   1.000  H
  H64      1.0000 0.91290  0.37600  0.80810  Biso   1.000  H
  H65      1.0000 0.62400  0.53690  0.80810  Biso   1.000  H
  H66      1.0000 0.46310  0.08710  0.80810  Biso   1.000  H
  H67      1.0000 0.57957  0.70933  0.14143  Biso   1.000  H
  H68      1.0000 0.29067  0.87023  0.14143  Biso   1.000  H
  H69      1.0000 0.12977  0.42043  0.14143  Biso   1.000  H
  H70      1.0000 0.24623  0.04267  0.47477  Biso   1.000  H
  H71      1.0000 0.95733  0.20357  0.47477  Biso   1.000  H
  H72      1.0000 0.79643  0.75377  0.47477  Biso   1.000  H
  H73      1.0000 0.09790  0.56810  0.17310  Biso   1.000  H
  H74      1.0000 0.43190  0.52980  0.17310  Biso   1.000  H
  H75      1.0000 0.47020  0.90210  0.17310  Biso   1.000  H
  H76      1.0000 0.76457  0.90143  0.50643  Biso   1.000  H
  H77      1.0000 0.09857  0.86313  0.50643  Biso   1.000  H
  H78      1.0000 0.13687  0.23543  0.50643  Biso   1.000  H
  H79      1.0000 0.43123  0.23477  0.83977  Biso   1.000  H
  H80      1.0000 0.76523  0.19647  0.83977  Biso   1.000  H
  H81      1.0000 0.80353  0.56877  0.83977  Biso   1.000  H
  H82      1.0000 0.90210  0.43190  0.82690  Biso   1.000  H
  H83      1.0000 0.56810  0.47020  0.82690  Biso   1.000  H
  H84      1.0000 0.52980  0.09790  0.82690  Biso   1.000  H
  H85      1.0000 0.56877  0.76523  0.16023  Biso   1.000  H
  H86      1.0000 0.23477  0.80353  0.16023  Biso   1.000  H
  H87      1.0000 0.19647  0.43123  0.16023  Biso   1.000  H
  H88      1.0000 0.23543  0.09857  0.49357  Biso   1.000  H
  H89      1.0000 0.90143  0.13687  0.49357  Biso   1.000  H
  H90      1.0000 0.86313  0.76457  0.49357  Biso   1.000  H
  H91      1.0000 0.02820  0.55780  0.17580  Biso   1.000  H
  H92      1.0000 0.44220  0.47040  0.17580  Biso   1.000  H
  H93      1.0000 0.52960  0.97180  0.17580  Biso   1.000  H
  H94      1.0000 0.69487  0.89113  0.50913  Biso   1.000  H
  H95      1.0000 0.10887  0.80373  0.50913  Biso   1.000  H
  H96      1.0000 0.19627  0.30513  0.50913  Biso   1.000  H
  H97      1.0000 0.36153  0.22447  0.84247  Biso   1.000  H
  H98      1.0000 0.77553  0.13707  0.84247  Biso   1.000  H
  H99      1.0000 0.86293  0.63847  0.84247  Biso   1.000  H
  H100     1.0000 0.97180  0.44220  0.82420  Biso   1.000  H
  H101     1.0000 0.55780  0.52960  0.82420  Biso   1.000  H
  H102     1.0000 0.47040  0.02820  0.82420  Biso   1.000  H
  H103     1.0000 0.63847  0.77553  0.15753  Biso   1.000  H
  H104     1.0000 0.22447  0.86293  0.15753  Biso   1.000  H
  H105     1.0000 0.13707  0.36153  0.15753  Biso   1.000  H
  H106     1.0000 0.30513  0.10887  0.49087  Biso   1.000  H
  H107     1.0000 0.89113  0.19627  0.49087  Biso   1.000  H
  H108     1.0000 0.80373  0.69487  0.49087  Biso   1.000  H
  C73      1.0000 0.10330  0.65894  0.27894  Biso   1.000  C
  C74      1.0000 0.34106  0.44436  0.27894  Biso   1.000  C
  C75      1.0000 0.55564  0.89670  0.27894  Biso   1.000  C
  C76      1.0000 0.76997  0.99227  0.61227  Biso   1.000  C
  C77      1.0000 0.00773  0.77769  0.61227  Biso   1.000  C
  C78      1.0000 0.22231  0.23003  0.61227  Biso   1.000  C
  C79      1.0000 0.43663  0.32561  0.94561  Biso   1.000  C
  C80      1.0000 0.67439  0.11103  0.94561  Biso   1.000  C
  C81      1.0000 0.88897  0.56337  0.94561  Biso   1.000  C
  C82      1.0000 0.89670  0.34106  0.72106  Biso   1.000  C
  C83      1.0000 0.65894  0.55564  0.72106  Biso   1.000  C
  C84      1.0000 0.44436  0.10330  0.72106  Biso   1.000  C
  C85      1.0000 0.56337  0.67439  0.05439  Biso   1.000  C
  C86      1.0000 0.32561  0.88897  0.05439  Biso   1.000  C
  C87      1.0000 0.11103  0.43663  0.05439  Biso   1.000  C
  C88      1.0000 0.23003  0.00773  0.38773  Biso   1.000  C
  C89      1.0000 0.99227  0.22231  0.38773  Biso   1.000  C
  C90      1.0000 0.77769  0.76997  0.38773  Biso   1.000  C
  C91      1.0000 0.06250  0.68160  0.26760  Biso   1.000  C
  C92      1.0000 0.31840  0.38090  0.26760  Biso   1.000  C
  C93      1.0000 0.61910  0.93750  0.26760  Biso   1.000  C
  C94      1.0000 0.72917  0.01493  0.60093  Biso   1.000  C
  C95      1.0000 0.98507  0.71423  0.60093  Biso   1.000  C
  C96      1.0000 0.28577  0.27083  0.60093  Biso   1.000  C
  C97      1.0000 0.39583  0.34827  0.93427  Biso   1.000  C
  C98      1.0000 0.65173  0.04757  0.93427  Biso   1.000  C
  C99      1.0000 0.95243  0.60417  0.93427  Biso   1.000  C
  C100     1.0000 0.93750  0.31840  0.73240  Biso   1.000  C
  C101     1.0000 0.68160  0.61910  0.73240  Biso   1.000  C
  C102     1.0000 0.38090  0.06250  0.73240  Biso   1.000  C
  C103     1.0000 0.60417  0.65173  0.06573  Biso   1.000  C
  C104     1.0000 0.34827  0.95243  0.06573  Biso   1.000  C
  C105     1.0000 0.04757  0.39583  0.06573  Biso   1.000  C
  C106     1.0000 0.27083  0.98507  0.39907  Biso   1.000  C
  C107     1.0000 0.01493  0.28577  0.39907  Biso   1.000  C
  C108     1.0000 0.71423  0.72917  0.39907  Biso   1.000  C
  H109     1.0000 0.01890  0.65270  0.26310  Biso   1.000  H
  H110     1.0000 0.34730  0.36620  0.26310  Biso   1.000  H
  H111     1.0000 0.63380  0.98110  0.26310  Biso   1.000  H
  H112     1.0000 0.68557  0.98603  0.59643  Biso   1.000  H
  H113     1.0000 0.01397  0.69953  0.59643  Biso   1.000  H
  H114     1.0000 0.30047  0.31443  0.59643  Biso   1.000  H
  H115     1.0000 0.35223  0.31937  0.92977  Biso   1.000  H
  H116     1.0000 0.68063  0.03287  0.92977  Biso   1.000  H
  H117     1.0000 0.96713  0.64777  0.92977  Biso   1.000  H
  H118     1.0000 0.98110  0.34730  0.73690  Biso   1.000  H
  H119     1.0000 0.65270  0.63380  0.73690  Biso   1.000  H
  H120     1.0000 0.36620  0.01890  0.73690  Biso   1.000  H
  H121     1.0000 0.64777  0.68063  0.07023  Biso   1.000  H
  H122     1.0000 0.31937  0.96713  0.07023  Biso   1.000  H
  H123     1.0000 0.03287  0.35223  0.07023  Biso   1.000  H
  H124     1.0000 0.31443  0.01397  0.40357  Biso   1.000  H
  H125     1.0000 0.98603  0.30047  0.40357  Biso   1.000  H
  H126     1.0000 0.69953  0.68557  0.40357  Biso   1.000  H
  C109     1.0000 0.08520  0.74660  0.26260  Biso   1.000  C
  C110     1.0000 0.25340  0.33860  0.26260  Biso   1.000  C
  C111     1.0000 0.66140  0.91480  0.26260  Biso   1.000  C
  C112     1.0000 0.75187  0.07993  0.59593  Biso   1.000  C
  C113     1.0000 0.92007  0.67193  0.59593  Biso   1.000  C
  C114     1.0000 0.32807  0.24813  0.59593  Biso   1.000  C
  C115     1.0000 0.41853  0.41327  0.92927  Biso   1.000  C
  C116     1.0000 0.58673  0.00527  0.92927  Biso   1.000  C
  C117     1.0000 0.99473  0.58147  0.92927  Biso   1.000  C
  C118     1.0000 0.91480  0.25340  0.73740  Biso   1.000  C
  C119     1.0000 0.74660  0.66140  0.73740  Biso   1.000  C
  C120     1.0000 0.33860  0.08520  0.73740  Biso   1.000  C
  C121     1.0000 0.58147  0.58673  0.07073  Biso   1.000  C
  C122     1.0000 0.41327  0.99473  0.07073  Biso   1.000  C
  C123     1.0000 0.00527  0.41853  0.07073  Biso   1.000  C
  C124     1.0000 0.24813  0.92007  0.40407  Biso   1.000  C
  C125     1.0000 0.07993  0.32807  0.40407  Biso   1.000  C
  C126     1.0000 0.67193  0.75187  0.40407  Biso   1.000  C
  H127     1.0000 0.05650  0.76070  0.25530  Biso   1.000  H
  H128     1.0000 0.23930  0.29580  0.25530  Biso   1.000  H
  H129     1.0000 0.70420  0.94350  0.25530  Biso   1.000  H
  H130     1.0000 0.72317  0.09403  0.58863  Biso   1.000  H
  H131     1.0000 0.90597  0.62913  0.58863  Biso   1.000  H
  H132     1.0000 0.37087  0.27683  0.58863  Biso   1.000  H
  H133     1.0000 0.38983  0.42737  0.92197  Biso   1.000  H
  H134     1.0000 0.57263  0.96247  0.92197  Biso   1.000  H
  H135     1.0000 0.03753  0.61017  0.92197  Biso   1.000  H
  H136     1.0000 0.94350  0.23930  0.74470  Biso   1.000  H
  H137     1.0000 0.76070  0.70420  0.74470  Biso   1.000  H
  H138     1.0000 0.29580  0.05650  0.74470  Biso   1.000  H
  H139     1.0000 0.61017  0.57263  0.07803  Biso   1.000  H
  H140     1.0000 0.42737  0.03753  0.07803  Biso   1.000  H
  H141     1.0000 0.96247  0.38983  0.07803  Biso   1.000  H
  H142     1.0000 0.27683  0.90597  0.41137  Biso   1.000  H
  H143     1.0000 0.09403  0.37087  0.41137  Biso   1.000  H
  H144     1.0000 0.62913  0.72317  0.41137  Biso   1.000  H
  C127     1.0000 0.14981  0.79116  0.26801  Biso   1.000  C
  C128     1.0000 0.20884  0.35865  0.26801  Biso   1.000  C
  C129     1.0000 0.64135  0.85019  0.26801  Biso   1.000  C
  C130     1.0000 0.81648  0.12449  0.60134  Biso   1.000  C
  C131     1.0000 0.87551  0.69198  0.60134  Biso   1.000  C
  C132     1.0000 0.30802  0.18352  0.60134  Biso   1.000  C
  C133     1.0000 0.48314  0.45783  0.93468  Biso   1.000  C
  C134     1.0000 0.54217  0.02532  0.93468  Biso   1.000  C
  C135     1.0000 0.97468  0.51686  0.93468  Biso   1.000  C
  C136     1.0000 0.85019  0.20884  0.73199  Biso   1.000  C
  C137     1.0000 0.79116  0.64135  0.73199  Biso   1.000  C
  C138     1.0000 0.35865  0.14981  0.73199  Biso   1.000  C
  C139     1.0000 0.51686  0.54217  0.06532  Biso   1.000  C
  C140     1.0000 0.45783  0.97468  0.06532  Biso   1.000  C
  C141     1.0000 0.02532  0.48314  0.06532  Biso   1.000  C
  C142     1.0000 0.18352  0.87551  0.39866  Biso   1.000  C
  C143     1.0000 0.12449  0.30802  0.39866  Biso   1.000  C
  C144     1.0000 0.69198  0.81648  0.39866  Biso   1.000  C
  C145     1.0000 0.19040  0.76810  0.27890  Biso   1.000  C
  C146     1.0000 0.23190  0.42230  0.27890  Biso   1.000  C
  C147     1.0000 0.57770  0.80960  0.27890  Biso   1.000  C
  C148     1.0000 0.85707  0.10143  0.61223  Biso   1.000  C
  C149     1.0000 0.89857  0.75563  0.61223  Biso   1.000  C
  C150     1.0000 0.24437  0.14293  0.61223  Biso   1.000  C
  C151     1.0000 0.52373  0.43477  0.94557  Biso   1.000  C
  C152     1.0000 0.56523  0.08897  0.94557  Biso   1.000  C
  C153     1.0000 0.91103  0.47627  0.94557  Biso   1.000  C
  C154     1.0000 0.80960  0.23190  0.72110  Biso   1.000  C
  C155     1.0000 0.76810  0.57770  0.72110  Biso   1.000  C
  C156     1.0000 0.42230  0.19040  0.72110  Biso   1.000  C
  C157     1.0000 0.47627  0.56523  0.05443  Biso   1.000  C
  C158     1.0000 0.43477  0.91103  0.05443  Biso   1.000  C
  C159     1.0000 0.08897  0.52373  0.05443  Biso   1.000  C
  C160     1.0000 0.14293  0.89857  0.38777  Biso   1.000  C
  C161     1.0000 0.10143  0.24437  0.38777  Biso   1.000  C
  C162     1.0000 0.75563  0.85707  0.38777  Biso   1.000  C
  H145     1.0000 0.23410  0.79680  0.28240  Biso   1.000  H
  H146     1.0000 0.20320  0.43730  0.28240  Biso   1.000  H
  H147     1.0000 0.56270  0.76590  0.28240  Biso   1.000  H
  H148     1.0000 0.90077  0.13013  0.61573  Biso   1.000  H
  H149     1.0000 0.86987  0.77063  0.61573  Biso   1.000  H
  H150     1.0000 0.22937  0.09923  0.61573  Biso   1.000  H
  H151     1.0000 0.56743  0.46347  0.94907  Biso   1.000  H
  H152     1.0000 0.53653  0.10397  0.94907  Biso   1.000  H
  H153     1.0000 0.89603  0.43257  0.94907  Biso   1.000  H
  H154     1.0000 0.76590  0.20320  0.71760  Biso   1.000  H
  H155     1.0000 0.79680  0.56270  0.71760  Biso   1.000  H
  H156     1.0000 0.43730  0.23410  0.71760  Biso   1.000  H
  H157     1.0000 0.43257  0.53653  0.05093  Biso   1.000  H
  H158     1.0000 0.46347  0.89603  0.05093  Biso   1.000  H
  H159     1.0000 0.10397  0.56743  0.05093  Biso   1.000  H
  H160     1.0000 0.09923  0.86987  0.38427  Biso   1.000  H
  H161     1.0000 0.13013  0.22937  0.38427  Biso   1.000  H
  H162     1.0000 0.77063  0.90077  0.38427  Biso   1.000  H
  C163     1.0000 0.16730  0.70260  0.28470  Biso   1.000  C
  C164     1.0000 0.29740  0.46470  0.28470  Biso   1.000  C
  C165     1.0000 0.53530  0.83270  0.28470  Biso   1.000  C
  C166     1.0000 0.83397  0.03593  0.61803  Biso   1.000  C
  C167     1.0000 0.96407  0.79803  0.61803  Biso   1.000  C
  C168     1.0000 0.20197  0.16603  0.61803  Biso   1.000  C
  C169     1.0000 0.50063  0.36927  0.95137  Biso   1.000  C
  C170     1.0000 0.63073  0.13137  0.95137  Biso   1.000  C
  C171     1.0000 0.86863  0.49937  0.95137  Biso   1.000  C
  C172     1.0000 0.83270  0.29740  0.71530  Biso   1.000  C
  C173     1.0000 0.70260  0.53530  0.71530  Biso   1.000  C
  C174     1.0000 0.46470  0.16730  0.71530  Biso   1.000  C
  C175     1.0000 0.49937  0.63073  0.04863  Biso   1.000  C
  C176     1.0000 0.36927  0.86863  0.04863  Biso   1.000  C
  C177     1.0000 0.13137  0.50063  0.04863  Biso   1.000  C
  C178     1.0000 0.16603  0.96407  0.38197  Biso   1.000  C
  C179     1.0000 0.03593  0.20197  0.38197  Biso   1.000  C
  C180     1.0000 0.79803  0.83397  0.38197  Biso   1.000  C
  H163     1.0000 0.19580  0.68830  0.29260  Biso   1.000  H
  H164     1.0000 0.31170  0.50750  0.29260  Biso   1.000  H
  H165     1.0000 0.49250  0.80420  0.29260  Biso   1.000  H
  H166     1.0000 0.86247  0.02163  0.62593  Biso   1.000  H
  H167     1.0000 0.97837  0.84083  0.62593  Biso   1.000  H
  H168     1.0000 0.15917  0.13753  0.62593  Biso   1.000  H
  H169     1.0000 0.52913  0.35497  0.95927  Biso   1.000  H
  H170     1.0000 0.64503  0.17417  0.95927  Biso   1.000  H
  H171     1.0000 0.82583  0.47087  0.95927  Biso   1.000  H
  H172     1.0000 0.80420  0.31170  0.70740  Biso   1.000  H
  H173     1.0000 0.68830  0.49250  0.70740  Biso   1.000  H
  H174     1.0000 0.50750  0.19580  0.70740  Biso   1.000  H
  H175     1.0000 0.47087  0.64503  0.04073  Biso   1.000  H
  H176     1.0000 0.35497  0.82583  0.04073  Biso   1.000  H
  H177     1.0000 0.17417  0.52913  0.04073  Biso   1.000  H
  H178     1.0000 0.13753  0.97837  0.37407  Biso   1.000  H
  H179     1.0000 0.02163  0.15917  0.37407  Biso   1.000  H
  H180     1.0000 0.84083  0.86247  0.37407  Biso   1.000  H
  C181     1.0000 0.26240  0.19420  0.16560  Biso   1.000  C
  C182     1.0000 0.80580  0.06820  0.16560  Biso   1.000  C
  C183     1.0000 0.93180  0.73760  0.16560  Biso   1.000  C
  C184     1.0000 0.92907  0.52753  0.49893  Biso   1.000  C
  C185     1.0000 0.47247  0.40153  0.49893  Biso   1.000  C
  C186     1.0000 0.59847  0.07093  0.49893  Biso   1.000  C
  C187     1.0000 0.59573  0.86087  0.83227  Biso   1.000  C
  C188     1.0000 0.13913  0.73487  0.83227  Biso   1.000  C
  C189     1.0000 0.26513  0.40427  0.83227  Biso   1.000  C
  C190     1.0000 0.73760  0.80580  0.83440  Biso   1.000  C
  C191     1.0000 0.19420  0.93180  0.83440  Biso   1.000  C
  C192     1.0000 0.06820  0.26240  0.83440  Biso   1.000  C
  C193     1.0000 0.40427  0.13913  0.16773  Biso   1.000  C
  C194     1.0000 0.86087  0.26513  0.16773  Biso   1.000  C
  C195     1.0000 0.73487  0.59573  0.16773  Biso   1.000  C
  C196     1.0000 0.07093  0.47247  0.50107  Biso   1.000  C
  C197     1.0000 0.52753  0.59847  0.50107  Biso   1.000  C
  C198     1.0000 0.40153  0.92907  0.50107  Biso   1.000  C
  H181     1.0000 0.28070  0.23860  0.17490  Biso   1.000  H
  H182     1.0000 0.76140  0.04210  0.17490  Biso   1.000  H
  H183     1.0000 0.95790  0.71930  0.17490  Biso   1.000  H
  H184     1.0000 0.94737  0.57193  0.50823  Biso   1.000  H
  H185     1.0000 0.42807  0.37543  0.50823  Biso   1.000  H
  H186     1.0000 0.62457  0.05263  0.50823  Biso   1.000  H
  H187     1.0000 0.61403  0.90527  0.84157  Biso   1.000  H
  H188     1.0000 0.09473  0.70877  0.84157  Biso   1.000  H
  H189     1.0000 0.29123  0.38597  0.84157  Biso   1.000  H
  H190     1.0000 0.71930  0.76140  0.82510  Biso   1.000  H
  H191     1.0000 0.23860  0.95790  0.82510  Biso   1.000  H
  H192     1.0000 0.04210  0.28070  0.82510  Biso   1.000  H
  H193     1.0000 0.38597  0.09473  0.15843  Biso   1.000  H
  H194     1.0000 0.90527  0.29123  0.15843  Biso   1.000  H
  H195     1.0000 0.70877  0.61403  0.15843  Biso   1.000  H
  H196     1.0000 0.05263  0.42807  0.49177  Biso   1.000  H
  H197     1.0000 0.57193  0.62457  0.49177  Biso   1.000  H
  H198     1.0000 0.37543  0.94737  0.49177  Biso   1.000  H
  H199     1.0000 0.21890  0.17780  0.15440  Biso   1.000  H
  H200     1.0000 0.82220  0.04110  0.15440  Biso   1.000  H
  H201     1.0000 0.95890  0.78110  0.15440  Biso   1.000  H
  H202     1.0000 0.88557  0.51113  0.48773  Biso   1.000  H
  H203     1.0000 0.48887  0.37443  0.48773  Biso   1.000  H
  H204     1.0000 0.62557  0.11443  0.48773  Biso   1.000  H
  H205     1.0000 0.55223  0.84447  0.82107  Biso   1.000  H
  H206     1.0000 0.15553  0.70777  0.82107  Biso   1.000  H
  H207     1.0000 0.29223  0.44777  0.82107  Biso   1.000  H
  H208     1.0000 0.78110  0.82220  0.84560  Biso   1.000  H
  H209     1.0000 0.17780  0.95890  0.84560  Biso   1.000  H
  H210     1.0000 0.04110  0.21890  0.84560  Biso   1.000  H
  H211     1.0000 0.44777  0.15553  0.17893  Biso   1.000  H
  H212     1.0000 0.84447  0.29223  0.17893  Biso   1.000  H
  H213     1.0000 0.70777  0.55223  0.17893  Biso   1.000  H
  H214     1.0000 0.11443  0.48887  0.51227  Biso   1.000  H
  H215     1.0000 0.51113  0.62557  0.51227  Biso   1.000  H
  H216     1.0000 0.37443  0.88557  0.51227  Biso   1.000  H
  H217     1.0000 0.28720  0.19030  0.13850  Biso   1.000  H
  H218     1.0000 0.80970  0.09690  0.13850  Biso   1.000  H
  H219     1.0000 0.90310  0.71280  0.13850  Biso   1.000  H
  H220     1.0000 0.95387  0.52363  0.47183  Biso   1.000  H
  H221     1.0000 0.47637  0.43023  0.47183  Biso   1.000  H
  H222     1.0000 0.56977  0.04613  0.47183  Biso   1.000  H
  H223     1.0000 0.62053  0.85697  0.80517  Biso   1.000  H
  H224     1.0000 0.14303  0.76357  0.80517  Biso   1.000  H
  H225     1.0000 0.23643  0.37947  0.80517  Biso   1.000  H
  H226     1.0000 0.71280  0.80970  0.86150  Biso   1.000  H
  H227     1.0000 0.19030  0.90310  0.86150  Biso   1.000  H
  H228     1.0000 0.09690  0.28720  0.86150  Biso   1.000  H
  H229     1.0000 0.37947  0.14303  0.19483  Biso   1.000  H
  H230     1.0000 0.85697  0.23643  0.19483  Biso   1.000  H
  H231     1.0000 0.76357  0.62053  0.19483  Biso   1.000  H
  H232     1.0000 0.04613  0.47637  0.52817  Biso   1.000  H
  H233     1.0000 0.52363  0.56977  0.52817  Biso   1.000  H
  H234     1.0000 0.43023  0.95387  0.52817  Biso   1.000  H
  C199     1.0000 0.26310  0.15640  0.21140  Biso   1.000  C
  C200     1.0000 0.84360  0.10670  0.21140  Biso   1.000  C
  C201     1.0000 0.89330  0.73690  0.21140  Biso   1.000  C
  C202     1.0000 0.92977  0.48973  0.54473  Biso   1.000  C
  C203     1.0000 0.51027  0.44003  0.54473  Biso   1.000  C
  C204     1.0000 0.55997  0.07023  0.54473  Biso   1.000  C
  C205     1.0000 0.59643  0.82307  0.87807  Biso   1.000  C
  C206     1.0000 0.17693  0.77337  0.87807  Biso   1.000  C
  C207     1.0000 0.22663  0.40357  0.87807  Biso   1.000  C
  C208     1.0000 0.73690  0.84360  0.78860  Biso   1.000  C
  C209     1.0000 0.15640  0.89330  0.78860  Biso   1.000  C
  C210     1.0000 0.10670  0.26310  0.78860  Biso   1.000  C
  C211     1.0000 0.40357  0.17693  0.12193  Biso   1.000  C
  C212     1.0000 0.82307  0.22663  0.12193  Biso   1.000  C
  C213     1.0000 0.77337  0.59643  0.12193  Biso   1.000  C
  C214     1.0000 0.07023  0.51027  0.45527  Biso   1.000  C
  C215     1.0000 0.48973  0.55997  0.45527  Biso   1.000  C
  C216     1.0000 0.44003  0.92977  0.45527  Biso   1.000  C
  C217     1.0000 0.23850  0.08700  0.21138  Biso   1.000  C
  C218     1.0000 0.91300  0.15150  0.21138  Biso   1.000  C
  C219     1.0000 0.84850  0.76150  0.21138  Biso   1.000  C
  C220     1.0000 0.90517  0.42033  0.54471  Biso   1.000  C
  C221     1.0000 0.57967  0.48483  0.54471  Biso   1.000  C
  C222     1.0000 0.51517  0.09483  0.54471  Biso   1.000  C
  C223     1.0000 0.57183  0.75367  0.87805  Biso   1.000  C
  C224     1.0000 0.24633  0.81817  0.87805  Biso   1.000  C
  C225     1.0000 0.18183  0.42817  0.87805  Biso   1.000  C
  C226     1.0000 0.76150  0.91300  0.78862  Biso   1.000  C
  C227     1.0000 0.08700  0.84850  0.78862  Biso   1.000  C
  C228     1.0000 0.15150  0.23850  0.78862  Biso   1.000  C
  C229     1.0000 0.42817  0.24633  0.12195  Biso   1.000  C
  C230     1.0000 0.75367  0.18183  0.12195  Biso   1.000  C
  C231     1.0000 0.81817  0.57183  0.12195  Biso   1.000  C
  C232     1.0000 0.09483  0.57967  0.45529  Biso   1.000  C
  C233     1.0000 0.42033  0.51517  0.45529  Biso   1.000  C
  C234     1.0000 0.48483  0.90517  0.45529  Biso   1.000  C
  C235     1.0000 0.21860  0.05280  0.16159  Biso   1.000  C
  C236     1.0000 0.94720  0.16580  0.16159  Biso   1.000  C
  C237     1.0000 0.83420  0.78140  0.16159  Biso   1.000  C
  C238     1.0000 0.88527  0.38613  0.49492  Biso   1.000  C
  C239     1.0000 0.61387  0.49913  0.49492  Biso   1.000  C
  C240     1.0000 0.50087  0.11473  0.49492  Biso   1.000  C
  C241     1.0000 0.55193  0.71947  0.82826  Biso   1.000  C
  C242     1.0000 0.28053  0.83247  0.82826  Biso   1.000  C
  C243     1.0000 0.16753  0.44807  0.82826  Biso   1.000  C
  C244     1.0000 0.78140  0.94720  0.83841  Biso   1.000  C
  C245     1.0000 0.05280  0.83420  0.83841  Biso   1.000  C
  C246     1.0000 0.16580  0.21860  0.83841  Biso   1.000  C
  C247     1.0000 0.44807  0.28053  0.17174  Biso   1.000  C
  C248     1.0000 0.71947  0.16753  0.17174  Biso   1.000  C
  C249     1.0000 0.83247  0.55193  0.17174  Biso   1.000  C
  C250     1.0000 0.11473  0.61387  0.50508  Biso   1.000  C
  C251     1.0000 0.38613  0.50087  0.50508  Biso   1.000  C
  C252     1.0000 0.49913  0.88527  0.50508  Biso   1.000  C
  H235     1.0000 0.20380  0.00800  0.16680  Biso   1.000  H
  H236     1.0000 0.99200  0.19580  0.16680  Biso   1.000  H
  H237     1.0000 0.80420  0.79620  0.16680  Biso   1.000  H
  H238     1.0000 0.87047  0.34133  0.50013  Biso   1.000  H
  H239     1.0000 0.65867  0.52913  0.50013  Biso   1.000  H
  H240     1.0000 0.47087  0.12953  0.50013  Biso   1.000  H
  H241     1.0000 0.53713  0.67467  0.83347  Biso   1.000  H
  H242     1.0000 0.32533  0.86247  0.83347  Biso   1.000  H
  H243     1.0000 0.13753  0.46287  0.83347  Biso   1.000  H
  H244     1.0000 0.79620  0.99200  0.83320  Biso   1.000  H
  H245     1.0000 0.00800  0.80420  0.83320  Biso   1.000  H
  H246     1.0000 0.19580  0.20380  0.83320  Biso   1.000  H
  H247     1.0000 0.46287  0.32533  0.16653  Biso   1.000  H
  H248     1.0000 0.67467  0.13753  0.16653  Biso   1.000  H
  H249     1.0000 0.86247  0.53713  0.16653  Biso   1.000  H
  H250     1.0000 0.12953  0.65867  0.49987  Biso   1.000  H
  H251     1.0000 0.34133  0.47087  0.49987  Biso   1.000  H
  H252     1.0000 0.52913  0.87047  0.49987  Biso   1.000  H
  H253     1.0000 0.25450  0.07050  0.13860  Biso   1.000  H
  H254     1.0000 0.92950  0.18400  0.13860  Biso   1.000  H
  H255     1.0000 0.81600  0.74550  0.13860  Biso   1.000  H
  H256     1.0000 0.92117  0.40383  0.47193  Biso   1.000  H
  H257     1.0000 0.59617  0.51733  0.47193  Biso   1.000  H
  H258     1.0000 0.48267  0.07883  0.47193  Biso   1.000  H
  H259     1.0000 0.58783  0.73717  0.80527  Biso   1.000  H
  H260     1.0000 0.26283  0.85067  0.80527  Biso   1.000  H
  H261     1.0000 0.14933  0.41217  0.80527  Biso   1.000  H
  H262     1.0000 0.74550  0.92950  0.86140  Biso   1.000  H
  H263     1.0000 0.07050  0.81600  0.86140  Biso   1.000  H
  H264     1.0000 0.18400  0.25450  0.86140  Biso   1.000  H
  H265     1.0000 0.41217  0.26283  0.19473  Biso   1.000  H
  H266     1.0000 0.73717  0.14933  0.19473  Biso   1.000  H
  H267     1.0000 0.85067  0.58783  0.19473  Biso   1.000  H
  H268     1.0000 0.07883  0.59617  0.52807  Biso   1.000  H
  H269     1.0000 0.40383  0.48267  0.52807  Biso   1.000  H
  H270     1.0000 0.51733  0.92117  0.52807  Biso   1.000  H
  H271     1.0000 0.18450  0.05780  0.14720  Biso   1.000  H
  H272     1.0000 0.94220  0.12670  0.14720  Biso   1.000  H
  H273     1.0000 0.87330  0.81550  0.14720  Biso   1.000  H
  H274     1.0000 0.85117  0.39113  0.48053  Biso   1.000  H
  H275     1.0000 0.60887  0.46003  0.48053  Biso   1.000  H
  H276     1.0000 0.53997  0.14883  0.48053  Biso   1.000  H
  H277     1.0000 0.51783  0.72447  0.81387  Biso   1.000  H
  H278     1.0000 0.27553  0.79337  0.81387  Biso   1.000  H
  H279     1.0000 0.20663  0.48217  0.81387  Biso   1.000  H
  H280     1.0000 0.81550  0.94220  0.85280  Biso   1.000  H
  H281     1.0000 0.05780  0.87330  0.85280  Biso   1.000  H
  H282     1.0000 0.12670  0.18450  0.85280  Biso   1.000  H
  H283     1.0000 0.48217  0.27553  0.18613  Biso   1.000  H
  H284     1.0000 0.72447  0.20663  0.18613  Biso   1.000  H
  H285     1.0000 0.79337  0.51783  0.18613  Biso   1.000  H
  H286     1.0000 0.14883  0.60887  0.51947  Biso   1.000  H
  H287     1.0000 0.39113  0.53997  0.51947  Biso   1.000  H
  H288     1.0000 0.46003  0.85117  0.51947  Biso   1.000  H
  C253     1.0000 0.21550  0.99286  0.25730  Biso   1.000  C
  C254     1.0000 0.00714  0.22264  0.25730  Biso   1.000  C
  C255     1.0000 0.77736  0.78450  0.25730  Biso   1.000  C
  C256     1.0000 0.88217  0.32619  0.59063  Biso   1.000  C
  C257     1.0000 0.67381  0.55597  0.59063  Biso   1.000  C
  C258     1.0000 0.44403  0.11783  0.59063  Biso   1.000  C
  C259     1.0000 0.54883  0.65953  0.92397  Biso   1.000  C
  C260     1.0000 0.34047  0.88931  0.92397  Biso   1.000  C
  C261     1.0000 0.11069  0.45117  0.92397  Biso   1.000  C
  C262     1.0000 0.78450  0.00714  0.74270  Biso   1.000  C
  C263     1.0000 0.99286  0.77736  0.74270  Biso   1.000  C
  C264     1.0000 0.22264  0.21550  0.74270  Biso   1.000  C
  C265     1.0000 0.45117  0.34047  0.07603  Biso   1.000  C
  C266     1.0000 0.65953  0.11069  0.07603  Biso   1.000  C
  C267     1.0000 0.88931  0.54883  0.07603  Biso   1.000  C
  C268     1.0000 0.11783  0.67381  0.40937  Biso   1.000  C
  C269     1.0000 0.32619  0.44403  0.40937  Biso   1.000  C
  C270     1.0000 0.55597  0.88217  0.40937  Biso   1.000  C
  C271     1.0000 0.25780  0.97190  0.26730  Biso   1.000  C
  C272     1.0000 0.02810  0.28590  0.26730  Biso   1.000  C
  C273     1.0000 0.71410  0.74220  0.26730  Biso   1.000  C
  C274     1.0000 0.92447  0.30523  0.60063  Biso   1.000  C
  C275     1.0000 0.69477  0.61923  0.60063  Biso   1.000  C
  C276     1.0000 0.38077  0.07553  0.60063  Biso   1.000  C
  C277     1.0000 0.59113  0.63857  0.93397  Biso   1.000  C
  C278     1.0000 0.36143  0.95257  0.93397  Biso   1.000  C
  C279     1.0000 0.04743  0.40887  0.93397  Biso   1.000  C
  C280     1.0000 0.74220  0.02810  0.73270  Biso   1.000  C
  C281     1.0000 0.97190  0.71410  0.73270  Biso   1.000  C
  C282     1.0000 0.28590  0.25780  0.73270  Biso   1.000  C
  C283     1.0000 0.40887  0.36143  0.06603  Biso   1.000  C
  C284     1.0000 0.63857  0.04743  0.06603  Biso   1.000  C
  C285     1.0000 0.95257  0.59113  0.06603  Biso   1.000  C
  C286     1.0000 0.07553  0.69477  0.39937  Biso   1.000  C
  C287     1.0000 0.30523  0.38077  0.39937  Biso   1.000  C
  C288     1.0000 0.61923  0.92447  0.39937  Biso   1.000  C
  H289     1.0000 0.30110  0.00150  0.27220  Biso   1.000  H
  H290     1.0000 0.99850  0.29960  0.27220  Biso   1.000  H
  H291     1.0000 0.70040  0.69890  0.27220  Biso   1.000  H
  H292     1.0000 0.96777  0.33483  0.60553  Biso   1.000  H
  H293     1.0000 0.66517  0.63293  0.60553  Biso   1.000  H
  H294     1.0000 0.36707  0.03223  0.60553  Biso   1.000  H
  H295     1.0000 0.63443  0.66817  0.93887  Biso   1.000  H
  H296     1.0000 0.33183  0.96627  0.93887  Biso   1.000  H
  H297     1.0000 0.03373  0.36557  0.93887  Biso   1.000  H
  H298     1.0000 0.69890  0.99850  0.72780  Biso   1.000  H
  H299     1.0000 0.00150  0.70040  0.72780  Biso   1.000  H
  H300     1.0000 0.29960  0.30110  0.72780  Biso   1.000  H
  H301     1.0000 0.36557  0.33183  0.06113  Biso   1.000  H
  H302     1.0000 0.66817  0.03373  0.06113  Biso   1.000  H
  H303     1.0000 0.96627  0.63443  0.06113  Biso   1.000  H
  H304     1.0000 0.03223  0.66517  0.39447  Biso   1.000  H
  H305     1.0000 0.33483  0.36707  0.39447  Biso   1.000  H
  H306     1.0000 0.63293  0.96777  0.39447  Biso   1.000  H
  C289     1.0000 0.23660  0.90670  0.27010  Biso   1.000  C
  C290     1.0000 0.09330  0.32990  0.27010  Biso   1.000  C
  C291     1.0000 0.67010  0.76340  0.27010  Biso   1.000  C
  C292     1.0000 0.90327  0.24003  0.60343  Biso   1.000  C
  C293     1.0000 0.75997  0.66323  0.60343  Biso   1.000  C
  C294     1.0000 0.33677  0.09673  0.60343  Biso   1.000  C
  C295     1.0000 0.56993  0.57337  0.93677  Biso   1.000  C
  C296     1.0000 0.42663  0.99657  0.93677  Biso   1.000  C
  C297     1.0000 0.00343  0.43007  0.93677  Biso   1.000  C
  C298     1.0000 0.76340  0.09330  0.72990  Biso   1.000  C
  C299     1.0000 0.90670  0.67010  0.72990  Biso   1.000  C
  C300     1.0000 0.32990  0.23660  0.72990  Biso   1.000  C
  C301     1.0000 0.43007  0.42663  0.06323  Biso   1.000  C
  C302     1.0000 0.57337  0.00343  0.06323  Biso   1.000  C
  C303     1.0000 0.99657  0.56993  0.06323  Biso   1.000  C
  C304     1.0000 0.09673  0.75997  0.39657  Biso   1.000  C
  C305     1.0000 0.24003  0.33677  0.39657  Biso   1.000  C
  C306     1.0000 0.66323  0.90327  0.39657  Biso   1.000  C
  H307     1.0000 0.26620  0.89350  0.27660  Biso   1.000  H
  H308     1.0000 0.10650  0.37270  0.27660  Biso   1.000  H
  H309     1.0000 0.62730  0.73380  0.27660  Biso   1.000  H
  H310     1.0000 0.93287  0.22683  0.60993  Biso   1.000  H
  H311     1.0000 0.77317  0.70603  0.60993  Biso   1.000  H
  H312     1.0000 0.29397  0.06713  0.60993  Biso   1.000  H
  H313     1.0000 0.59953  0.56017  0.94327  Biso   1.000  H
  H314     1.0000 0.43983  0.03937  0.94327  Biso   1.000  H
  H315     1.0000 0.96063  0.40047  0.94327  Biso   1.000  H
  H316     1.0000 0.73380  0.10650  0.72340  Biso   1.000  H
  H317     1.0000 0.89350  0.62730  0.72340  Biso   1.000  H
  H318     1.0000 0.37270  0.26620  0.72340  Biso   1.000  H
  H319     1.0000 0.40047  0.43983  0.05673  Biso   1.000  H
  H320     1.0000 0.56017  0.96063  0.05673  Biso   1.000  H
  H321     1.0000 0.03937  0.59953  0.05673  Biso   1.000  H
  H322     1.0000 0.06713  0.77317  0.39007  Biso   1.000  H
  H323     1.0000 0.22683  0.29397  0.39007  Biso   1.000  H
  H324     1.0000 0.70603  0.93287  0.39007  Biso   1.000  H
  C307     1.0000 0.17309  0.86116  0.26355  Biso   1.000  C
  C308     1.0000 0.13884  0.31193  0.26355  Biso   1.000  C
  C309     1.0000 0.68807  0.82691  0.26355  Biso   1.000  C
  C310     1.0000 0.83976  0.19449  0.59688  Biso   1.000  C
  C311     1.0000 0.80551  0.64526  0.59688  Biso   1.000  C
  C312     1.0000 0.35474  0.16024  0.59688  Biso   1.000  C
  C313     1.0000 0.50642  0.52783  0.93022  Biso   1.000  C
  C314     1.0000 0.47217  0.97860  0.93022  Biso   1.000  C
  C315     1.0000 0.02140  0.49358  0.93022  Biso   1.000  C
  C316     1.0000 0.82691  0.13884  0.73645  Biso   1.000  C
  C317     1.0000 0.86116  0.68807  0.73645  Biso   1.000  C
  C318     1.0000 0.31193  0.17309  0.73645  Biso   1.000  C
  C319     1.0000 0.49358  0.47217  0.06978  Biso   1.000  C
  C320     1.0000 0.52783  0.02140  0.06978  Biso   1.000  C
  C321     1.0000 0.97860  0.50642  0.06978  Biso   1.000  C
  C322     1.0000 0.16024  0.80551  0.40312  Biso   1.000  C
  C323     1.0000 0.19449  0.35474  0.40312  Biso   1.000  C
  C324     1.0000 0.64526  0.83976  0.40312  Biso   1.000  C
  C325     1.0000 0.13120  0.88380  0.25470  Biso   1.000  C
  C326     1.0000 0.11620  0.24740  0.25470  Biso   1.000  C
  C327     1.0000 0.75260  0.86880  0.25470  Biso   1.000  C
  C328     1.0000 0.79787  0.21713  0.58803  Biso   1.000  C
  C329     1.0000 0.78287  0.58073  0.58803  Biso   1.000  C
  C330     1.0000 0.41927  0.20213  0.58803  Biso   1.000  C
  C331     1.0000 0.46453  0.55047  0.92137  Biso   1.000  C
  C332     1.0000 0.44953  0.91407  0.92137  Biso   1.000  C
  C333     1.0000 0.08593  0.53547  0.92137  Biso   1.000  C
  C334     1.0000 0.86880  0.11620  0.74530  Biso   1.000  C
  C335     1.0000 0.88380  0.75260  0.74530  Biso   1.000  C
  C336     1.0000 0.24740  0.13120  0.74530  Biso   1.000  C
  C337     1.0000 0.53547  0.44953  0.07863  Biso   1.000  C
  C338     1.0000 0.55047  0.08593  0.07863  Biso   1.000  C
  C339     1.0000 0.91407  0.46453  0.07863  Biso   1.000  C
  C340     1.0000 0.20213  0.78287  0.41197  Biso   1.000  C
  C341     1.0000 0.21713  0.41927  0.41197  Biso   1.000  C
  C342     1.0000 0.58073  0.79787  0.41197  Biso   1.000  C
  H325     1.0000 0.08770  0.85430  0.25080  Biso   1.000  H
  H326     1.0000 0.14570  0.23340  0.25080  Biso   1.000  H
  H327     1.0000 0.76660  0.91230  0.25080  Biso   1.000  H
  H328     1.0000 0.75437  0.18763  0.58413  Biso   1.000  H
  H329     1.0000 0.81237  0.56673  0.58413  Biso   1.000  H
  H330     1.0000 0.43327  0.24563  0.58413  Biso   1.000  H
  H331     1.0000 0.42103  0.52097  0.91747  Biso   1.000  H
  H332     1.0000 0.47903  0.90007  0.91747  Biso   1.000  H
  H333     1.0000 0.09993  0.57897  0.91747  Biso   1.000  H
  H334     1.0000 0.91230  0.14570  0.74920  Biso   1.000  H
  H335     1.0000 0.85430  0.76660  0.74920  Biso   1.000  H
  H336     1.0000 0.23340  0.08770  0.74920  Biso   1.000  H
  H337     1.0000 0.57897  0.47903  0.08253  Biso   1.000  H
  H338     1.0000 0.52097  0.09993  0.08253  Biso   1.000  H
  H339     1.0000 0.90007  0.42103  0.08253  Biso   1.000  H
  H340     1.0000 0.24563  0.81237  0.41587  Biso   1.000  H
  H341     1.0000 0.18763  0.43327  0.41587  Biso   1.000  H
  H342     1.0000 0.56673  0.75437  0.41587  Biso   1.000  H
  C343     1.0000 0.15140  0.94820  0.25130  Biso   1.000  C
  C344     1.0000 0.05180  0.20320  0.25130  Biso   1.000  C
  C345     1.0000 0.79680  0.84860  0.25130  Biso   1.000  C
  C346     1.0000 0.81807  0.28153  0.58463  Biso   1.000  C
  C347     1.0000 0.71847  0.53653  0.58463  Biso   1.000  C
  C348     1.0000 0.46347  0.18193  0.58463  Biso   1.000  C
  C349     1.0000 0.48473  0.61487  0.91797  Biso   1.000  C
  C350     1.0000 0.38513  0.86987  0.91797  Biso   1.000  C
  C351     1.0000 0.13013  0.51527  0.91797  Biso   1.000  C
  C352     1.0000 0.84860  0.05180  0.74870  Biso   1.000  C
  C353     1.0000 0.94820  0.79680  0.74870  Biso   1.000  C
  C354     1.0000 0.20320  0.15140  0.74870  Biso   1.000  C
  C355     1.0000 0.51527  0.38513  0.08203  Biso   1.000  C
  C356     1.0000 0.61487  0.13013  0.08203  Biso   1.000  C
  C357     1.0000 0.86987  0.48473  0.08203  Biso   1.000  C
  C358     1.0000 0.18193  0.71847  0.41537  Biso   1.000  C
  C359     1.0000 0.28153  0.46347  0.41537  Biso   1.000  C
  C360     1.0000 0.53653  0.81807  0.41537  Biso   1.000  C
  H343     1.0000 0.12180  0.96170  0.24510  Biso   1.000  H
  H344     1.0000 0.03830  0.16010  0.24510  Biso   1.000  H
  H345     1.0000 0.83990  0.87820  0.24510  Biso   1.000  H
  H346     1.0000 0.78847  0.29503  0.57843  Biso   1.000  H
  H347     1.0000 0.70497  0.49343  0.57843  Biso   1.000  H
  H348     1.0000 0.50657  0.21153  0.57843  Biso   1.000  H
  H349     1.0000 0.45513  0.62837  0.91177  Biso   1.000  H
  H350     1.0000 0.37163  0.82677  0.91177  Biso   1.000  H
  H351     1.0000 0.17323  0.54487  0.91177  Biso   1.000  H
  H352     1.0000 0.87820  0.03830  0.75490  Biso   1.000  H
  H353     1.0000 0.96170  0.83990  0.75490  Biso   1.000  H
  H354     1.0000 0.16010  0.12180  0.75490  Biso   1.000  H
  H355     1.0000 0.54487  0.37163  0.08823  Biso   1.000  H
  H356     1.0000 0.62837  0.17323  0.08823  Biso   1.000  H
  H357     1.0000 0.82677  0.45513  0.08823  Biso   1.000  H
  H358     1.0000 0.21153  0.70497  0.42157  Biso   1.000  H
  H359     1.0000 0.29503  0.50657  0.42157  Biso   1.000  H
  H360     1.0000 0.49343  0.78847  0.42157  Biso   1.000  H
  C361     1.0000 0.90900  0.52610  0.34150  Biso   1.000  C
  C362     1.0000 0.47390  0.38290  0.34150  Biso   1.000  C
  C363     1.0000 0.61710  0.09100  0.34150  Biso   1.000  C
  C364     1.0000 0.57567  0.85943  0.67483  Biso   1.000  C
  C365     1.0000 0.14057  0.71623  0.67483  Biso   1.000  C
  C366     1.0000 0.28377  0.42433  0.67483  Biso   1.000  C
  C367     1.0000 0.24233  0.19277  0.00817  Biso   1.000  C
  C368     1.0000 0.80723  0.04957  0.00817  Biso   1.000  C
  C369     1.0000 0.95043  0.75767  0.00817  Biso   1.000  C
  C370     1.0000 0.09100  0.47390  0.65850  Biso   1.000  C
  C371     1.0000 0.52610  0.61710  0.65850  Biso   1.000  C
  C372     1.0000 0.38290  0.90900  0.65850  Biso   1.000  C
  C373     1.0000 0.75767  0.80723  0.99183  Biso   1.000  C
  C374     1.0000 0.19277  0.95043  0.99183  Biso   1.000  C
  C375     1.0000 0.04957  0.24233  0.99183  Biso   1.000  C
  C376     1.0000 0.42433  0.14057  0.32517  Biso   1.000  C
  C377     1.0000 0.85943  0.28377  0.32517  Biso   1.000  C
  C378     1.0000 0.71623  0.57567  0.32517  Biso   1.000  C
  C379     1.0000 0.85360  0.52580  0.31920  Biso   1.000  C
  C380     1.0000 0.47420  0.32780  0.31920  Biso   1.000  C
  C381     1.0000 0.67220  0.14640  0.31920  Biso   1.000  C
  C382     1.0000 0.52027  0.85913  0.65253  Biso   1.000  C
  C383     1.0000 0.14087  0.66113  0.65253  Biso   1.000  C
  C384     1.0000 0.33887  0.47973  0.65253  Biso   1.000  C
  C385     1.0000 0.18693  0.19247  0.98587  Biso   1.000  C
  C386     1.0000 0.80753  0.99447  0.98587  Biso   1.000  C
  C387     1.0000 0.00553  0.81307  0.98587  Biso   1.000  C
  C388     1.0000 0.14640  0.47420  0.68080  Biso   1.000  C
  C389     1.0000 0.52580  0.67220  0.68080  Biso   1.000  C
  C390     1.0000 0.32780  0.85360  0.68080  Biso   1.000  C
  C391     1.0000 0.81307  0.80753  0.01413  Biso   1.000  C
  C392     1.0000 0.19247  0.00553  0.01413  Biso   1.000  C
  C393     1.0000 0.99447  0.18693  0.01413  Biso   1.000  C
  C394     1.0000 0.47973  0.14087  0.34747  Biso   1.000  C
  C395     1.0000 0.85913  0.33887  0.34747  Biso   1.000  C
  C396     1.0000 0.66113  0.52027  0.34747  Biso   1.000  C
  H361     1.0000 0.84290  0.50300  0.28730  Biso   1.000  H
  H362     1.0000 0.49700  0.33990  0.28730  Biso   1.000  H
  H363     1.0000 0.66010  0.15710  0.28730  Biso   1.000  H
  H364     1.0000 0.50957  0.83633  0.62063  Biso   1.000  H
  H365     1.0000 0.16367  0.67323  0.62063  Biso   1.000  H
  H366     1.0000 0.32677  0.49043  0.62063  Biso   1.000  H
  H367     1.0000 0.17623  0.16967  0.95397  Biso   1.000  H
  H368     1.0000 0.83033  0.00657  0.95397  Biso   1.000  H
  H369     1.0000 0.99343  0.82377  0.95397  Biso   1.000  H
  H370     1.0000 0.15710  0.49700  0.71270  Biso   1.000  H
  H371     1.0000 0.50300  0.66010  0.71270  Biso   1.000  H
  H372     1.0000 0.33990  0.84290  0.71270  Biso   1.000  H
  H373     1.0000 0.82377  0.83033  0.04603  Biso   1.000  H
  H374     1.0000 0.16967  0.99343  0.04603  Biso   1.000  H
  H375     1.0000 0.00657  0.17623  0.04603  Biso   1.000  H
  H376     1.0000 0.49043  0.16367  0.37937  Biso   1.000  H
  H377     1.0000 0.83633  0.32677  0.37937  Biso   1.000  H
  H378     1.0000 0.67323  0.50957  0.37937  Biso   1.000  H
  H379     1.0000 0.81780  0.50510  0.34230  Biso   1.000  H
  H380     1.0000 0.49490  0.31270  0.34230  Biso   1.000  H
  H381     1.0000 0.68730  0.18220  0.34230  Biso   1.000  H
  H382     1.0000 0.48447  0.83843  0.67563  Biso   1.000  H
  H383     1.0000 0.16157  0.64603  0.67563  Biso   1.000  H
  H384     1.0000 0.35397  0.51553  0.67563  Biso   1.000  H
  H385     1.0000 0.15113  0.17177  0.00897  Biso   1.000  H
  H386     1.0000 0.82823  0.97937  0.00897  Biso   1.000  H
  H387     1.0000 0.02063  0.84887  0.00897  Biso   1.000  H
  H388     1.0000 0.18220  0.49490  0.65770  Biso   1.000  H
  H389     1.0000 0.50510  0.68730  0.65770  Biso   1.000  H
  H390     1.0000 0.31270  0.81780  0.65770  Biso   1.000  H
  H391     1.0000 0.84887  0.82823  0.99103  Biso   1.000  H
  H392     1.0000 0.17177  0.02063  0.99103  Biso   1.000  H
  H393     1.0000 0.97937  0.15113  0.99103  Biso   1.000  H
  H394     1.0000 0.51553  0.16157  0.32437  Biso   1.000  H
  H395     1.0000 0.83843  0.35397  0.32437  Biso   1.000  H
  H396     1.0000 0.64603  0.48447  0.32437  Biso   1.000  H
  H397     1.0000 0.86340  0.56930  0.31340  Biso   1.000  H
  H398     1.0000 0.43070  0.29410  0.31340  Biso   1.000  H
  H399     1.0000 0.70590  0.13660  0.31340  Biso   1.000  H
  H400     1.0000 0.53007  0.90263  0.64673  Biso   1.000  H
  H401     1.0000 0.09737  0.62743  0.64673  Biso   1.000  H
  H402     1.0000 0.37257  0.46993  0.64673  Biso   1.000  H
  H403     1.0000 0.19673  0.23597  0.98007  Biso   1.000  H
  H404     1.0000 0.76403  0.96077  0.98007  Biso   1.000  H
  H405     1.0000 0.03923  0.80327  0.98007  Biso   1.000  H
  H406     1.0000 0.13660  0.43070  0.68660  Biso   1.000  H
  H407     1.0000 0.56930  0.70590  0.68660  Biso   1.000  H
  H408     1.0000 0.29410  0.86340  0.68660  Biso   1.000  H
  H409     1.0000 0.80327  0.76403  0.01993  Biso   1.000  H
  H410     1.0000 0.23597  0.03923  0.01993  Biso   1.000  H
  H411     1.0000 0.96077  0.19673  0.01993  Biso   1.000  H
  H412     1.0000 0.46993  0.09737  0.35327  Biso   1.000  H
  H413     1.0000 0.90263  0.37257  0.35327  Biso   1.000  H
  H414     1.0000 0.62743  0.53007  0.35327  Biso   1.000  H
  C397     1.0000 0.22630  0.58860  0.38660  Biso   1.000  C
  C398     1.0000 0.41140  0.63770  0.38660  Biso   1.000  C
  C399     1.0000 0.36230  0.77370  0.38660  Biso   1.000  C
  C400     1.0000 0.89297  0.92193  0.71993  Biso   1.000  C
  C401     1.0000 0.07807  0.97103  0.71993  Biso   1.000  C
  C402     1.0000 0.02897  0.10703  0.71993  Biso   1.000  C
  C403     1.0000 0.55963  0.25527  0.05327  Biso   1.000  C
  C404     1.0000 0.74473  0.30437  0.05327  Biso   1.000  C
  C405     1.0000 0.69563  0.44037  0.05327  Biso   1.000  C
  C406     1.0000 0.77370  0.41140  0.61340  Biso   1.000  C
  C407     1.0000 0.58860  0.36230  0.61340  Biso   1.000  C
  C408     1.0000 0.63770  0.22630  0.61340  Biso   1.000  C
  C409     1.0000 0.44037  0.74473  0.94673  Biso   1.000  C
  C410     1.0000 0.25527  0.69563  0.94673  Biso   1.000  C
  C411     1.0000 0.30437  0.55963  0.94673  Biso   1.000  C
  C412     1.0000 0.10703  0.07807  0.28007  Biso   1.000  C
  C413     1.0000 0.92193  0.02897  0.28007  Biso   1.000  C
  C414     1.0000 0.97103  0.89297  0.28007  Biso   1.000  C
  C415     1.0000 0.46110  0.72700  0.53040  Biso   1.000  C
  C416     1.0000 0.27300  0.73410  0.53040  Biso   1.000  C
  C417     1.0000 0.26590  0.53890  0.53040  Biso   1.000  C
  C418     1.0000 0.12777  0.06033  0.86373  Biso   1.000  C
  C419     1.0000 0.93967  0.06743  0.86373  Biso   1.000  C
  C420     1.0000 0.93257  0.87223  0.86373  Biso   1.000  C
  C421     1.0000 0.79443  0.39367  0.19707  Biso   1.000  C
  C422     1.0000 0.60633  0.40077  0.19707  Biso   1.000  C
  C423     1.0000 0.59923  0.20557  0.19707  Biso   1.000  C
  C424     1.0000 0.53890  0.27300  0.46960  Biso   1.000  C
  C425     1.0000 0.72700  0.26590  0.46960  Biso   1.000  C
  C426     1.0000 0.73410  0.46110  0.46960  Biso   1.000  C
  C427     1.0000 0.20557  0.60633  0.80293  Biso   1.000  C
  C428     1.0000 0.39367  0.59923  0.80293  Biso   1.000  C
  C429     1.0000 0.40077  0.79443  0.80293  Biso   1.000  C
  C430     1.0000 0.87223  0.93967  0.13627  Biso   1.000  C
  C431     1.0000 0.06033  0.93257  0.13627  Biso   1.000  C
  C432     1.0000 0.06743  0.12777  0.13627  Biso   1.000  C
  N1       1.0000 0.03317  0.47090  0.30158  Biso   1.000  N
  N2       1.0000 0.52910  0.56227  0.30158  Biso   1.000  N
  N3       1.0000 0.43773  0.96683  0.30158  Biso   1.000  N
  N4       1.0000 0.69984  0.80423  0.63491  Biso   1.000  N
  N5       1.0000 0.19577  0.89560  0.63491  Biso   1.000  N
  N6       1.0000 0.10440  0.30016  0.63491  Biso   1.000  N
  N7       1.0000 0.36650  0.13757  0.96825  Biso   1.000  N
  N8       1.0000 0.86243  0.22894  0.96825  Biso   1.000  N
  N9       1.0000 0.77106  0.63350  0.96825  Biso   1.000  N
  N10      1.0000 0.96683  0.52910  0.69842  Biso   1.000  N
  N11      1.0000 0.47090  0.43773  0.69842  Biso   1.000  N
  N12      1.0000 0.56227  0.03317  0.69842  Biso   1.000  N
  N13      1.0000 0.63350  0.86243  0.03175  Biso   1.000  N
  N14      1.0000 0.13757  0.77106  0.03175  Biso   1.000  N
  N15      1.0000 0.22894  0.36650  0.03175  Biso   1.000  N
  N16      1.0000 0.30016  0.19577  0.36509  Biso   1.000  N
  N17      1.0000 0.80423  0.10440  0.36509  Biso   1.000  N
  N18      1.0000 0.89560  0.69984  0.36509  Biso   1.000  N
  N19      1.0000 0.07934  0.59137  0.28521  Biso   1.000  N
  N20      1.0000 0.40863  0.48797  0.28521  Biso   1.000  N
  N21      1.0000 0.51203  0.92066  0.28521  Biso   1.000  N
  N22      1.0000 0.74601  0.92470  0.61854  Biso   1.000  N
  N23      1.0000 0.07530  0.82130  0.61854  Biso   1.000  N
  N24      1.0000 0.17870  0.25399  0.61854  Biso   1.000  N
  N25      1.0000 0.41267  0.25804  0.95188  Biso   1.000  N
  N26      1.0000 0.74196  0.15464  0.95188  Biso   1.000  N
  N27      1.0000 0.84536  0.58733  0.95188  Biso   1.000  N
  N28      1.0000 0.92066  0.40863  0.71479  Biso   1.000  N
  N29      1.0000 0.59137  0.51203  0.71479  Biso   1.000  N
  N30      1.0000 0.48797  0.07934  0.71479  Biso   1.000  N
  N31      1.0000 0.58733  0.74196  0.04812  Biso   1.000  N
  N32      1.0000 0.25804  0.84536  0.04812  Biso   1.000  N
  N33      1.0000 0.15464  0.41267  0.04812  Biso   1.000  N
  N34      1.0000 0.25399  0.07530  0.38146  Biso   1.000  N
  N35      1.0000 0.92470  0.17870  0.38146  Biso   1.000  N
  N36      1.0000 0.82130  0.74601  0.38146  Biso   1.000  N
  N37      1.0000 0.28560  0.18276  0.25538  Biso   1.000  N
  N38      1.0000 0.81724  0.10284  0.25538  Biso   1.000  N
  N39      1.0000 0.89716  0.71440  0.25538  Biso   1.000  N
  N40      1.0000 0.95227  0.51609  0.58871  Biso   1.000  N
  N41      1.0000 0.48391  0.43617  0.58871  Biso   1.000  N
  N42      1.0000 0.56383  0.04773  0.58871  Biso   1.000  N
  N43      1.0000 0.61893  0.84943  0.92205  Biso   1.000  N
  N44      1.0000 0.15057  0.76951  0.92205  Biso   1.000  N
  N45      1.0000 0.23049  0.38107  0.92205  Biso   1.000  N
  N46      1.0000 0.71440  0.81724  0.74462  Biso   1.000  N
  N47      1.0000 0.18276  0.89716  0.74462  Biso   1.000  N
  N48      1.0000 0.10284  0.28560  0.74462  Biso   1.000  N
  N49      1.0000 0.38107  0.15057  0.07795  Biso   1.000  N
  N50      1.0000 0.84943  0.23049  0.07795  Biso   1.000  N
  N51      1.0000 0.76951  0.61893  0.07795  Biso   1.000  N
  N52      1.0000 0.04773  0.48391  0.41129  Biso   1.000  N
  N53      1.0000 0.51609  0.56383  0.41129  Biso   1.000  N
  N54      1.0000 0.43617  0.95227  0.41129  Biso   1.000  N
  N55      1.0000 0.23796  0.06055  0.25515  Biso   1.000  N
  N56      1.0000 0.93945  0.17741  0.25515  Biso   1.000  N
  N57      1.0000 0.82259  0.76204  0.25515  Biso   1.000  N
  N58      1.0000 0.90463  0.39388  0.58848  Biso   1.000  N
  N59      1.0000 0.60612  0.51074  0.58848  Biso   1.000  N
  N60      1.0000 0.48926  0.09537  0.58848  Biso   1.000  N
  N61      1.0000 0.57129  0.72722  0.92182  Biso   1.000  N
  N62      1.0000 0.27278  0.84408  0.92182  Biso   1.000  N
  N63      1.0000 0.15592  0.42871  0.92182  Biso   1.000  N
  N64      1.0000 0.76204  0.93945  0.74485  Biso   1.000  N
  N65      1.0000 0.06055  0.82259  0.74485  Biso   1.000  N
  N66      1.0000 0.17741  0.23796  0.74485  Biso   1.000  N
  N67      1.0000 0.42871  0.27278  0.07818  Biso   1.000  N
  N68      1.0000 0.72722  0.15592  0.07818  Biso   1.000  N
  N69      1.0000 0.84408  0.57129  0.07818  Biso   1.000  N
  N70      1.0000 0.09537  0.60612  0.41152  Biso   1.000  N
  N71      1.0000 0.39388  0.48926  0.41152  Biso   1.000  N
  N72      1.0000 0.51074  0.90463  0.41152  Biso   1.000  N
  N73      1.0000 0.95410  0.52940  0.35480  Biso   1.000  N
  N74      1.0000 0.47060  0.42470  0.35480  Biso   1.000  N
  N75      1.0000 0.57530  0.04590  0.35480  Biso   1.000  N
  N76      1.0000 0.62077  0.86273  0.68813  Biso   1.000  N
  N77      1.0000 0.13727  0.75803  0.68813  Biso   1.000  N
  N78      1.0000 0.24197  0.37923  0.68813  Biso   1.000  N
  N79      1.0000 0.28743  0.19607  0.02147  Biso   1.000  N
  N80      1.0000 0.80393  0.09137  0.02147  Biso   1.000  N
  N81      1.0000 0.90863  0.71257  0.02147  Biso   1.000  N
  N82      1.0000 0.04590  0.47060  0.64520  Biso   1.000  N
  N83      1.0000 0.52940  0.57530  0.64520  Biso   1.000  N
  N84      1.0000 0.42470  0.95410  0.64520  Biso   1.000  N
  N85      1.0000 0.71257  0.80393  0.97853  Biso   1.000  N
  N86      1.0000 0.19607  0.90863  0.97853  Biso   1.000  N
  N87      1.0000 0.09137  0.28743  0.97853  Biso   1.000  N
  N88      1.0000 0.37923  0.13727  0.31187  Biso   1.000  N
  N89      1.0000 0.86273  0.24197  0.31187  Biso   1.000  N
  N90      1.0000 0.75803  0.62077  0.31187  Biso   1.000  N
  N91      1.0000 0.25620  0.61820  0.42100  Biso   1.000  N
  N92      1.0000 0.38180  0.63800  0.42100  Biso   1.000  N
  N93      1.0000 0.36200  0.74380  0.42100  Biso   1.000  N
  N94      1.0000 0.92287  0.95153  0.75433  Biso   1.000  N
  N95      1.0000 0.04847  0.97133  0.75433  Biso   1.000  N
  N96      1.0000 0.02867  0.07713  0.75433  Biso   1.000  N
  N97      1.0000 0.58953  0.28487  0.08767  Biso   1.000  N
  N98      1.0000 0.71513  0.30467  0.08767  Biso   1.000  N
  N99      1.0000 0.69533  0.41047  0.08767  Biso   1.000  N
  N100     1.0000 0.74380  0.38180  0.57900  Biso   1.000  N
  N101     1.0000 0.61820  0.36200  0.57900  Biso   1.000  N
  N102     1.0000 0.63800  0.25620  0.57900  Biso   1.000  N
  N103     1.0000 0.41047  0.71513  0.91233  Biso   1.000  N
  N104     1.0000 0.28487  0.69533  0.91233  Biso   1.000  N
  N105     1.0000 0.30467  0.58953  0.91233  Biso   1.000  N
  N106     1.0000 0.07713  0.04847  0.24567  Biso   1.000  N
  N107     1.0000 0.95153  0.02867  0.24567  Biso   1.000  N
  N108     1.0000 0.97133  0.92287  0.24567  Biso   1.000  N
  N109     1.0000 0.41250  0.71090  0.51020  Biso   1.000  N
  N110     1.0000 0.28910  0.70160  0.51020  Biso   1.000  N
  N111     1.0000 0.29840  0.58750  0.51020  Biso   1.000  N
  N112     1.0000 0.07917  0.04423  0.84353  Biso   1.000  N
  N113     1.0000 0.95577  0.03493  0.84353  Biso   1.000  N
  N114     1.0000 0.96507  0.92083  0.84353  Biso   1.000  N
  N115     1.0000 0.74583  0.37757  0.17687  Biso   1.000  N
  N116     1.0000 0.62243  0.36827  0.17687  Biso   1.000  N
  N117     1.0000 0.63173  0.25417  0.17687  Biso   1.000  N
  N118     1.0000 0.58750  0.28910  0.48980  Biso   1.000  N
  N119     1.0000 0.71090  0.29840  0.48980  Biso   1.000  N
  N120     1.0000 0.70160  0.41250  0.48980  Biso   1.000  N
  N121     1.0000 0.25417  0.62243  0.82313  Biso   1.000  N
  N122     1.0000 0.37757  0.63173  0.82313  Biso   1.000  N
  N123     1.0000 0.36827  0.74583  0.82313  Biso   1.000  N
  N124     1.0000 0.92083  0.95577  0.15647  Biso   1.000  N
  N125     1.0000 0.04423  0.96507  0.15647  Biso   1.000  N
  N126     1.0000 0.03493  0.07917  0.15647  Biso   1.000  N
  O1       1.0000 0.01193  0.40942  0.31415  Biso   1.000  O
  O2       1.0000 0.59058  0.60251  0.31415  Biso   1.000  O
  O3       1.0000 0.39749  0.98807  0.31415  Biso   1.000  O
  O4       1.0000 0.67860  0.74275  0.64748  Biso   1.000  O
  O5       1.0000 0.25725  0.93584  0.64748  Biso   1.000  O
  O6       1.0000 0.06416  0.32140  0.64748  Biso   1.000  O
  O7       1.0000 0.34526  0.07609  0.98082  Biso   1.000  O
  O8       1.0000 0.92391  0.26918  0.98082  Biso   1.000  O
  O9       1.0000 0.73082  0.65474  0.98082  Biso   1.000  O
  O10      1.0000 0.98807  0.59058  0.68585  Biso   1.000  O
  O11      1.0000 0.40942  0.39749  0.68585  Biso   1.000  O
  O12      1.0000 0.60251  0.01193  0.68585  Biso   1.000  O
  O13      1.0000 0.65474  0.92391  0.01918  Biso   1.000  O
  O14      1.0000 0.07609  0.73082  0.01918  Biso   1.000  O
  O15      1.0000 0.26918  0.34526  0.01918  Biso   1.000  O
  O16      1.0000 0.32140  0.25725  0.35252  Biso   1.000  O
  O17      1.0000 0.74275  0.06416  0.35252  Biso   1.000  O
  O18      1.0000 0.93584  0.67860  0.35252  Biso   1.000  O
  O19      1.0000 0.31100  0.24637  0.25993  Biso   1.000  O
  O20      1.0000 0.75363  0.06463  0.25993  Biso   1.000  O
  O21      1.0000 0.93537  0.68900  0.25993  Biso   1.000  O
  O22      1.0000 0.97767  0.57970  0.59326  Biso   1.000  O
  O23      1.0000 0.42030  0.39796  0.59326  Biso   1.000  O
  O24      1.0000 0.60204  0.02233  0.59326  Biso   1.000  O
  O25      1.0000 0.64433  0.91304  0.92660  Biso   1.000  O
  O26      1.0000 0.08696  0.73130  0.92660  Biso   1.000  O
  O27      1.0000 0.26870  0.35567  0.92660  Biso   1.000  O
  O28      1.0000 0.68900  0.75363  0.74007  Biso   1.000  O
  O29      1.0000 0.24637  0.93537  0.74007  Biso   1.000  O
  O30      1.0000 0.06463  0.31100  0.74007  Biso   1.000  O
  O31      1.0000 0.35567  0.08696  0.07340  Biso   1.000  O
  O32      1.0000 0.91304  0.26870  0.07340  Biso   1.000  O
  O33      1.0000 0.73130  0.64433  0.07340  Biso   1.000  O
  O34      1.0000 0.02233  0.42030  0.40674  Biso   1.000  O
  O35      1.0000 0.57970  0.60204  0.40674  Biso   1.000  O
  O36      1.0000 0.39796  0.97767  0.40674  Biso   1.000  O
  H415     1.0000 0.32350  0.25730  0.28940  Biso   1.000  H
  H416     1.0000 0.74270  0.06620  0.28940  Biso   1.000  H
  H417     1.0000 0.93380  0.67650  0.28940  Biso   1.000  H
  H418     1.0000 0.99017  0.59063  0.62273  Biso   1.000  H
  H419     1.0000 0.40937  0.39953  0.62273  Biso   1.000  H
  H420     1.0000 0.60047  0.00983  0.62273  Biso   1.000  H
  H421     1.0000 0.65683  0.92397  0.95607  Biso   1.000  H
  H422     1.0000 0.07603  0.73287  0.95607  Biso   1.000  H
  H423     1.0000 0.26713  0.34317  0.95607  Biso   1.000  H
  H424     1.0000 0.67650  0.74270  0.71060  Biso   1.000  H
  H425     1.0000 0.25730  0.93380  0.71060  Biso   1.000  H
  H426     1.0000 0.06620  0.32350  0.71060  Biso   1.000  H
  H427     1.0000 0.34317  0.07603  0.04393  Biso   1.000  H
  H428     1.0000 0.92397  0.26713  0.04393  Biso   1.000  H
  H429     1.0000 0.73287  0.65683  0.04393  Biso   1.000  H
  H430     1.0000 0.00983  0.40937  0.37727  Biso   1.000  H
  H431     1.0000 0.59063  0.60047  0.37727  Biso   1.000  H
  H432     1.0000 0.39953  0.99017  0.37727  Biso   1.000  H
  S1       1.0000 0.18461  0.54724  0.33788  Biso   1.000  S
  S2       1.0000 0.45276  0.63737  0.33788  Biso   1.000  S
  S3       1.0000 0.36263  0.81539  0.33788  Biso   1.000  S
  S4       1.0000 0.85128  0.88057  0.67121  Biso   1.000  S
  S5       1.0000 0.11943  0.97070  0.67121  Biso   1.000  S
  S6       1.0000 0.02930  0.14872  0.67121  Biso   1.000  S
  S7       1.0000 0.51794  0.21391  0.00455  Biso   1.000  S
  S8       1.0000 0.78609  0.30404  0.00455  Biso   1.000  S
  S9       1.0000 0.69596  0.48206  0.00455  Biso   1.000  S
  S10      1.0000 0.81539  0.45276  0.66212  Biso   1.000  S
  S11      1.0000 0.54724  0.36263  0.66212  Biso   1.000  S
  S12      1.0000 0.63737  0.18461  0.66212  Biso   1.000  S
  S13      1.0000 0.48206  0.78609  0.99545  Biso   1.000  S
  S14      1.0000 0.21391  0.69596  0.99545  Biso   1.000  S
  S15      1.0000 0.30404  0.51794  0.99545  Biso   1.000  S
  S16      1.0000 0.14872  0.11943  0.32879  Biso   1.000  S
  S17      1.0000 0.88057  0.02930  0.32879  Biso   1.000  S
  S18      1.0000 0.97070  0.85128  0.32879  Biso   1.000  S
  S19      1.0000 0.53024  0.75319  0.55708  Biso   1.000  S
  S20      1.0000 0.24681  0.77705  0.55708  Biso   1.000  S
  S21      1.0000 0.22295  0.46976  0.55708  Biso   1.000  S
  S22      1.0000 0.19691  0.08652  0.89041  Biso   1.000  S
  S23      1.0000 0.91348  0.11038  0.89041  Biso   1.000  S
  S24      1.0000 0.88962  0.80309  0.89041  Biso   1.000  S
  S25      1.0000 0.86357  0.41986  0.22375  Biso   1.000  S
  S26      1.0000 0.58014  0.44372  0.22375  Biso   1.000  S
  S27      1.0000 0.55628  0.13643  0.22375  Biso   1.000  S
  S28      1.0000 0.46976  0.24681  0.44292  Biso   1.000  S
  S29      1.0000 0.75319  0.22295  0.44292  Biso   1.000  S
  S30      1.0000 0.77705  0.53024  0.44292  Biso   1.000  S
  S31      1.0000 0.13643  0.58014  0.77625  Biso   1.000  S
  S32      1.0000 0.41986  0.55628  0.77625  Biso   1.000  S
  S33      1.0000 0.44372  0.86357  0.77625  Biso   1.000  S
  S34      1.0000 0.80309  0.91348  0.10959  Biso   1.000  S
  S35      1.0000 0.08652  0.88962  0.10959  Biso   1.000  S
  S36      1.0000 0.11038  0.19691  0.10959  Biso   1.000  S
  Cr1      1.0000 0.33330  0.66670  0.46720  Biso   1.000  Cr
  Cr2      1.0000 0.99997  0.00003  0.80053  Biso   1.000  Cr
  Cr3      1.0000 0.66663  0.33337  0.13387  Biso   1.000  Cr
  Cr4      1.0000 0.66670  0.33330  0.53280  Biso   1.000  Cr
  Cr5      1.0000 0.33337  0.66663  0.86613  Biso   1.000  Cr
  Cr6      1.0000 0.00003  0.99997  0.19947  Biso   1.000  Cr
  Cu1      1.0000 0.06342  0.54213  0.35252  Biso   1.000  Cu
  Cu2      1.0000 0.45787  0.52129  0.35252  Biso   1.000  Cu
  Cu3      1.0000 0.47871  0.93658  0.35252  Biso   1.000  Cu
  Cu4      1.0000 0.73009  0.87546  0.68585  Biso   1.000  Cu
  Cu5      1.0000 0.12454  0.85462  0.68585  Biso   1.000  Cu
  Cu6      1.0000 0.14538  0.26991  0.68585  Biso   1.000  Cu
  Cu7      1.0000 0.39675  0.20880  0.01919  Biso   1.000  Cu
  Cu8      1.0000 0.79120  0.18796  0.01919  Biso   1.000  Cu
  Cu9      1.0000 0.81204  0.60325  0.01919  Biso   1.000  Cu
  Cu10     1.0000 0.93658  0.45787  0.64748  Biso   1.000  Cu
  Cu11     1.0000 0.54213  0.47871  0.64748  Biso   1.000  Cu
  Cu12     1.0000 0.52129  0.06342  0.64748  Biso   1.000  Cu
  Cu13     1.0000 0.60325  0.79120  0.98081  Biso   1.000  Cu
  Cu14     1.0000 0.20880  0.81204  0.98081  Biso   1.000  Cu
  Cu15     1.0000 0.18796  0.39675  0.98081  Biso   1.000  Cu
  Cu16     1.0000 0.26991  0.12454  0.31415  Biso   1.000  Cu
  Cu17     1.0000 0.87546  0.14538  0.31415  Biso   1.000  Cu
  Cu18     1.0000 0.85462  0.73009  0.31415  Biso   1.000  Cu
  O37      1.0000 0.00000  0.00000  0.40790  Biso   1.000  O
  O38      1.0000 0.66667  0.33333  0.74123  Biso   1.000  O
  O39      1.0000 0.33333  0.66667  0.07457  Biso   1.000  O
  O40      1.0000 0.00000  0.00000  0.59210  Biso   1.000  O
  O41      1.0000 0.66667  0.33333  0.92543  Biso   1.000  O
  O42      1.0000 0.33333  0.66667  0.25877  Biso   1.000  O
