data_image0
_cell_length_a       9.7733
_cell_length_b       24.1003
_cell_length_c       37.2051
_cell_angle_alpha    90
_cell_angle_beta     90
_cell_angle_gamma    90

_symmetry_space_group_name_H-M    "P 1"
_symmetry_int_tables_number       1

loop_
  _symmetry_equiv_pos_as_xyz
  'x, y, z'

loop_
  _atom_site_label
  _atom_site_occupancy
  _atom_site_fract_x
  _atom_site_fract_y
  _atom_site_fract_z
  _atom_site_thermal_displace_type
  _atom_site_B_iso_or_equiv
  _atom_site_type_symbol
  Cu1      1.0000 0.37500  0.12996  0.37500  Biso   1.000  Cu
  Cu2      1.0000 0.87500  0.12004  0.37500  Biso   1.000  Cu
  Cu3      1.0000 0.37500  0.12004  0.87500  Biso   1.000  Cu
  Cu4      1.0000 0.87500  0.12996  0.87500  Biso   1.000  Cu
  Cu5      1.0000 0.37500  0.62996  0.87500  Biso   1.000  Cu
  Cu6      1.0000 0.87500  0.62004  0.87500  Biso   1.000  Cu
  Cu7      1.0000 0.37500  0.62004  0.37500  Biso   1.000  Cu
  Cu8      1.0000 0.87500  0.62996  0.37500  Biso   1.000  Cu
  Cu9      1.0000 0.62500  0.87004  0.62500  Biso   1.000  Cu
  Cu10     1.0000 0.62500  0.37996  0.62500  Biso   1.000  Cu
  Cu11     1.0000 0.62500  0.37004  0.12500  Biso   1.000  Cu
  Cu12     1.0000 0.62500  0.87996  0.12500  Biso   1.000  Cu
  Cu13     1.0000 0.12500  0.87004  0.12500  Biso   1.000  Cu
  Cu14     1.0000 0.12500  0.37996  0.12500  Biso   1.000  Cu
  Cu15     1.0000 0.12500  0.37004  0.62500  Biso   1.000  Cu
  Cu16     1.0000 0.12500  0.87996  0.62500  Biso   1.000  Cu
  N1       1.0000 0.12500  0.12500  0.39429  Biso   1.000  N
  N2       1.0000 0.12500  0.12500  0.85571  Biso   1.000  N
  N3       1.0000 0.12500  0.62500  0.89429  Biso   1.000  N
  N4       1.0000 0.12500  0.62500  0.35571  Biso   1.000  N
  N5       1.0000 0.62500  0.12500  0.89429  Biso   1.000  N
  N6       1.0000 0.62500  0.12500  0.35571  Biso   1.000  N
  N7       1.0000 0.62500  0.62500  0.39429  Biso   1.000  N
  N8       1.0000 0.62500  0.62500  0.85571  Biso   1.000  N
  N9       1.0000 0.87500  0.87500  0.60571  Biso   1.000  N
  N10      1.0000 0.37500  0.37500  0.60571  Biso   1.000  N
  N11      1.0000 0.87500  0.37500  0.64429  Biso   1.000  N
  N12      1.0000 0.37500  0.87500  0.64429  Biso   1.000  N
  N13      1.0000 0.87500  0.37500  0.10571  Biso   1.000  N
  N14      1.0000 0.37500  0.87500  0.10571  Biso   1.000  N
  N15      1.0000 0.87500  0.87500  0.14429  Biso   1.000  N
  N16      1.0000 0.37500  0.37500  0.14429  Biso   1.000  N
  N17      1.0000 0.40540  0.08078  0.41884  Biso   1.000  N
  N18      1.0000 0.84460  0.16922  0.41884  Biso   1.000  N
  N19      1.0000 0.40540  0.16922  0.83116  Biso   1.000  N
  N20      1.0000 0.84460  0.08078  0.83116  Biso   1.000  N
  N21      1.0000 0.40540  0.58078  0.91884  Biso   1.000  N
  N22      1.0000 0.84460  0.66922  0.91884  Biso   1.000  N
  N23      1.0000 0.40540  0.66922  0.33116  Biso   1.000  N
  N24      1.0000 0.84460  0.58078  0.33116  Biso   1.000  N
  N25      1.0000 0.90540  0.08078  0.91884  Biso   1.000  N
  N26      1.0000 0.34460  0.16922  0.91884  Biso   1.000  N
  N27      1.0000 0.90540  0.16922  0.33116  Biso   1.000  N
  N28      1.0000 0.34460  0.08078  0.33116  Biso   1.000  N
  N29      1.0000 0.90540  0.58078  0.41884  Biso   1.000  N
  N30      1.0000 0.34460  0.66922  0.41884  Biso   1.000  N
  N31      1.0000 0.90540  0.66922  0.83116  Biso   1.000  N
  N32      1.0000 0.34460  0.58078  0.83116  Biso   1.000  N
  N33      1.0000 0.59460  0.91922  0.58116  Biso   1.000  N
  N34      1.0000 0.65540  0.33078  0.58116  Biso   1.000  N
  N35      1.0000 0.59460  0.33078  0.66884  Biso   1.000  N
  N36      1.0000 0.65540  0.91922  0.66884  Biso   1.000  N
  N37      1.0000 0.59460  0.41922  0.08116  Biso   1.000  N
  N38      1.0000 0.65540  0.83078  0.08116  Biso   1.000  N
  N39      1.0000 0.59460  0.83078  0.16884  Biso   1.000  N
  N40      1.0000 0.65540  0.41922  0.16884  Biso   1.000  N
  N41      1.0000 0.09460  0.91922  0.08116  Biso   1.000  N
  N42      1.0000 0.15540  0.33078  0.08116  Biso   1.000  N
  N43      1.0000 0.09460  0.33078  0.16884  Biso   1.000  N
  N44      1.0000 0.15540  0.91922  0.16884  Biso   1.000  N
  N45      1.0000 0.09460  0.41922  0.58116  Biso   1.000  N
  N46      1.0000 0.15540  0.83078  0.58116  Biso   1.000  N
  N47      1.0000 0.09460  0.83078  0.66884  Biso   1.000  N
  N48      1.0000 0.15540  0.41922  0.66884  Biso   1.000  N
  C1       1.0000 0.38020  0.90599  0.42257  Biso   1.000  C
  C2       1.0000 0.86980  0.34401  0.42257  Biso   1.000  C
  C3       1.0000 0.38020  0.34401  0.82743  Biso   1.000  C
  C4       1.0000 0.86980  0.90599  0.82743  Biso   1.000  C
  C5       1.0000 0.38020  0.40599  0.92257  Biso   1.000  C
  C6       1.0000 0.86980  0.84401  0.92257  Biso   1.000  C
  C7       1.0000 0.38020  0.84401  0.32743  Biso   1.000  C
  C8       1.0000 0.86980  0.40599  0.32743  Biso   1.000  C
  C9       1.0000 0.88020  0.90599  0.92257  Biso   1.000  C
  C10      1.0000 0.36980  0.34401  0.92257  Biso   1.000  C
  C11      1.0000 0.88020  0.34401  0.32743  Biso   1.000  C
  C12      1.0000 0.36980  0.90599  0.32743  Biso   1.000  C
  C13      1.0000 0.88020  0.40599  0.42257  Biso   1.000  C
  C14      1.0000 0.36980  0.84401  0.42257  Biso   1.000  C
  C15      1.0000 0.88020  0.84401  0.82743  Biso   1.000  C
  C16      1.0000 0.36980  0.40599  0.82743  Biso   1.000  C
  C17      1.0000 0.61980  0.09401  0.57743  Biso   1.000  C
  C18      1.0000 0.63020  0.15599  0.57743  Biso   1.000  C
  C19      1.0000 0.61980  0.15599  0.67257  Biso   1.000  C
  C20      1.0000 0.63020  0.09401  0.67257  Biso   1.000  C
  C21      1.0000 0.61980  0.59401  0.07743  Biso   1.000  C
  C22      1.0000 0.63020  0.65599  0.07743  Biso   1.000  C
  C23      1.0000 0.61980  0.65599  0.17257  Biso   1.000  C
  C24      1.0000 0.63020  0.59401  0.17257  Biso   1.000  C
  C25      1.0000 0.11980  0.09401  0.07743  Biso   1.000  C
  C26      1.0000 0.13020  0.15599  0.07743  Biso   1.000  C
  C27      1.0000 0.11980  0.15599  0.17257  Biso   1.000  C
  C28      1.0000 0.13020  0.09401  0.17257  Biso   1.000  C
  C29      1.0000 0.11980  0.59401  0.57743  Biso   1.000  C
  C30      1.0000 0.13020  0.65599  0.57743  Biso   1.000  C
  C31      1.0000 0.11980  0.65599  0.67257  Biso   1.000  C
  C32      1.0000 0.13020  0.59401  0.67257  Biso   1.000  C
  C33      1.0000 0.41800  0.10849  0.44834  Biso   1.000  C
  C34      1.0000 0.83200  0.14151  0.44834  Biso   1.000  C
  C35      1.0000 0.41800  0.14151  0.80166  Biso   1.000  C
  C36      1.0000 0.83200  0.10849  0.80166  Biso   1.000  C
  C37      1.0000 0.41800  0.60849  0.94834  Biso   1.000  C
  C38      1.0000 0.83200  0.64151  0.94834  Biso   1.000  C
  C39      1.0000 0.41800  0.64151  0.30166  Biso   1.000  C
  C40      1.0000 0.83200  0.60849  0.30166  Biso   1.000  C
  C41      1.0000 0.91800  0.10849  0.94834  Biso   1.000  C
  C42      1.0000 0.33200  0.14151  0.94834  Biso   1.000  C
  C43      1.0000 0.91800  0.14151  0.30166  Biso   1.000  C
  C44      1.0000 0.33200  0.10849  0.30166  Biso   1.000  C
  C45      1.0000 0.91800  0.60849  0.44834  Biso   1.000  C
  C46      1.0000 0.33200  0.64151  0.44834  Biso   1.000  C
  C47      1.0000 0.91800  0.64151  0.80166  Biso   1.000  C
  C48      1.0000 0.33200  0.60849  0.80166  Biso   1.000  C
  C49      1.0000 0.58200  0.89151  0.55166  Biso   1.000  C
  C50      1.0000 0.66800  0.35849  0.55166  Biso   1.000  C
  C51      1.0000 0.58200  0.35849  0.69834  Biso   1.000  C
  C52      1.0000 0.66800  0.89151  0.69834  Biso   1.000  C
  C53      1.0000 0.58200  0.39151  0.05166  Biso   1.000  C
  C54      1.0000 0.66800  0.85849  0.05166  Biso   1.000  C
  C55      1.0000 0.58200  0.85849  0.19834  Biso   1.000  C
  C56      1.0000 0.66800  0.39151  0.19834  Biso   1.000  C
  C57      1.0000 0.08200  0.89151  0.05166  Biso   1.000  C
  C58      1.0000 0.16800  0.35849  0.05166  Biso   1.000  C
  C59      1.0000 0.08200  0.35849  0.19834  Biso   1.000  C
  C60      1.0000 0.16800  0.89151  0.19834  Biso   1.000  C
  C61      1.0000 0.08200  0.39151  0.55166  Biso   1.000  C
  C62      1.0000 0.16800  0.85849  0.55166  Biso   1.000  C
  C63      1.0000 0.08200  0.85849  0.69834  Biso   1.000  C
  C64      1.0000 0.16800  0.39151  0.69834  Biso   1.000  C
  O1       1.0000 0.38900  0.24191  0.40768  Biso   1.000  O
  O2       1.0000 0.86100  0.00809  0.40768  Biso   1.000  O
  O3       1.0000 0.38900  0.00809  0.84232  Biso   1.000  O
  O4       1.0000 0.86100  0.24191  0.84232  Biso   1.000  O
  O5       1.0000 0.38900  0.74191  0.90768  Biso   1.000  O
  O6       1.0000 0.86100  0.50809  0.90768  Biso   1.000  O
  O7       1.0000 0.38900  0.50809  0.34232  Biso   1.000  O
  O8       1.0000 0.86100  0.74191  0.34232  Biso   1.000  O
  O9       1.0000 0.88900  0.24191  0.90768  Biso   1.000  O
  O10      1.0000 0.36100  0.00809  0.90768  Biso   1.000  O
  O11      1.0000 0.88900  0.00809  0.34232  Biso   1.000  O
  O12      1.0000 0.36100  0.24191  0.34232  Biso   1.000  O
  O13      1.0000 0.88900  0.74191  0.40768  Biso   1.000  O
  O14      1.0000 0.36100  0.50809  0.40768  Biso   1.000  O
  O15      1.0000 0.88900  0.50809  0.84232  Biso   1.000  O
  O16      1.0000 0.36100  0.74191  0.84232  Biso   1.000  O
  O17      1.0000 0.61100  0.75809  0.59232  Biso   1.000  O
  O18      1.0000 0.63900  0.49191  0.59232  Biso   1.000  O
  O19      1.0000 0.61100  0.49191  0.65768  Biso   1.000  O
  O20      1.0000 0.63900  0.75809  0.65768  Biso   1.000  O
  O21      1.0000 0.61100  0.25809  0.09232  Biso   1.000  O
  O22      1.0000 0.63900  0.99191  0.09232  Biso   1.000  O
  O23      1.0000 0.61100  0.99191  0.15768  Biso   1.000  O
  O24      1.0000 0.63900  0.25809  0.15768  Biso   1.000  O
  O25      1.0000 0.11100  0.75809  0.09232  Biso   1.000  O
  O26      1.0000 0.13900  0.49191  0.09232  Biso   1.000  O
  O27      1.0000 0.11100  0.49191  0.15768  Biso   1.000  O
  O28      1.0000 0.13900  0.75809  0.15768  Biso   1.000  O
  O29      1.0000 0.11100  0.25809  0.59232  Biso   1.000  O
  O30      1.0000 0.13900  0.99191  0.59232  Biso   1.000  O
  O31      1.0000 0.11100  0.99191  0.65768  Biso   1.000  O
  O32      1.0000 0.13900  0.25809  0.65768  Biso   1.000  O
  C65      1.0000 0.39760  0.02178  0.42033  Biso   1.000  C
  C66      1.0000 0.85240  0.22822  0.42033  Biso   1.000  C
  C67      1.0000 0.39760  0.22822  0.82967  Biso   1.000  C
  C68      1.0000 0.85240  0.02178  0.82967  Biso   1.000  C
  C69      1.0000 0.39760  0.52178  0.92033  Biso   1.000  C
  C70      1.0000 0.85240  0.72822  0.92033  Biso   1.000  C
  C71      1.0000 0.39760  0.72822  0.32967  Biso   1.000  C
  C72      1.0000 0.85240  0.52178  0.32967  Biso   1.000  C
  C73      1.0000 0.89760  0.02178  0.92033  Biso   1.000  C
  C74      1.0000 0.35240  0.22822  0.92033  Biso   1.000  C
  C75      1.0000 0.89760  0.22822  0.32967  Biso   1.000  C
  C76      1.0000 0.35240  0.02178  0.32967  Biso   1.000  C
  C77      1.0000 0.89760  0.52178  0.42033  Biso   1.000  C
  C78      1.0000 0.35240  0.72822  0.42033  Biso   1.000  C
  C79      1.0000 0.89760  0.72822  0.82967  Biso   1.000  C
  C80      1.0000 0.35240  0.52178  0.82967  Biso   1.000  C
  C81      1.0000 0.60240  0.97822  0.57967  Biso   1.000  C
  C82      1.0000 0.64760  0.27178  0.57967  Biso   1.000  C
  C83      1.0000 0.60240  0.27178  0.67033  Biso   1.000  C
  C84      1.0000 0.64760  0.97822  0.67033  Biso   1.000  C
  C85      1.0000 0.60240  0.47822  0.07967  Biso   1.000  C
  C86      1.0000 0.64760  0.77178  0.07967  Biso   1.000  C
  C87      1.0000 0.60240  0.77178  0.17033  Biso   1.000  C
  C88      1.0000 0.64760  0.47822  0.17033  Biso   1.000  C
  C89      1.0000 0.10240  0.97822  0.07967  Biso   1.000  C
  C90      1.0000 0.14760  0.27178  0.07967  Biso   1.000  C
  C91      1.0000 0.10240  0.27178  0.17033  Biso   1.000  C
  C92      1.0000 0.14760  0.97822  0.17033  Biso   1.000  C
  C93      1.0000 0.10240  0.47822  0.57967  Biso   1.000  C
  C94      1.0000 0.14760  0.77178  0.57967  Biso   1.000  C
  C95      1.0000 0.10240  0.77178  0.67033  Biso   1.000  C
  C96      1.0000 0.14760  0.47822  0.67033  Biso   1.000  C
  N49      1.0000 0.12500  0.12500  0.42596  Biso   1.000  N
  N50      1.0000 0.12500  0.12500  0.82404  Biso   1.000  N
  N51      1.0000 0.12500  0.62500  0.92596  Biso   1.000  N
  N52      1.0000 0.12500  0.62500  0.32404  Biso   1.000  N
  N53      1.0000 0.62500  0.12500  0.92596  Biso   1.000  N
  N54      1.0000 0.62500  0.12500  0.32404  Biso   1.000  N
  N55      1.0000 0.62500  0.62500  0.42596  Biso   1.000  N
  N56      1.0000 0.62500  0.62500  0.82404  Biso   1.000  N
  N57      1.0000 0.87500  0.87500  0.57404  Biso   1.000  N
  N58      1.0000 0.37500  0.37500  0.57404  Biso   1.000  N
  N59      1.0000 0.87500  0.37500  0.67596  Biso   1.000  N
  N60      1.0000 0.37500  0.87500  0.67596  Biso   1.000  N
  N61      1.0000 0.87500  0.37500  0.07404  Biso   1.000  N
  N62      1.0000 0.37500  0.87500  0.07404  Biso   1.000  N
  N63      1.0000 0.87500  0.87500  0.17596  Biso   1.000  N
  N64      1.0000 0.37500  0.37500  0.17596  Biso   1.000  N
  C97      1.0000 0.50180  0.93224  0.41370  Biso   1.000  C
  C98      1.0000 0.74820  0.31776  0.41370  Biso   1.000  C
  C99      1.0000 0.50180  0.31776  0.83630  Biso   1.000  C
  C100     1.0000 0.74820  0.93224  0.83630  Biso   1.000  C
  C101     1.0000 0.50180  0.43224  0.91370  Biso   1.000  C
  C102     1.0000 0.74820  0.81776  0.91370  Biso   1.000  C
  C103     1.0000 0.50180  0.81776  0.33630  Biso   1.000  C
  C104     1.0000 0.74820  0.43224  0.33630  Biso   1.000  C
  C105     1.0000 0.00180  0.93224  0.91370  Biso   1.000  C
  C106     1.0000 0.24820  0.31776  0.91370  Biso   1.000  C
  C107     1.0000 0.00180  0.31776  0.33630  Biso   1.000  C
  C108     1.0000 0.24820  0.93224  0.33630  Biso   1.000  C
  C109     1.0000 0.00180  0.43224  0.41370  Biso   1.000  C
  C110     1.0000 0.24820  0.81776  0.41370  Biso   1.000  C
  C111     1.0000 0.00180  0.81776  0.83630  Biso   1.000  C
  C112     1.0000 0.24820  0.43224  0.83630  Biso   1.000  C
  C113     1.0000 0.49820  0.06776  0.58630  Biso   1.000  C
  C114     1.0000 0.75180  0.18224  0.58630  Biso   1.000  C
  C115     1.0000 0.49820  0.18224  0.66370  Biso   1.000  C
  C116     1.0000 0.75180  0.06776  0.66370  Biso   1.000  C
  C117     1.0000 0.49820  0.56776  0.08630  Biso   1.000  C
  C118     1.0000 0.75180  0.68224  0.08630  Biso   1.000  C
  C119     1.0000 0.49820  0.68224  0.16370  Biso   1.000  C
  C120     1.0000 0.75180  0.56776  0.16370  Biso   1.000  C
  C121     1.0000 0.99820  0.06776  0.08630  Biso   1.000  C
  C122     1.0000 0.25180  0.18224  0.08630  Biso   1.000  C
  C123     1.0000 0.99820  0.18224  0.16370  Biso   1.000  C
  C124     1.0000 0.25180  0.06776  0.16370  Biso   1.000  C
  C125     1.0000 0.99820  0.56776  0.58630  Biso   1.000  C
  C126     1.0000 0.25180  0.68224  0.58630  Biso   1.000  C
  C127     1.0000 0.99820  0.68224  0.66370  Biso   1.000  C
  C128     1.0000 0.25180  0.56776  0.66370  Biso   1.000  C
  H1       1.0000 0.57870  0.91100  0.40850  Biso   1.000  H
  H2       1.0000 0.67130  0.33900  0.40850  Biso   1.000  H
  H3       1.0000 0.57870  0.33900  0.84150  Biso   1.000  H
  H4       1.0000 0.67130  0.91100  0.84150  Biso   1.000  H
  H5       1.0000 0.57870  0.41100  0.90850  Biso   1.000  H
  H6       1.0000 0.67130  0.83900  0.90850  Biso   1.000  H
  H7       1.0000 0.57870  0.83900  0.34150  Biso   1.000  H
  H8       1.0000 0.67130  0.41100  0.34150  Biso   1.000  H
  H9       1.0000 0.07870  0.91100  0.90850  Biso   1.000  H
  H10      1.0000 0.17130  0.33900  0.90850  Biso   1.000  H
  H11      1.0000 0.07870  0.33900  0.34150  Biso   1.000  H
  H12      1.0000 0.17130  0.91100  0.34150  Biso   1.000  H
  H13      1.0000 0.07870  0.41100  0.40850  Biso   1.000  H
  H14      1.0000 0.17130  0.83900  0.40850  Biso   1.000  H
  H15      1.0000 0.07870  0.83900  0.84150  Biso   1.000  H
  H16      1.0000 0.17130  0.41100  0.84150  Biso   1.000  H
  H17      1.0000 0.42130  0.08900  0.59150  Biso   1.000  H
  H18      1.0000 0.82870  0.16100  0.59150  Biso   1.000  H
  H19      1.0000 0.42130  0.16100  0.65850  Biso   1.000  H
  H20      1.0000 0.82870  0.08900  0.65850  Biso   1.000  H
  H21      1.0000 0.42130  0.58900  0.09150  Biso   1.000  H
  H22      1.0000 0.82870  0.66100  0.09150  Biso   1.000  H
  H23      1.0000 0.42130  0.66100  0.15850  Biso   1.000  H
  H24      1.0000 0.82870  0.58900  0.15850  Biso   1.000  H
  H25      1.0000 0.92130  0.08900  0.09150  Biso   1.000  H
  H26      1.0000 0.32870  0.16100  0.09150  Biso   1.000  H
  H27      1.0000 0.92130  0.16100  0.15850  Biso   1.000  H
  H28      1.0000 0.32870  0.08900  0.15850  Biso   1.000  H
  H29      1.0000 0.92130  0.58900  0.59150  Biso   1.000  H
  H30      1.0000 0.32870  0.66100  0.59150  Biso   1.000  H
  H31      1.0000 0.92130  0.66100  0.65850  Biso   1.000  H
  H32      1.0000 0.32870  0.58900  0.65850  Biso   1.000  H
  N65      1.0000 0.39910  0.18656  0.41290  Biso   1.000  N
  N66      1.0000 0.85090  0.06344  0.41290  Biso   1.000  N
  N67      1.0000 0.39910  0.06344  0.83710  Biso   1.000  N
  N68      1.0000 0.85090  0.18656  0.83710  Biso   1.000  N
  N69      1.0000 0.39910  0.68656  0.91290  Biso   1.000  N
  N70      1.0000 0.85090  0.56344  0.91290  Biso   1.000  N
  N71      1.0000 0.39910  0.56344  0.33710  Biso   1.000  N
  N72      1.0000 0.85090  0.68656  0.33710  Biso   1.000  N
  N73      1.0000 0.89910  0.18656  0.91290  Biso   1.000  N
  N74      1.0000 0.35090  0.06344  0.91290  Biso   1.000  N
  N75      1.0000 0.89910  0.06344  0.33710  Biso   1.000  N
  N76      1.0000 0.35090  0.18656  0.33710  Biso   1.000  N
  N77      1.0000 0.89910  0.68656  0.41290  Biso   1.000  N
  N78      1.0000 0.35090  0.56344  0.41290  Biso   1.000  N
  N79      1.0000 0.89910  0.56344  0.83710  Biso   1.000  N
  N80      1.0000 0.35090  0.68656  0.83710  Biso   1.000  N
  N81      1.0000 0.60090  0.81344  0.58710  Biso   1.000  N
  N82      1.0000 0.64910  0.43656  0.58710  Biso   1.000  N
  N83      1.0000 0.60090  0.43656  0.66290  Biso   1.000  N
  N84      1.0000 0.64910  0.81344  0.66290  Biso   1.000  N
  N85      1.0000 0.60090  0.31344  0.08710  Biso   1.000  N
  N86      1.0000 0.64910  0.93656  0.08710  Biso   1.000  N
  N87      1.0000 0.60090  0.93656  0.16290  Biso   1.000  N
  N88      1.0000 0.64910  0.31344  0.16290  Biso   1.000  N
  N89      1.0000 0.10090  0.81344  0.08710  Biso   1.000  N
  N90      1.0000 0.14910  0.43656  0.08710  Biso   1.000  N
  N91      1.0000 0.10090  0.43656  0.16290  Biso   1.000  N
  N92      1.0000 0.14910  0.81344  0.16290  Biso   1.000  N
  N93      1.0000 0.10090  0.31344  0.58710  Biso   1.000  N
  N94      1.0000 0.14910  0.93656  0.58710  Biso   1.000  N
  N95      1.0000 0.10090  0.93656  0.66290  Biso   1.000  N
  N96      1.0000 0.14910  0.31344  0.66290  Biso   1.000  N
  C129     1.0000 0.27530  0.99625  0.42920  Biso   1.000  C
  C130     1.0000 0.97470  0.25375  0.42920  Biso   1.000  C
  C131     1.0000 0.27530  0.25375  0.82080  Biso   1.000  C
  C132     1.0000 0.97470  0.99625  0.82080  Biso   1.000  C
  C133     1.0000 0.27530  0.49625  0.92920  Biso   1.000  C
  C134     1.0000 0.97470  0.75375  0.92920  Biso   1.000  C
  C135     1.0000 0.27530  0.75375  0.32080  Biso   1.000  C
  C136     1.0000 0.97470  0.49625  0.32080  Biso   1.000  C
  C137     1.0000 0.77530  0.99625  0.92920  Biso   1.000  C
  C138     1.0000 0.47470  0.25375  0.92920  Biso   1.000  C
  C139     1.0000 0.77530  0.25375  0.32080  Biso   1.000  C
  C140     1.0000 0.47470  0.99625  0.32080  Biso   1.000  C
  C141     1.0000 0.77530  0.49625  0.42920  Biso   1.000  C
  C142     1.0000 0.47470  0.75375  0.42920  Biso   1.000  C
  C143     1.0000 0.77530  0.75375  0.82080  Biso   1.000  C
  C144     1.0000 0.47470  0.49625  0.82080  Biso   1.000  C
  C145     1.0000 0.72470  0.00375  0.57080  Biso   1.000  C
  C146     1.0000 0.52530  0.24625  0.57080  Biso   1.000  C
  C147     1.0000 0.72470  0.24625  0.67920  Biso   1.000  C
  C148     1.0000 0.52530  0.00375  0.67920  Biso   1.000  C
  C149     1.0000 0.72470  0.50375  0.07080  Biso   1.000  C
  C150     1.0000 0.52530  0.74625  0.07080  Biso   1.000  C
  C151     1.0000 0.72470  0.74625  0.17920  Biso   1.000  C
  C152     1.0000 0.52530  0.50375  0.17920  Biso   1.000  C
  C153     1.0000 0.22470  0.00375  0.07080  Biso   1.000  C
  C154     1.0000 0.02530  0.24625  0.07080  Biso   1.000  C
  C155     1.0000 0.22470  0.24625  0.17920  Biso   1.000  C
  C156     1.0000 0.02530  0.00375  0.17920  Biso   1.000  C
  C157     1.0000 0.22470  0.50375  0.57080  Biso   1.000  C
  C158     1.0000 0.02530  0.74625  0.57080  Biso   1.000  C
  C159     1.0000 0.22470  0.74625  0.67920  Biso   1.000  C
  C160     1.0000 0.02530  0.50375  0.67920  Biso   1.000  C
  H33      1.0000 0.19870  0.01760  0.43460  Biso   1.000  H
  H34      1.0000 0.05130  0.23240  0.43460  Biso   1.000  H
  H35      1.0000 0.19870  0.23240  0.81540  Biso   1.000  H
  H36      1.0000 0.05130  0.01760  0.81540  Biso   1.000  H
  H37      1.0000 0.19870  0.51760  0.93460  Biso   1.000  H
  H38      1.0000 0.05130  0.73240  0.93460  Biso   1.000  H
  H39      1.0000 0.19870  0.73240  0.31540  Biso   1.000  H
  H40      1.0000 0.05130  0.51760  0.31540  Biso   1.000  H
  H41      1.0000 0.69870  0.01760  0.93460  Biso   1.000  H
  H42      1.0000 0.55130  0.23240  0.93460  Biso   1.000  H
  H43      1.0000 0.69870  0.23240  0.31540  Biso   1.000  H
  H44      1.0000 0.55130  0.01760  0.31540  Biso   1.000  H
  H45      1.0000 0.69870  0.51760  0.43460  Biso   1.000  H
  H46      1.0000 0.55130  0.73240  0.43460  Biso   1.000  H
  H47      1.0000 0.69870  0.73240  0.81540  Biso   1.000  H
  H48      1.0000 0.55130  0.51760  0.81540  Biso   1.000  H
  H49      1.0000 0.80130  0.98240  0.56540  Biso   1.000  H
  H50      1.0000 0.44870  0.26760  0.56540  Biso   1.000  H
  H51      1.0000 0.80130  0.26760  0.68460  Biso   1.000  H
  H52      1.0000 0.44870  0.98240  0.68460  Biso   1.000  H
  H53      1.0000 0.80130  0.48240  0.06540  Biso   1.000  H
  H54      1.0000 0.44870  0.76760  0.06540  Biso   1.000  H
  H55      1.0000 0.80130  0.76760  0.18460  Biso   1.000  H
  H56      1.0000 0.44870  0.48240  0.18460  Biso   1.000  H
  H57      1.0000 0.30130  0.98240  0.06540  Biso   1.000  H
  H58      1.0000 0.94870  0.26760  0.06540  Biso   1.000  H
  H59      1.0000 0.30130  0.26760  0.18460  Biso   1.000  H
  H60      1.0000 0.94870  0.98240  0.18460  Biso   1.000  H
  H61      1.0000 0.30130  0.48240  0.56540  Biso   1.000  H
  H62      1.0000 0.94870  0.76760  0.56540  Biso   1.000  H
  H63      1.0000 0.30130  0.76760  0.68460  Biso   1.000  H
  H64      1.0000 0.94870  0.48240  0.68460  Biso   1.000  H
  C161     1.0000 0.26700  0.93905  0.43006  Biso   1.000  C
  C162     1.0000 0.98300  0.31095  0.43006  Biso   1.000  C
  C163     1.0000 0.26700  0.31095  0.81994  Biso   1.000  C
  C164     1.0000 0.98300  0.93905  0.81994  Biso   1.000  C
  C165     1.0000 0.26700  0.43905  0.93006  Biso   1.000  C
  C166     1.0000 0.98300  0.81095  0.93006  Biso   1.000  C
  C167     1.0000 0.26700  0.81095  0.31994  Biso   1.000  C
  C168     1.0000 0.98300  0.43905  0.31994  Biso   1.000  C
  C169     1.0000 0.76700  0.93905  0.93006  Biso   1.000  C
  C170     1.0000 0.48300  0.31095  0.93006  Biso   1.000  C
  C171     1.0000 0.76700  0.31095  0.31994  Biso   1.000  C
  C172     1.0000 0.48300  0.93905  0.31994  Biso   1.000  C
  C173     1.0000 0.76700  0.43905  0.43006  Biso   1.000  C
  C174     1.0000 0.48300  0.81095  0.43006  Biso   1.000  C
  C175     1.0000 0.76700  0.81095  0.81994  Biso   1.000  C
  C176     1.0000 0.48300  0.43905  0.81994  Biso   1.000  C
  C177     1.0000 0.73300  0.06095  0.56994  Biso   1.000  C
  C178     1.0000 0.51700  0.18905  0.56994  Biso   1.000  C
  C179     1.0000 0.73300  0.18905  0.68006  Biso   1.000  C
  C180     1.0000 0.51700  0.06095  0.68006  Biso   1.000  C
  C181     1.0000 0.73300  0.56095  0.06994  Biso   1.000  C
  C182     1.0000 0.51700  0.68905  0.06994  Biso   1.000  C
  C183     1.0000 0.73300  0.68905  0.18006  Biso   1.000  C
  C184     1.0000 0.51700  0.56095  0.18006  Biso   1.000  C
  C185     1.0000 0.23300  0.06095  0.06994  Biso   1.000  C
  C186     1.0000 0.01700  0.18905  0.06994  Biso   1.000  C
  C187     1.0000 0.23300  0.18905  0.18006  Biso   1.000  C
  C188     1.0000 0.01700  0.06095  0.18006  Biso   1.000  C
  C189     1.0000 0.23300  0.56095  0.56994  Biso   1.000  C
  C190     1.0000 0.01700  0.68905  0.56994  Biso   1.000  C
  C191     1.0000 0.23300  0.68905  0.68006  Biso   1.000  C
  C192     1.0000 0.01700  0.56095  0.68006  Biso   1.000  C
  H65      1.0000 0.18400  0.92230  0.43580  Biso   1.000  H
  H66      1.0000 0.06600  0.32770  0.43580  Biso   1.000  H
  H67      1.0000 0.18400  0.32770  0.81420  Biso   1.000  H
  H68      1.0000 0.06600  0.92230  0.81420  Biso   1.000  H
  H69      1.0000 0.18400  0.42230  0.93580  Biso   1.000  H
  H70      1.0000 0.06600  0.82770  0.93580  Biso   1.000  H
  H71      1.0000 0.18400  0.82770  0.31420  Biso   1.000  H
  H72      1.0000 0.06600  0.42230  0.31420  Biso   1.000  H
  H73      1.0000 0.68400  0.92230  0.93580  Biso   1.000  H
  H74      1.0000 0.56600  0.32770  0.93580  Biso   1.000  H
  H75      1.0000 0.68400  0.32770  0.31420  Biso   1.000  H
  H76      1.0000 0.56600  0.92230  0.31420  Biso   1.000  H
  H77      1.0000 0.68400  0.42230  0.43580  Biso   1.000  H
  H78      1.0000 0.56600  0.82770  0.43580  Biso   1.000  H
  H79      1.0000 0.68400  0.82770  0.81420  Biso   1.000  H
  H80      1.0000 0.56600  0.42230  0.81420  Biso   1.000  H
  H81      1.0000 0.81600  0.07770  0.56420  Biso   1.000  H
  H82      1.0000 0.43400  0.17230  0.56420  Biso   1.000  H
  H83      1.0000 0.81600  0.17230  0.68580  Biso   1.000  H
  H84      1.0000 0.43400  0.07770  0.68580  Biso   1.000  H
  H85      1.0000 0.81600  0.57770  0.06420  Biso   1.000  H
  H86      1.0000 0.43400  0.67230  0.06420  Biso   1.000  H
  H87      1.0000 0.81600  0.67230  0.18580  Biso   1.000  H
  H88      1.0000 0.43400  0.57770  0.18580  Biso   1.000  H
  H89      1.0000 0.31600  0.07770  0.06420  Biso   1.000  H
  H90      1.0000 0.93400  0.17230  0.06420  Biso   1.000  H
  H91      1.0000 0.31600  0.17230  0.18580  Biso   1.000  H
  H92      1.0000 0.93400  0.07770  0.18580  Biso   1.000  H
  H93      1.0000 0.31600  0.57770  0.56420  Biso   1.000  H
  H94      1.0000 0.93400  0.67230  0.56420  Biso   1.000  H
  H95      1.0000 0.31600  0.67230  0.68580  Biso   1.000  H
  H96      1.0000 0.93400  0.57770  0.68580  Biso   1.000  H
  C193     1.0000 0.41480  0.16971  0.44552  Biso   1.000  C
  C194     1.0000 0.83520  0.08029  0.44552  Biso   1.000  C
  C195     1.0000 0.41480  0.08029  0.80448  Biso   1.000  C
  C196     1.0000 0.83520  0.16971  0.80448  Biso   1.000  C
  C197     1.0000 0.41480  0.66971  0.94552  Biso   1.000  C
  C198     1.0000 0.83520  0.58029  0.94552  Biso   1.000  C
  C199     1.0000 0.41480  0.58029  0.30448  Biso   1.000  C
  C200     1.0000 0.83520  0.66971  0.30448  Biso   1.000  C
  C201     1.0000 0.91480  0.16971  0.94552  Biso   1.000  C
  C202     1.0000 0.33520  0.08029  0.94552  Biso   1.000  C
  C203     1.0000 0.91480  0.08029  0.30448  Biso   1.000  C
  C204     1.0000 0.33520  0.16971  0.30448  Biso   1.000  C
  C205     1.0000 0.91480  0.66971  0.44552  Biso   1.000  C
  C206     1.0000 0.33520  0.58029  0.44552  Biso   1.000  C
  C207     1.0000 0.91480  0.58029  0.80448  Biso   1.000  C
  C208     1.0000 0.33520  0.66971  0.80448  Biso   1.000  C
  C209     1.0000 0.58520  0.83029  0.55448  Biso   1.000  C
  C210     1.0000 0.66480  0.41971  0.55448  Biso   1.000  C
  C211     1.0000 0.58520  0.41971  0.69552  Biso   1.000  C
  C212     1.0000 0.66480  0.83029  0.69552  Biso   1.000  C
  C213     1.0000 0.58520  0.33029  0.05448  Biso   1.000  C
  C214     1.0000 0.66480  0.91971  0.05448  Biso   1.000  C
  C215     1.0000 0.58520  0.91971  0.19552  Biso   1.000  C
  C216     1.0000 0.66480  0.33029  0.19552  Biso   1.000  C
  C217     1.0000 0.08520  0.83029  0.05448  Biso   1.000  C
  C218     1.0000 0.16480  0.41971  0.05448  Biso   1.000  C
  C219     1.0000 0.08520  0.41971  0.19552  Biso   1.000  C
  C220     1.0000 0.16480  0.83029  0.19552  Biso   1.000  C
  C221     1.0000 0.08520  0.33029  0.55448  Biso   1.000  C
  C222     1.0000 0.16480  0.91971  0.55448  Biso   1.000  C
  C223     1.0000 0.08520  0.91971  0.69552  Biso   1.000  C
  C224     1.0000 0.16480  0.33029  0.69552  Biso   1.000  C
  C225     1.0000 0.51070  0.98952  0.41238  Biso   1.000  C
  C226     1.0000 0.73930  0.26048  0.41238  Biso   1.000  C
  C227     1.0000 0.51070  0.26048  0.83762  Biso   1.000  C
  C228     1.0000 0.73930  0.98952  0.83762  Biso   1.000  C
  C229     1.0000 0.51070  0.48952  0.91238  Biso   1.000  C
  C230     1.0000 0.73930  0.76048  0.91238  Biso   1.000  C
  C231     1.0000 0.51070  0.76048  0.33762  Biso   1.000  C
  C232     1.0000 0.73930  0.48952  0.33762  Biso   1.000  C
  C233     1.0000 0.01070  0.98952  0.91238  Biso   1.000  C
  C234     1.0000 0.23930  0.26048  0.91238  Biso   1.000  C
  C235     1.0000 0.01070  0.26048  0.33762  Biso   1.000  C
  C236     1.0000 0.23930  0.98952  0.33762  Biso   1.000  C
  C237     1.0000 0.01070  0.48952  0.41238  Biso   1.000  C
  C238     1.0000 0.23930  0.76048  0.41238  Biso   1.000  C
  C239     1.0000 0.01070  0.76048  0.83762  Biso   1.000  C
  C240     1.0000 0.23930  0.48952  0.83762  Biso   1.000  C
  C241     1.0000 0.48930  0.01048  0.58762  Biso   1.000  C
  C242     1.0000 0.76070  0.23952  0.58762  Biso   1.000  C
  C243     1.0000 0.48930  0.23952  0.66238  Biso   1.000  C
  C244     1.0000 0.76070  0.01048  0.66238  Biso   1.000  C
  C245     1.0000 0.48930  0.51048  0.08762  Biso   1.000  C
  C246     1.0000 0.76070  0.73952  0.08762  Biso   1.000  C
  C247     1.0000 0.48930  0.73952  0.16238  Biso   1.000  C
  C248     1.0000 0.76070  0.51048  0.16238  Biso   1.000  C
  C249     1.0000 0.98930  0.01048  0.08762  Biso   1.000  C
  C250     1.0000 0.26070  0.23952  0.08762  Biso   1.000  C
  C251     1.0000 0.98930  0.23952  0.16238  Biso   1.000  C
  C252     1.0000 0.26070  0.01048  0.16238  Biso   1.000  C
  C253     1.0000 0.98930  0.51048  0.58762  Biso   1.000  C
  C254     1.0000 0.26070  0.73952  0.58762  Biso   1.000  C
  C255     1.0000 0.98930  0.73952  0.66238  Biso   1.000  C
  C256     1.0000 0.26070  0.51048  0.66238  Biso   1.000  C
  H97      1.0000 0.59300  0.00640  0.40610  Biso   1.000  H
  H98      1.0000 0.65700  0.24360  0.40610  Biso   1.000  H
  H99      1.0000 0.59300  0.24360  0.84390  Biso   1.000  H
  H100     1.0000 0.65700  0.00640  0.84390  Biso   1.000  H
  H101     1.0000 0.59300  0.50640  0.90610  Biso   1.000  H
  H102     1.0000 0.65700  0.74360  0.90610  Biso   1.000  H
  H103     1.0000 0.59300  0.74360  0.34390  Biso   1.000  H
  H104     1.0000 0.65700  0.50640  0.34390  Biso   1.000  H
  H105     1.0000 0.09300  0.00640  0.90610  Biso   1.000  H
  H106     1.0000 0.15700  0.24360  0.90610  Biso   1.000  H
  H107     1.0000 0.09300  0.24360  0.34390  Biso   1.000  H
  H108     1.0000 0.15700  0.00640  0.34390  Biso   1.000  H
  H109     1.0000 0.09300  0.50640  0.40610  Biso   1.000  H
  H110     1.0000 0.15700  0.74360  0.40610  Biso   1.000  H
  H111     1.0000 0.09300  0.74360  0.84390  Biso   1.000  H
  H112     1.0000 0.15700  0.50640  0.84390  Biso   1.000  H
  H113     1.0000 0.40700  0.99360  0.59390  Biso   1.000  H
  H114     1.0000 0.84300  0.25640  0.59390  Biso   1.000  H
  H115     1.0000 0.40700  0.25640  0.65610  Biso   1.000  H
  H116     1.0000 0.84300  0.99360  0.65610  Biso   1.000  H
  H117     1.0000 0.40700  0.49360  0.09390  Biso   1.000  H
  H118     1.0000 0.84300  0.75640  0.09390  Biso   1.000  H
  H119     1.0000 0.40700  0.75640  0.15610  Biso   1.000  H
  H120     1.0000 0.84300  0.49360  0.15610  Biso   1.000  H
  H121     1.0000 0.90700  0.99360  0.09390  Biso   1.000  H
  H122     1.0000 0.34300  0.25640  0.09390  Biso   1.000  H
  H123     1.0000 0.90700  0.25640  0.15610  Biso   1.000  H
  H124     1.0000 0.34300  0.99360  0.15610  Biso   1.000  H
  H125     1.0000 0.90700  0.49360  0.59390  Biso   1.000  H
  H126     1.0000 0.34300  0.75640  0.59390  Biso   1.000  H
  H127     1.0000 0.90700  0.75640  0.65610  Biso   1.000  H
  H128     1.0000 0.34300  0.49360  0.65610  Biso   1.000  H
  N97      1.0000 0.12500  0.12500  0.45754  Biso   1.000  N
  N98      1.0000 0.12500  0.12500  0.79246  Biso   1.000  N
  N99      1.0000 0.12500  0.62500  0.95754  Biso   1.000  N
  N100     1.0000 0.12500  0.62500  0.29246  Biso   1.000  N
  N101     1.0000 0.62500  0.12500  0.95754  Biso   1.000  N
  N102     1.0000 0.62500  0.12500  0.29246  Biso   1.000  N
  N103     1.0000 0.62500  0.62500  0.45754  Biso   1.000  N
  N104     1.0000 0.62500  0.62500  0.79246  Biso   1.000  N
  N105     1.0000 0.87500  0.87500  0.54246  Biso   1.000  N
  N106     1.0000 0.37500  0.37500  0.54246  Biso   1.000  N
  N107     1.0000 0.87500  0.37500  0.70754  Biso   1.000  N
  N108     1.0000 0.37500  0.87500  0.70754  Biso   1.000  N
  N109     1.0000 0.87500  0.37500  0.04246  Biso   1.000  N
  N110     1.0000 0.37500  0.87500  0.04246  Biso   1.000  N
  N111     1.0000 0.87500  0.87500  0.20754  Biso   1.000  N
  N112     1.0000 0.37500  0.37500  0.20754  Biso   1.000  N
  C257     1.0000 0.43500  0.08290  0.48451  Biso   1.000  C
  C258     1.0000 0.81500  0.16710  0.48451  Biso   1.000  C
  C259     1.0000 0.43500  0.16710  0.76549  Biso   1.000  C
  C260     1.0000 0.81500  0.08290  0.76549  Biso   1.000  C
  C261     1.0000 0.43500  0.58290  0.98451  Biso   1.000  C
  C262     1.0000 0.81500  0.66710  0.98451  Biso   1.000  C
  C263     1.0000 0.43500  0.66710  0.26549  Biso   1.000  C
  C264     1.0000 0.81500  0.58290  0.26549  Biso   1.000  C
  C265     1.0000 0.93500  0.08290  0.98451  Biso   1.000  C
  C266     1.0000 0.31500  0.16710  0.98451  Biso   1.000  C
  C267     1.0000 0.93500  0.16710  0.26549  Biso   1.000  C
  C268     1.0000 0.31500  0.08290  0.26549  Biso   1.000  C
  C269     1.0000 0.93500  0.58290  0.48451  Biso   1.000  C
  C270     1.0000 0.31500  0.66710  0.48451  Biso   1.000  C
  C271     1.0000 0.93500  0.66710  0.76549  Biso   1.000  C
  C272     1.0000 0.31500  0.58290  0.76549  Biso   1.000  C
  C273     1.0000 0.56500  0.91710  0.51549  Biso   1.000  C
  C274     1.0000 0.68500  0.33290  0.51549  Biso   1.000  C
  C275     1.0000 0.56500  0.33290  0.73451  Biso   1.000  C
  C276     1.0000 0.68500  0.91710  0.73451  Biso   1.000  C
  C277     1.0000 0.56500  0.41710  0.01549  Biso   1.000  C
  C278     1.0000 0.68500  0.83290  0.01549  Biso   1.000  C
  C279     1.0000 0.56500  0.83290  0.23451  Biso   1.000  C
  C280     1.0000 0.68500  0.41710  0.23451  Biso   1.000  C
  C281     1.0000 0.06500  0.91710  0.01549  Biso   1.000  C
  C282     1.0000 0.18500  0.33290  0.01549  Biso   1.000  C
  C283     1.0000 0.06500  0.33290  0.23451  Biso   1.000  C
  C284     1.0000 0.18500  0.91710  0.23451  Biso   1.000  C
  C285     1.0000 0.06500  0.41710  0.51549  Biso   1.000  C
  C286     1.0000 0.18500  0.83290  0.51549  Biso   1.000  C
  C287     1.0000 0.06500  0.83290  0.73451  Biso   1.000  C
  C288     1.0000 0.18500  0.41710  0.73451  Biso   1.000  C
  H129     1.0000 0.43550  0.04320  0.48220  Biso   1.000  H
  H130     1.0000 0.81450  0.20680  0.48220  Biso   1.000  H
  H131     1.0000 0.43550  0.20680  0.76780  Biso   1.000  H
  H132     1.0000 0.81450  0.04320  0.76780  Biso   1.000  H
  H133     1.0000 0.43550  0.54320  0.98220  Biso   1.000  H
  H134     1.0000 0.81450  0.70680  0.98220  Biso   1.000  H
  H135     1.0000 0.43550  0.70680  0.26780  Biso   1.000  H
  H136     1.0000 0.81450  0.54320  0.26780  Biso   1.000  H
  H137     1.0000 0.93550  0.04320  0.98220  Biso   1.000  H
  H138     1.0000 0.31450  0.20680  0.98220  Biso   1.000  H
  H139     1.0000 0.93550  0.20680  0.26780  Biso   1.000  H
  H140     1.0000 0.31450  0.04320  0.26780  Biso   1.000  H
  H141     1.0000 0.93550  0.54320  0.48220  Biso   1.000  H
  H142     1.0000 0.31450  0.70680  0.48220  Biso   1.000  H
  H143     1.0000 0.93550  0.70680  0.76780  Biso   1.000  H
  H144     1.0000 0.31450  0.54320  0.76780  Biso   1.000  H
  H145     1.0000 0.56450  0.95680  0.51780  Biso   1.000  H
  H146     1.0000 0.68550  0.29320  0.51780  Biso   1.000  H
  H147     1.0000 0.56450  0.29320  0.73220  Biso   1.000  H
  H148     1.0000 0.68550  0.95680  0.73220  Biso   1.000  H
  H149     1.0000 0.56450  0.45680  0.01780  Biso   1.000  H
  H150     1.0000 0.68550  0.79320  0.01780  Biso   1.000  H
  H151     1.0000 0.56450  0.79320  0.23220  Biso   1.000  H
  H152     1.0000 0.68550  0.45680  0.23220  Biso   1.000  H
  H153     1.0000 0.06450  0.95680  0.01780  Biso   1.000  H
  H154     1.0000 0.18550  0.29320  0.01780  Biso   1.000  H
  H155     1.0000 0.06450  0.29320  0.23220  Biso   1.000  H
  H156     1.0000 0.18550  0.95680  0.23220  Biso   1.000  H
  H157     1.0000 0.06450  0.45680  0.51780  Biso   1.000  H
  H158     1.0000 0.18550  0.79320  0.51780  Biso   1.000  H
  H159     1.0000 0.06450  0.79320  0.73220  Biso   1.000  H
  H160     1.0000 0.18550  0.45680  0.73220  Biso   1.000  H
  H161     1.0000 0.36050  0.09390  0.49970  Biso   1.000  H
  H162     1.0000 0.88950  0.15610  0.49970  Biso   1.000  H
  H163     1.0000 0.36050  0.15610  0.75030  Biso   1.000  H
  H164     1.0000 0.88950  0.09390  0.75030  Biso   1.000  H
  H165     1.0000 0.36050  0.59390  0.99970  Biso   1.000  H
  H166     1.0000 0.88950  0.65610  0.99970  Biso   1.000  H
  H167     1.0000 0.36050  0.65610  0.25030  Biso   1.000  H
  H168     1.0000 0.88950  0.59390  0.25030  Biso   1.000  H
  H169     1.0000 0.86050  0.09390  0.99970  Biso   1.000  H
  H170     1.0000 0.38950  0.15610  0.99970  Biso   1.000  H
  H171     1.0000 0.86050  0.15610  0.25030  Biso   1.000  H
  H172     1.0000 0.38950  0.09390  0.25030  Biso   1.000  H
  H173     1.0000 0.86050  0.59390  0.49970  Biso   1.000  H
  H174     1.0000 0.38950  0.65610  0.49970  Biso   1.000  H
  H175     1.0000 0.86050  0.65610  0.75030  Biso   1.000  H
  H176     1.0000 0.38950  0.59390  0.75030  Biso   1.000  H
  H177     1.0000 0.63950  0.90610  0.50030  Biso   1.000  H
  H178     1.0000 0.61050  0.34390  0.50030  Biso   1.000  H
  H179     1.0000 0.63950  0.34390  0.74970  Biso   1.000  H
  H180     1.0000 0.61050  0.90610  0.74970  Biso   1.000  H
  H181     1.0000 0.63950  0.40610  0.00030  Biso   1.000  H
  H182     1.0000 0.61050  0.84390  0.00030  Biso   1.000  H
  H183     1.0000 0.63950  0.84390  0.24970  Biso   1.000  H
  H184     1.0000 0.61050  0.40610  0.24970  Biso   1.000  H
  H185     1.0000 0.13950  0.90610  0.00030  Biso   1.000  H
  H186     1.0000 0.11050  0.34390  0.00030  Biso   1.000  H
  H187     1.0000 0.13950  0.34390  0.24970  Biso   1.000  H
  H188     1.0000 0.11050  0.90610  0.24970  Biso   1.000  H
  H189     1.0000 0.13950  0.40610  0.50030  Biso   1.000  H
  H190     1.0000 0.11050  0.84390  0.50030  Biso   1.000  H
  H191     1.0000 0.13950  0.84390  0.74970  Biso   1.000  H
  H192     1.0000 0.11050  0.40610  0.74970  Biso   1.000  H
  H193     1.0000 0.51980  0.09500  0.49490  Biso   1.000  H
  H194     1.0000 0.73020  0.15500  0.49490  Biso   1.000  H
  H195     1.0000 0.51980  0.15500  0.75510  Biso   1.000  H
  H196     1.0000 0.73020  0.09500  0.75510  Biso   1.000  H
  H197     1.0000 0.51980  0.59500  0.99490  Biso   1.000  H
  H198     1.0000 0.73020  0.65500  0.99490  Biso   1.000  H
  H199     1.0000 0.51980  0.65500  0.25510  Biso   1.000  H
  H200     1.0000 0.73020  0.59500  0.25510  Biso   1.000  H
  H201     1.0000 0.01980  0.09500  0.99490  Biso   1.000  H
  H202     1.0000 0.23020  0.15500  0.99490  Biso   1.000  H
  H203     1.0000 0.01980  0.15500  0.25510  Biso   1.000  H
  H204     1.0000 0.23020  0.09500  0.25510  Biso   1.000  H
  H205     1.0000 0.01980  0.59500  0.49490  Biso   1.000  H
  H206     1.0000 0.23020  0.65500  0.49490  Biso   1.000  H
  H207     1.0000 0.01980  0.65500  0.75510  Biso   1.000  H
  H208     1.0000 0.23020  0.59500  0.75510  Biso   1.000  H
  H209     1.0000 0.48020  0.90500  0.50510  Biso   1.000  H
  H210     1.0000 0.76980  0.34500  0.50510  Biso   1.000  H
  H211     1.0000 0.48020  0.34500  0.74490  Biso   1.000  H
  H212     1.0000 0.76980  0.90500  0.74490  Biso   1.000  H
  H213     1.0000 0.48020  0.40500  0.00510  Biso   1.000  H
  H214     1.0000 0.76980  0.84500  0.00510  Biso   1.000  H
  H215     1.0000 0.48020  0.84500  0.24490  Biso   1.000  H
  H216     1.0000 0.76980  0.40500  0.24490  Biso   1.000  H
  H217     1.0000 0.98020  0.90500  0.00510  Biso   1.000  H
  H218     1.0000 0.26980  0.34500  0.00510  Biso   1.000  H
  H219     1.0000 0.98020  0.34500  0.24490  Biso   1.000  H
  H220     1.0000 0.26980  0.90500  0.24490  Biso   1.000  H
  H221     1.0000 0.98020  0.40500  0.50510  Biso   1.000  H
  H222     1.0000 0.26980  0.84500  0.50510  Biso   1.000  H
  H223     1.0000 0.98020  0.84500  0.74490  Biso   1.000  H
  H224     1.0000 0.26980  0.40500  0.74490  Biso   1.000  H
  C289     1.0000 0.42060  0.20800  0.47679  Biso   1.000  C
  C290     1.0000 0.82940  0.04200  0.47679  Biso   1.000  C
  C291     1.0000 0.42060  0.04200  0.77321  Biso   1.000  C
  C292     1.0000 0.82940  0.20800  0.77321  Biso   1.000  C
  C293     1.0000 0.42060  0.70800  0.97679  Biso   1.000  C
  C294     1.0000 0.82940  0.54200  0.97679  Biso   1.000  C
  C295     1.0000 0.42060  0.54200  0.27321  Biso   1.000  C
  C296     1.0000 0.82940  0.70800  0.27321  Biso   1.000  C
  C297     1.0000 0.92060  0.20800  0.97679  Biso   1.000  C
  C298     1.0000 0.32940  0.04200  0.97679  Biso   1.000  C
  C299     1.0000 0.92060  0.04200  0.27321  Biso   1.000  C
  C300     1.0000 0.32940  0.20800  0.27321  Biso   1.000  C
  C301     1.0000 0.92060  0.70800  0.47679  Biso   1.000  C
  C302     1.0000 0.32940  0.54200  0.47679  Biso   1.000  C
  C303     1.0000 0.92060  0.54200  0.77321  Biso   1.000  C
  C304     1.0000 0.32940  0.70800  0.77321  Biso   1.000  C
  C305     1.0000 0.57940  0.79200  0.52321  Biso   1.000  C
  C306     1.0000 0.67060  0.45800  0.52321  Biso   1.000  C
  C307     1.0000 0.57940  0.45800  0.72679  Biso   1.000  C
  C308     1.0000 0.67060  0.79200  0.72679  Biso   1.000  C
  C309     1.0000 0.57940  0.29200  0.02321  Biso   1.000  C
  C310     1.0000 0.67060  0.95800  0.02321  Biso   1.000  C
  C311     1.0000 0.57940  0.95800  0.22679  Biso   1.000  C
  C312     1.0000 0.67060  0.29200  0.22679  Biso   1.000  C
  C313     1.0000 0.07940  0.79200  0.02321  Biso   1.000  C
  C314     1.0000 0.17060  0.45800  0.02321  Biso   1.000  C
  C315     1.0000 0.07940  0.45800  0.22679  Biso   1.000  C
  C316     1.0000 0.17060  0.79200  0.22679  Biso   1.000  C
  C317     1.0000 0.07940  0.29200  0.52321  Biso   1.000  C
  C318     1.0000 0.17060  0.95800  0.52321  Biso   1.000  C
  C319     1.0000 0.07940  0.95800  0.72679  Biso   1.000  C
  C320     1.0000 0.17060  0.29200  0.72679  Biso   1.000  C
  H225     1.0000 0.41660  0.24570  0.46850  Biso   1.000  H
  H226     1.0000 0.83340  0.00430  0.46850  Biso   1.000  H
  H227     1.0000 0.41660  0.00430  0.78150  Biso   1.000  H
  H228     1.0000 0.83340  0.24570  0.78150  Biso   1.000  H
  H229     1.0000 0.41660  0.74570  0.96850  Biso   1.000  H
  H230     1.0000 0.83340  0.50430  0.96850  Biso   1.000  H
  H231     1.0000 0.41660  0.50430  0.28150  Biso   1.000  H
  H232     1.0000 0.83340  0.74570  0.28150  Biso   1.000  H
  H233     1.0000 0.91660  0.24570  0.96850  Biso   1.000  H
  H234     1.0000 0.33340  0.00430  0.96850  Biso   1.000  H
  H235     1.0000 0.91660  0.00430  0.28150  Biso   1.000  H
  H236     1.0000 0.33340  0.24570  0.28150  Biso   1.000  H
  H237     1.0000 0.91660  0.74570  0.46850  Biso   1.000  H
  H238     1.0000 0.33340  0.50430  0.46850  Biso   1.000  H
  H239     1.0000 0.91660  0.50430  0.78150  Biso   1.000  H
  H240     1.0000 0.33340  0.74570  0.78150  Biso   1.000  H
  H241     1.0000 0.58340  0.75430  0.53150  Biso   1.000  H
  H242     1.0000 0.66660  0.49570  0.53150  Biso   1.000  H
  H243     1.0000 0.58340  0.49570  0.71850  Biso   1.000  H
  H244     1.0000 0.66660  0.75430  0.71850  Biso   1.000  H
  H245     1.0000 0.58340  0.25430  0.03150  Biso   1.000  H
  H246     1.0000 0.66660  0.99570  0.03150  Biso   1.000  H
  H247     1.0000 0.58340  0.99570  0.21850  Biso   1.000  H
  H248     1.0000 0.66660  0.25430  0.21850  Biso   1.000  H
  H249     1.0000 0.08340  0.75430  0.03150  Biso   1.000  H
  H250     1.0000 0.16660  0.49570  0.03150  Biso   1.000  H
  H251     1.0000 0.08340  0.49570  0.21850  Biso   1.000  H
  H252     1.0000 0.16660  0.75430  0.21850  Biso   1.000  H
  H253     1.0000 0.08340  0.25430  0.53150  Biso   1.000  H
  H254     1.0000 0.16660  0.99570  0.53150  Biso   1.000  H
  H255     1.0000 0.08340  0.99570  0.71850  Biso   1.000  H
  H256     1.0000 0.16660  0.25430  0.71850  Biso   1.000  H
  H257     1.0000 0.50440  0.20220  0.48970  Biso   1.000  H
  H258     1.0000 0.74560  0.04780  0.48970  Biso   1.000  H
  H259     1.0000 0.50440  0.04780  0.76030  Biso   1.000  H
  H260     1.0000 0.74560  0.20220  0.76030  Biso   1.000  H
  H261     1.0000 0.50440  0.70220  0.98970  Biso   1.000  H
  H262     1.0000 0.74560  0.54780  0.98970  Biso   1.000  H
  H263     1.0000 0.50440  0.54780  0.26030  Biso   1.000  H
  H264     1.0000 0.74560  0.70220  0.26030  Biso   1.000  H
  H265     1.0000 0.00440  0.20220  0.98970  Biso   1.000  H
  H266     1.0000 0.24560  0.04780  0.98970  Biso   1.000  H
  H267     1.0000 0.00440  0.04780  0.26030  Biso   1.000  H
  H268     1.0000 0.24560  0.20220  0.26030  Biso   1.000  H
  H269     1.0000 0.00440  0.70220  0.48970  Biso   1.000  H
  H270     1.0000 0.24560  0.54780  0.48970  Biso   1.000  H
  H271     1.0000 0.00440  0.54780  0.76030  Biso   1.000  H
  H272     1.0000 0.24560  0.70220  0.76030  Biso   1.000  H
  H273     1.0000 0.49560  0.79780  0.51030  Biso   1.000  H
  H274     1.0000 0.75440  0.45220  0.51030  Biso   1.000  H
  H275     1.0000 0.49560  0.45220  0.73970  Biso   1.000  H
  H276     1.0000 0.75440  0.79780  0.73970  Biso   1.000  H
  H277     1.0000 0.49560  0.29780  0.01030  Biso   1.000  H
  H278     1.0000 0.75440  0.95220  0.01030  Biso   1.000  H
  H279     1.0000 0.49560  0.95220  0.23970  Biso   1.000  H
  H280     1.0000 0.75440  0.29780  0.23970  Biso   1.000  H
  H281     1.0000 0.99560  0.79780  0.01030  Biso   1.000  H
  H282     1.0000 0.25440  0.45220  0.01030  Biso   1.000  H
  H283     1.0000 0.99560  0.45220  0.23970  Biso   1.000  H
  H284     1.0000 0.25440  0.79780  0.23970  Biso   1.000  H
  H285     1.0000 0.99560  0.29780  0.51030  Biso   1.000  H
  H286     1.0000 0.25440  0.95220  0.51030  Biso   1.000  H
  H287     1.0000 0.99560  0.95220  0.73970  Biso   1.000  H
  H288     1.0000 0.25440  0.29780  0.73970  Biso   1.000  H
  H289     1.0000 0.34440  0.20090  0.49240  Biso   1.000  H
  H290     1.0000 0.90560  0.04910  0.49240  Biso   1.000  H
  H291     1.0000 0.34440  0.04910  0.75760  Biso   1.000  H
  H292     1.0000 0.90560  0.20090  0.75760  Biso   1.000  H
  H293     1.0000 0.34440  0.70090  0.99240  Biso   1.000  H
  H294     1.0000 0.90560  0.54910  0.99240  Biso   1.000  H
  H295     1.0000 0.34440  0.54910  0.25760  Biso   1.000  H
  H296     1.0000 0.90560  0.70090  0.25760  Biso   1.000  H
  H297     1.0000 0.84440  0.20090  0.99240  Biso   1.000  H
  H298     1.0000 0.40560  0.04910  0.99240  Biso   1.000  H
  H299     1.0000 0.84440  0.04910  0.25760  Biso   1.000  H
  H300     1.0000 0.40560  0.20090  0.25760  Biso   1.000  H
  H301     1.0000 0.84440  0.70090  0.49240  Biso   1.000  H
  H302     1.0000 0.40560  0.54910  0.49240  Biso   1.000  H
  H303     1.0000 0.84440  0.54910  0.75760  Biso   1.000  H
  H304     1.0000 0.40560  0.70090  0.75760  Biso   1.000  H
  H305     1.0000 0.65560  0.79910  0.50760  Biso   1.000  H
  H306     1.0000 0.59440  0.45090  0.50760  Biso   1.000  H
  H307     1.0000 0.65560  0.45090  0.74240  Biso   1.000  H
  H308     1.0000 0.59440  0.79910  0.74240  Biso   1.000  H
  H309     1.0000 0.65560  0.29910  0.00760  Biso   1.000  H
  H310     1.0000 0.59440  0.95090  0.00760  Biso   1.000  H
  H311     1.0000 0.65560  0.95090  0.24240  Biso   1.000  H
  H312     1.0000 0.59440  0.29910  0.24240  Biso   1.000  H
  H313     1.0000 0.15560  0.79910  0.00760  Biso   1.000  H
  H314     1.0000 0.09440  0.45090  0.00760  Biso   1.000  H
  H315     1.0000 0.15560  0.45090  0.24240  Biso   1.000  H
  H316     1.0000 0.09440  0.79910  0.24240  Biso   1.000  H
  H317     1.0000 0.15560  0.29910  0.50760  Biso   1.000  H
  H318     1.0000 0.09440  0.95090  0.50760  Biso   1.000  H
  H319     1.0000 0.15560  0.95090  0.74240  Biso   1.000  H
  H320     1.0000 0.09440  0.29910  0.74240  Biso   1.000  H
  H321     1.0000 0.37940  0.24830  0.38620  Biso   1.000  H
  H322     1.0000 0.87060  0.00170  0.38620  Biso   1.000  H
  H323     1.0000 0.37940  0.00170  0.86380  Biso   1.000  H
  H324     1.0000 0.87060  0.24830  0.86380  Biso   1.000  H
  H325     1.0000 0.37940  0.74830  0.88620  Biso   1.000  H
  H326     1.0000 0.87060  0.50170  0.88620  Biso   1.000  H
  H327     1.0000 0.37940  0.50170  0.36380  Biso   1.000  H
  H328     1.0000 0.87060  0.74830  0.36380  Biso   1.000  H
  H329     1.0000 0.87940  0.24830  0.88620  Biso   1.000  H
  H330     1.0000 0.37060  0.00170  0.88620  Biso   1.000  H
  H331     1.0000 0.87940  0.00170  0.36380  Biso   1.000  H
  H332     1.0000 0.37060  0.24830  0.36380  Biso   1.000  H
  H333     1.0000 0.87940  0.74830  0.38620  Biso   1.000  H
  H334     1.0000 0.37060  0.50170  0.38620  Biso   1.000  H
  H335     1.0000 0.87940  0.50170  0.86380  Biso   1.000  H
  H336     1.0000 0.37060  0.74830  0.86380  Biso   1.000  H
  H337     1.0000 0.62060  0.75170  0.61380  Biso   1.000  H
  H338     1.0000 0.62940  0.49830  0.61380  Biso   1.000  H
  H339     1.0000 0.62060  0.49830  0.63620  Biso   1.000  H
  H340     1.0000 0.62940  0.75170  0.63620  Biso   1.000  H
  H341     1.0000 0.62060  0.25170  0.11380  Biso   1.000  H
  H342     1.0000 0.62940  0.99830  0.11380  Biso   1.000  H
  H343     1.0000 0.62060  0.99830  0.13620  Biso   1.000  H
  H344     1.0000 0.62940  0.25170  0.13620  Biso   1.000  H
  H345     1.0000 0.12060  0.75170  0.11380  Biso   1.000  H
  H346     1.0000 0.12940  0.49830  0.11380  Biso   1.000  H
  H347     1.0000 0.12060  0.49830  0.13620  Biso   1.000  H
  H348     1.0000 0.12940  0.75170  0.13620  Biso   1.000  H
  H349     1.0000 0.12060  0.25170  0.61380  Biso   1.000  H
  H350     1.0000 0.12940  0.99830  0.61380  Biso   1.000  H
  H351     1.0000 0.12060  0.99830  0.63620  Biso   1.000  H
  H352     1.0000 0.12940  0.25170  0.63620  Biso   1.000  H
