data_image0
_cell_length_a       26.196
_cell_length_b       35.384
_cell_length_c       11.073
_cell_angle_alpha    90
_cell_angle_beta     90
_cell_angle_gamma    90

_symmetry_space_group_name_H-M    "P 1"
_symmetry_int_tables_number       1

loop_
  _symmetry_equiv_pos_as_xyz
  'x, y, z'

loop_
  _atom_site_label
  _atom_site_occupancy
  _atom_site_fract_x
  _atom_site_fract_y
  _atom_site_fract_z
  _atom_site_thermal_displace_type
  _atom_site_B_iso_or_equiv
  _atom_site_type_symbol
  Cu1      1.0000 0.04651  0.18856  0.02535  Biso   1.000  Cu
  Cu2      1.0000 0.95349  0.81144  0.02535  Biso   1.000  Cu
  Cu3      1.0000 0.29651  0.06144  0.27535  Biso   1.000  Cu
  Cu4      1.0000 0.20349  0.43856  0.27535  Biso   1.000  Cu
  Cu5      1.0000 0.04651  0.68856  0.52535  Biso   1.000  Cu
  Cu6      1.0000 0.95349  0.31144  0.52535  Biso   1.000  Cu
  Cu7      1.0000 0.29651  0.56144  0.77535  Biso   1.000  Cu
  Cu8      1.0000 0.20349  0.93856  0.77535  Biso   1.000  Cu
  Cu9      1.0000 0.54651  0.18856  0.52535  Biso   1.000  Cu
  Cu10     1.0000 0.45349  0.81144  0.52535  Biso   1.000  Cu
  Cu11     1.0000 0.79651  0.06144  0.77535  Biso   1.000  Cu
  Cu12     1.0000 0.70349  0.43856  0.77535  Biso   1.000  Cu
  Cu13     1.0000 0.54651  0.68856  0.02535  Biso   1.000  Cu
  Cu14     1.0000 0.45349  0.31144  0.02535  Biso   1.000  Cu
  Cu15     1.0000 0.79651  0.56144  0.27535  Biso   1.000  Cu
  Cu16     1.0000 0.70349  0.93856  0.27535  Biso   1.000  Cu
  O1       1.0000 0.07260  0.19516  0.86140  Biso   1.000  O
  O2       1.0000 0.92740  0.80484  0.86140  Biso   1.000  O
  O3       1.0000 0.32260  0.05484  0.11140  Biso   1.000  O
  O4       1.0000 0.17740  0.44516  0.11140  Biso   1.000  O
  O5       1.0000 0.07260  0.69516  0.36140  Biso   1.000  O
  O6       1.0000 0.92740  0.30484  0.36140  Biso   1.000  O
  O7       1.0000 0.32260  0.55484  0.61140  Biso   1.000  O
  O8       1.0000 0.17740  0.94516  0.61140  Biso   1.000  O
  O9       1.0000 0.57260  0.19516  0.36140  Biso   1.000  O
  O10      1.0000 0.42740  0.80484  0.36140  Biso   1.000  O
  O11      1.0000 0.82260  0.05484  0.61140  Biso   1.000  O
  O12      1.0000 0.67740  0.44516  0.61140  Biso   1.000  O
  O13      1.0000 0.57260  0.69516  0.86140  Biso   1.000  O
  O14      1.0000 0.42740  0.30484  0.86140  Biso   1.000  O
  O15      1.0000 0.82260  0.55484  0.11140  Biso   1.000  O
  O16      1.0000 0.67740  0.94516  0.11140  Biso   1.000  O
  O17      1.0000 0.99750  0.17843  0.16390  Biso   1.000  O
  O18      1.0000 0.00250  0.82157  0.16390  Biso   1.000  O
  O19      1.0000 0.24750  0.07157  0.41390  Biso   1.000  O
  O20      1.0000 0.25250  0.42843  0.41390  Biso   1.000  O
  O21      1.0000 0.99750  0.67843  0.66390  Biso   1.000  O
  O22      1.0000 0.00250  0.32157  0.66390  Biso   1.000  O
  O23      1.0000 0.24750  0.57157  0.91390  Biso   1.000  O
  O24      1.0000 0.25250  0.92843  0.91390  Biso   1.000  O
  O25      1.0000 0.49750  0.17843  0.66390  Biso   1.000  O
  O26      1.0000 0.50250  0.82157  0.66390  Biso   1.000  O
  O27      1.0000 0.74750  0.07157  0.91390  Biso   1.000  O
  O28      1.0000 0.75250  0.42843  0.91390  Biso   1.000  O
  O29      1.0000 0.49750  0.67843  0.16390  Biso   1.000  O
  O30      1.0000 0.50250  0.32157  0.16390  Biso   1.000  O
  O31      1.0000 0.74750  0.57157  0.41390  Biso   1.000  O
  O32      1.0000 0.75250  0.92843  0.41390  Biso   1.000  O
  N1       1.0000 0.05030  0.13452  0.01570  Biso   1.000  N
  N2       1.0000 0.94970  0.86548  0.01570  Biso   1.000  N
  N3       1.0000 0.30030  0.11548  0.26570  Biso   1.000  N
  N4       1.0000 0.19970  0.38452  0.26570  Biso   1.000  N
  N5       1.0000 0.05030  0.63452  0.51570  Biso   1.000  N
  N6       1.0000 0.94970  0.36548  0.51570  Biso   1.000  N
  N7       1.0000 0.30030  0.61548  0.76570  Biso   1.000  N
  N8       1.0000 0.19970  0.88452  0.76570  Biso   1.000  N
  N9       1.0000 0.55030  0.13452  0.51570  Biso   1.000  N
  N10      1.0000 0.44970  0.86548  0.51570  Biso   1.000  N
  N11      1.0000 0.80030  0.11548  0.76570  Biso   1.000  N
  N12      1.0000 0.69970  0.38452  0.76570  Biso   1.000  N
  N13      1.0000 0.55030  0.63452  0.01570  Biso   1.000  N
  N14      1.0000 0.44970  0.36548  0.01570  Biso   1.000  N
  N15      1.0000 0.80030  0.61548  0.26570  Biso   1.000  N
  N16      1.0000 0.69970  0.88452  0.26570  Biso   1.000  N
  C1       1.0000 0.06760  0.11570  0.92890  Biso   1.000  C
  C2       1.0000 0.93240  0.88430  0.92890  Biso   1.000  C
  C3       1.0000 0.31760  0.13430  0.17890  Biso   1.000  C
  C4       1.0000 0.18240  0.36570  0.17890  Biso   1.000  C
  C5       1.0000 0.06760  0.61570  0.42890  Biso   1.000  C
  C6       1.0000 0.93240  0.38430  0.42890  Biso   1.000  C
  C7       1.0000 0.31760  0.63430  0.67890  Biso   1.000  C
  C8       1.0000 0.18240  0.86570  0.67890  Biso   1.000  C
  C9       1.0000 0.56760  0.11570  0.42890  Biso   1.000  C
  C10      1.0000 0.43240  0.88430  0.42890  Biso   1.000  C
  C11      1.0000 0.81760  0.13430  0.67890  Biso   1.000  C
  C12      1.0000 0.68240  0.36570  0.67890  Biso   1.000  C
  C13      1.0000 0.56760  0.61570  0.92890  Biso   1.000  C
  C14      1.0000 0.43240  0.38430  0.92890  Biso   1.000  C
  C15      1.0000 0.81760  0.63430  0.17890  Biso   1.000  C
  C16      1.0000 0.68240  0.86570  0.17890  Biso   1.000  C
  H1       1.0000 0.06760  0.08960  0.93830  Biso   1.000  H
  H2       1.0000 0.93240  0.91040  0.93830  Biso   1.000  H
  H3       1.0000 0.31760  0.16040  0.18830  Biso   1.000  H
  H4       1.0000 0.18240  0.33960  0.18830  Biso   1.000  H
  H5       1.0000 0.06760  0.58960  0.43830  Biso   1.000  H
  H6       1.0000 0.93240  0.41040  0.43830  Biso   1.000  H
  H7       1.0000 0.31760  0.66040  0.68830  Biso   1.000  H
  H8       1.0000 0.18240  0.83960  0.68830  Biso   1.000  H
  H9       1.0000 0.56760  0.08960  0.43830  Biso   1.000  H
  H10      1.0000 0.43240  0.91040  0.43830  Biso   1.000  H
  H11      1.0000 0.81760  0.16040  0.68830  Biso   1.000  H
  H12      1.0000 0.68240  0.33960  0.68830  Biso   1.000  H
  H13      1.0000 0.56760  0.58960  0.93830  Biso   1.000  H
  H14      1.0000 0.43240  0.41040  0.93830  Biso   1.000  H
  H15      1.0000 0.81760  0.66040  0.18830  Biso   1.000  H
  H16      1.0000 0.68240  0.83960  0.18830  Biso   1.000  H
  C17      1.0000 0.08700  0.12950  0.81910  Biso   1.000  C
  C18      1.0000 0.91300  0.87050  0.81910  Biso   1.000  C
  C19      1.0000 0.33700  0.12050  0.06910  Biso   1.000  C
  C20      1.0000 0.16300  0.37950  0.06910  Biso   1.000  C
  C21      1.0000 0.08700  0.62950  0.31910  Biso   1.000  C
  C22      1.0000 0.91300  0.37050  0.31910  Biso   1.000  C
  C23      1.0000 0.33700  0.62050  0.56910  Biso   1.000  C
  C24      1.0000 0.16300  0.87950  0.56910  Biso   1.000  C
  C25      1.0000 0.58700  0.12950  0.31910  Biso   1.000  C
  C26      1.0000 0.41300  0.87050  0.31910  Biso   1.000  C
  C27      1.0000 0.83700  0.12050  0.56910  Biso   1.000  C
  C28      1.0000 0.66300  0.37950  0.56910  Biso   1.000  C
  C29      1.0000 0.58700  0.62950  0.81910  Biso   1.000  C
  C30      1.0000 0.41300  0.37050  0.81910  Biso   1.000  C
  C31      1.0000 0.83700  0.62050  0.06910  Biso   1.000  C
  C32      1.0000 0.66300  0.87950  0.06910  Biso   1.000  C
  C33      1.0000 0.08960  0.16780  0.78830  Biso   1.000  C
  C34      1.0000 0.91040  0.83220  0.78830  Biso   1.000  C
  C35      1.0000 0.33960  0.08220  0.03830  Biso   1.000  C
  C36      1.0000 0.16040  0.41780  0.03830  Biso   1.000  C
  C37      1.0000 0.08960  0.66780  0.28830  Biso   1.000  C
  C38      1.0000 0.91040  0.33220  0.28830  Biso   1.000  C
  C39      1.0000 0.33960  0.58220  0.53830  Biso   1.000  C
  C40      1.0000 0.16040  0.91780  0.53830  Biso   1.000  C
  C41      1.0000 0.58960  0.16780  0.28830  Biso   1.000  C
  C42      1.0000 0.41040  0.83220  0.28830  Biso   1.000  C
  C43      1.0000 0.83960  0.08220  0.53830  Biso   1.000  C
  C44      1.0000 0.66040  0.41780  0.53830  Biso   1.000  C
  C45      1.0000 0.58960  0.66780  0.78830  Biso   1.000  C
  C46      1.0000 0.41040  0.33220  0.78830  Biso   1.000  C
  C47      1.0000 0.83960  0.58220  0.03830  Biso   1.000  C
  C48      1.0000 0.66040  0.91780  0.03830  Biso   1.000  C
  C49      1.0000 0.10570  0.17690  0.66980  Biso   1.000  C
  C50      1.0000 0.89430  0.82310  0.66980  Biso   1.000  C
  C51      1.0000 0.35570  0.07310  0.91980  Biso   1.000  C
  C52      1.0000 0.14430  0.42690  0.91980  Biso   1.000  C
  C53      1.0000 0.10570  0.67690  0.16980  Biso   1.000  C
  C54      1.0000 0.89430  0.32310  0.16980  Biso   1.000  C
  C55      1.0000 0.35570  0.57310  0.41980  Biso   1.000  C
  C56      1.0000 0.14430  0.92690  0.41980  Biso   1.000  C
  C57      1.0000 0.60570  0.17690  0.16980  Biso   1.000  C
  C58      1.0000 0.39430  0.82310  0.16980  Biso   1.000  C
  C59      1.0000 0.85570  0.07310  0.41980  Biso   1.000  C
  C60      1.0000 0.64430  0.42690  0.41980  Biso   1.000  C
  C61      1.0000 0.60570  0.67690  0.66980  Biso   1.000  C
  C62      1.0000 0.39430  0.32310  0.66980  Biso   1.000  C
  C63      1.0000 0.85570  0.57310  0.91980  Biso   1.000  C
  C64      1.0000 0.64430  0.92690  0.91980  Biso   1.000  C
  H17      1.0000 0.10240  0.20170  0.64300  Biso   1.000  H
  H18      1.0000 0.89760  0.79830  0.64300  Biso   1.000  H
  H19      1.0000 0.35240  0.04830  0.89300  Biso   1.000  H
  H20      1.0000 0.14760  0.45170  0.89300  Biso   1.000  H
  H21      1.0000 0.10240  0.70170  0.14300  Biso   1.000  H
  H22      1.0000 0.89760  0.29830  0.14300  Biso   1.000  H
  H23      1.0000 0.35240  0.54830  0.39300  Biso   1.000  H
  H24      1.0000 0.14760  0.95170  0.39300  Biso   1.000  H
  H25      1.0000 0.60240  0.20170  0.14300  Biso   1.000  H
  H26      1.0000 0.39760  0.79830  0.14300  Biso   1.000  H
  H27      1.0000 0.85240  0.04830  0.39300  Biso   1.000  H
  H28      1.0000 0.64760  0.45170  0.39300  Biso   1.000  H
  H29      1.0000 0.60240  0.70170  0.64300  Biso   1.000  H
  H30      1.0000 0.39760  0.29830  0.64300  Biso   1.000  H
  H31      1.0000 0.85240  0.54830  0.89300  Biso   1.000  H
  H32      1.0000 0.64760  0.95170  0.89300  Biso   1.000  H
  C65      1.0000 0.12520  0.15160  0.59630  Biso   1.000  C
  C66      1.0000 0.87480  0.84840  0.59630  Biso   1.000  C
  C67      1.0000 0.37520  0.09840  0.84630  Biso   1.000  C
  C68      1.0000 0.12480  0.40160  0.84630  Biso   1.000  C
  C69      1.0000 0.12520  0.65160  0.09630  Biso   1.000  C
  C70      1.0000 0.87480  0.34840  0.09630  Biso   1.000  C
  C71      1.0000 0.37520  0.59840  0.34630  Biso   1.000  C
  C72      1.0000 0.12480  0.90160  0.34630  Biso   1.000  C
  C73      1.0000 0.62520  0.15160  0.09630  Biso   1.000  C
  C74      1.0000 0.37480  0.84840  0.09630  Biso   1.000  C
  C75      1.0000 0.87520  0.09840  0.34630  Biso   1.000  C
  C76      1.0000 0.62480  0.40160  0.34630  Biso   1.000  C
  C77      1.0000 0.62520  0.65160  0.59630  Biso   1.000  C
  C78      1.0000 0.37480  0.34840  0.59630  Biso   1.000  C
  C79      1.0000 0.87520  0.59840  0.84630  Biso   1.000  C
  C80      1.0000 0.62480  0.90160  0.84630  Biso   1.000  C
  H33      1.0000 0.13870  0.15890  0.52220  Biso   1.000  H
  H34      1.0000 0.86130  0.84110  0.52220  Biso   1.000  H
  H35      1.0000 0.38870  0.09110  0.77220  Biso   1.000  H
  H36      1.0000 0.11130  0.40890  0.77220  Biso   1.000  H
  H37      1.0000 0.13870  0.65890  0.02220  Biso   1.000  H
  H38      1.0000 0.86130  0.34110  0.02220  Biso   1.000  H
  H39      1.0000 0.38870  0.59110  0.27220  Biso   1.000  H
  H40      1.0000 0.11130  0.90890  0.27220  Biso   1.000  H
  H41      1.0000 0.63870  0.15890  0.02220  Biso   1.000  H
  H42      1.0000 0.36130  0.84110  0.02220  Biso   1.000  H
  H43      1.0000 0.88870  0.09110  0.27220  Biso   1.000  H
  H44      1.0000 0.61130  0.40890  0.27220  Biso   1.000  H
  H45      1.0000 0.63870  0.65890  0.52220  Biso   1.000  H
  H46      1.0000 0.36130  0.34110  0.52220  Biso   1.000  H
  H47      1.0000 0.88870  0.59110  0.77220  Biso   1.000  H
  H48      1.0000 0.61130  0.90890  0.77220  Biso   1.000  H
  C81      1.0000 0.12560  0.11390  0.63010  Biso   1.000  C
  C82      1.0000 0.87440  0.88610  0.63010  Biso   1.000  C
  C83      1.0000 0.37560  0.13610  0.88010  Biso   1.000  C
  C84      1.0000 0.12440  0.36390  0.88010  Biso   1.000  C
  C85      1.0000 0.12560  0.61390  0.13010  Biso   1.000  C
  C86      1.0000 0.87440  0.38610  0.13010  Biso   1.000  C
  C87      1.0000 0.37560  0.63610  0.38010  Biso   1.000  C
  C88      1.0000 0.12440  0.86390  0.38010  Biso   1.000  C
  C89      1.0000 0.62560  0.11390  0.13010  Biso   1.000  C
  C90      1.0000 0.37440  0.88610  0.13010  Biso   1.000  C
  C91      1.0000 0.87560  0.13610  0.38010  Biso   1.000  C
  C92      1.0000 0.62440  0.36390  0.38010  Biso   1.000  C
  C93      1.0000 0.62560  0.61390  0.63010  Biso   1.000  C
  C94      1.0000 0.37440  0.38610  0.63010  Biso   1.000  C
  C95      1.0000 0.87560  0.63610  0.88010  Biso   1.000  C
  C96      1.0000 0.62440  0.86390  0.88010  Biso   1.000  C
  H49      1.0000 0.13900  0.09570  0.57830  Biso   1.000  H
  H50      1.0000 0.86100  0.90430  0.57830  Biso   1.000  H
  H51      1.0000 0.38900  0.15430  0.82830  Biso   1.000  H
  H52      1.0000 0.11100  0.34570  0.82830  Biso   1.000  H
  H53      1.0000 0.13900  0.59570  0.07830  Biso   1.000  H
  H54      1.0000 0.86100  0.40430  0.07830  Biso   1.000  H
  H55      1.0000 0.38900  0.65430  0.32830  Biso   1.000  H
  H56      1.0000 0.11100  0.84570  0.32830  Biso   1.000  H
  H57      1.0000 0.63900  0.09570  0.07830  Biso   1.000  H
  H58      1.0000 0.36100  0.90430  0.07830  Biso   1.000  H
  H59      1.0000 0.88900  0.15430  0.32830  Biso   1.000  H
  H60      1.0000 0.61100  0.34570  0.32830  Biso   1.000  H
  H61      1.0000 0.63900  0.59570  0.57830  Biso   1.000  H
  H62      1.0000 0.36100  0.40430  0.57830  Biso   1.000  H
  H63      1.0000 0.88900  0.65430  0.82830  Biso   1.000  H
  H64      1.0000 0.61100  0.84570  0.82830  Biso   1.000  H
  C97      1.0000 0.10670  0.10380  0.73730  Biso   1.000  C
  C98      1.0000 0.89330  0.89620  0.73730  Biso   1.000  C
  C99      1.0000 0.35670  0.14620  0.98730  Biso   1.000  C
  C100     1.0000 0.14330  0.35380  0.98730  Biso   1.000  C
  C101     1.0000 0.10670  0.60380  0.23730  Biso   1.000  C
  C102     1.0000 0.89330  0.39620  0.23730  Biso   1.000  C
  C103     1.0000 0.35670  0.64620  0.48730  Biso   1.000  C
  C104     1.0000 0.14330  0.85380  0.48730  Biso   1.000  C
  C105     1.0000 0.60670  0.10380  0.23730  Biso   1.000  C
  C106     1.0000 0.39330  0.89620  0.23730  Biso   1.000  C
  C107     1.0000 0.85670  0.14620  0.48730  Biso   1.000  C
  C108     1.0000 0.64330  0.35380  0.48730  Biso   1.000  C
  C109     1.0000 0.60670  0.60380  0.73730  Biso   1.000  C
  C110     1.0000 0.39330  0.39620  0.73730  Biso   1.000  C
  C111     1.0000 0.85670  0.64620  0.98730  Biso   1.000  C
  C112     1.0000 0.64330  0.85380  0.98730  Biso   1.000  C
  H65      1.0000 0.10670  0.07840  0.75790  Biso   1.000  H
  H66      1.0000 0.89330  0.92160  0.75790  Biso   1.000  H
  H67      1.0000 0.35670  0.17160  0.00790  Biso   1.000  H
  H68      1.0000 0.14330  0.32840  0.00790  Biso   1.000  H
  H69      1.0000 0.10670  0.57840  0.25790  Biso   1.000  H
  H70      1.0000 0.89330  0.42160  0.25790  Biso   1.000  H
  H71      1.0000 0.35670  0.67160  0.50790  Biso   1.000  H
  H72      1.0000 0.14330  0.82840  0.50790  Biso   1.000  H
  H73      1.0000 0.60670  0.07840  0.25790  Biso   1.000  H
  H74      1.0000 0.39330  0.92160  0.25790  Biso   1.000  H
  H75      1.0000 0.85670  0.17160  0.50790  Biso   1.000  H
  H76      1.0000 0.64330  0.32840  0.50790  Biso   1.000  H
  H77      1.0000 0.60670  0.57840  0.75790  Biso   1.000  H
  H78      1.0000 0.39330  0.42160  0.75790  Biso   1.000  H
  H79      1.0000 0.85670  0.67160  0.00790  Biso   1.000  H
  H80      1.0000 0.64330  0.82840  0.00790  Biso   1.000  H
  C113     1.0000 0.02950  0.11590  0.12690  Biso   1.000  C
  C114     1.0000 0.97050  0.88410  0.12690  Biso   1.000  C
  C115     1.0000 0.27950  0.13410  0.37690  Biso   1.000  C
  C116     1.0000 0.22050  0.36590  0.37690  Biso   1.000  C
  C117     1.0000 0.02950  0.61590  0.62690  Biso   1.000  C
  C118     1.0000 0.97050  0.38410  0.62690  Biso   1.000  C
  C119     1.0000 0.27950  0.63410  0.87690  Biso   1.000  C
  C120     1.0000 0.22050  0.86590  0.87690  Biso   1.000  C
  C121     1.0000 0.52950  0.11590  0.62690  Biso   1.000  C
  C122     1.0000 0.47050  0.88410  0.62690  Biso   1.000  C
  C123     1.0000 0.77950  0.13410  0.87690  Biso   1.000  C
  C124     1.0000 0.72050  0.36590  0.87690  Biso   1.000  C
  C125     1.0000 0.52950  0.61590  0.12690  Biso   1.000  C
  C126     1.0000 0.47050  0.38410  0.12690  Biso   1.000  C
  C127     1.0000 0.77950  0.63410  0.37690  Biso   1.000  C
  C128     1.0000 0.72050  0.86590  0.37690  Biso   1.000  C
  H81      1.0000 0.01910  0.09020  0.10900  Biso   1.000  H
  H82      1.0000 0.98090  0.90980  0.10900  Biso   1.000  H
  H83      1.0000 0.26910  0.15980  0.35900  Biso   1.000  H
  H84      1.0000 0.23090  0.34020  0.35900  Biso   1.000  H
  H85      1.0000 0.01910  0.59020  0.60900  Biso   1.000  H
  H86      1.0000 0.98090  0.40980  0.60900  Biso   1.000  H
  H87      1.0000 0.26910  0.65980  0.85900  Biso   1.000  H
  H88      1.0000 0.23090  0.84020  0.85900  Biso   1.000  H
  H89      1.0000 0.51910  0.09020  0.60900  Biso   1.000  H
  H90      1.0000 0.48090  0.90980  0.60900  Biso   1.000  H
  H91      1.0000 0.76910  0.15980  0.85900  Biso   1.000  H
  H92      1.0000 0.73090  0.34020  0.85900  Biso   1.000  H
  H93      1.0000 0.51910  0.59020  0.10900  Biso   1.000  H
  H94      1.0000 0.48090  0.40980  0.10900  Biso   1.000  H
  H95      1.0000 0.76910  0.65980  0.35900  Biso   1.000  H
  H96      1.0000 0.73090  0.84020  0.35900  Biso   1.000  H
  H97      1.0000 0.05540  0.11520  0.18960  Biso   1.000  H
  H98      1.0000 0.94460  0.88480  0.18960  Biso   1.000  H
  H99      1.0000 0.30540  0.13480  0.43960  Biso   1.000  H
  H100     1.0000 0.19460  0.36520  0.43960  Biso   1.000  H
  H101     1.0000 0.05540  0.61520  0.68960  Biso   1.000  H
  H102     1.0000 0.94460  0.38480  0.68960  Biso   1.000  H
  H103     1.0000 0.30540  0.63480  0.93960  Biso   1.000  H
  H104     1.0000 0.19460  0.86520  0.93960  Biso   1.000  H
  H105     1.0000 0.55540  0.11520  0.68960  Biso   1.000  H
  H106     1.0000 0.44460  0.88480  0.68960  Biso   1.000  H
  H107     1.0000 0.80540  0.13480  0.93960  Biso   1.000  H
  H108     1.0000 0.69460  0.36520  0.93960  Biso   1.000  H
  H109     1.0000 0.55540  0.61520  0.18960  Biso   1.000  H
  H110     1.0000 0.44460  0.38480  0.18960  Biso   1.000  H
  H111     1.0000 0.80540  0.63480  0.43960  Biso   1.000  H
  H112     1.0000 0.69460  0.86520  0.43960  Biso   1.000  H
  C129     1.0000 0.98630  0.13770  0.16660  Biso   1.000  C
  C130     1.0000 0.01370  0.86230  0.16660  Biso   1.000  C
  C131     1.0000 0.23630  0.11230  0.41660  Biso   1.000  C
  C132     1.0000 0.26370  0.38770  0.41660  Biso   1.000  C
  C133     1.0000 0.98630  0.63770  0.66660  Biso   1.000  C
  C134     1.0000 0.01370  0.36230  0.66660  Biso   1.000  C
  C135     1.0000 0.23630  0.61230  0.91660  Biso   1.000  C
  C136     1.0000 0.26370  0.88770  0.91660  Biso   1.000  C
  C137     1.0000 0.48630  0.13770  0.66660  Biso   1.000  C
  C138     1.0000 0.51370  0.86230  0.66660  Biso   1.000  C
  C139     1.0000 0.73630  0.11230  0.91660  Biso   1.000  C
  C140     1.0000 0.76370  0.38770  0.91660  Biso   1.000  C
  C141     1.0000 0.48630  0.63770  0.16660  Biso   1.000  C
  C142     1.0000 0.51370  0.36230  0.16660  Biso   1.000  C
  C143     1.0000 0.73630  0.61230  0.41660  Biso   1.000  C
  C144     1.0000 0.76370  0.88770  0.41660  Biso   1.000  C
  H113     1.0000 0.97730  0.13030  0.24820  Biso   1.000  H
  H114     1.0000 0.02270  0.86970  0.24820  Biso   1.000  H
  H115     1.0000 0.22730  0.11970  0.49820  Biso   1.000  H
  H116     1.0000 0.27270  0.38030  0.49820  Biso   1.000  H
  H117     1.0000 0.97730  0.63030  0.74820  Biso   1.000  H
  H118     1.0000 0.02270  0.36970  0.74820  Biso   1.000  H
  H119     1.0000 0.22730  0.61970  0.99820  Biso   1.000  H
  H120     1.0000 0.27270  0.88030  0.99820  Biso   1.000  H
  H121     1.0000 0.47730  0.13030  0.74820  Biso   1.000  H
  H122     1.0000 0.52270  0.86970  0.74820  Biso   1.000  H
  H123     1.0000 0.72730  0.11970  0.99820  Biso   1.000  H
  H124     1.0000 0.77270  0.38030  0.99820  Biso   1.000  H
  H125     1.0000 0.47730  0.63030  0.24820  Biso   1.000  H
  H126     1.0000 0.52270  0.36970  0.24820  Biso   1.000  H
  H127     1.0000 0.72730  0.61970  0.49820  Biso   1.000  H
  H128     1.0000 0.77270  0.88030  0.49820  Biso   1.000  H
  H129     1.0000 0.95740  0.13240  0.11470  Biso   1.000  H
  H130     1.0000 0.04260  0.86760  0.11470  Biso   1.000  H
  H131     1.0000 0.20740  0.11760  0.36470  Biso   1.000  H
  H132     1.0000 0.29260  0.38240  0.36470  Biso   1.000  H
  H133     1.0000 0.95740  0.63240  0.61470  Biso   1.000  H
  H134     1.0000 0.04260  0.36760  0.61470  Biso   1.000  H
  H135     1.0000 0.20740  0.61760  0.86470  Biso   1.000  H
  H136     1.0000 0.29260  0.88240  0.86470  Biso   1.000  H
  H137     1.0000 0.45740  0.13240  0.61470  Biso   1.000  H
  H138     1.0000 0.54260  0.86760  0.61470  Biso   1.000  H
  H139     1.0000 0.70740  0.11760  0.86470  Biso   1.000  H
  H140     1.0000 0.79260  0.38240  0.86470  Biso   1.000  H
  H141     1.0000 0.45740  0.63240  0.11470  Biso   1.000  H
  H142     1.0000 0.54260  0.36760  0.11470  Biso   1.000  H
  H143     1.0000 0.70740  0.61760  0.36470  Biso   1.000  H
  H144     1.0000 0.79260  0.88240  0.36470  Biso   1.000  H
  N17      1.0000 0.03600  0.24360  0.04060  Biso   1.000  N
  N18      1.0000 0.96400  0.75640  0.04060  Biso   1.000  N
  N19      1.0000 0.28600  0.00640  0.29060  Biso   1.000  N
  N20      1.0000 0.21400  0.49360  0.29060  Biso   1.000  N
  N21      1.0000 0.03600  0.74360  0.54060  Biso   1.000  N
  N22      1.0000 0.96400  0.25640  0.54060  Biso   1.000  N
  N23      1.0000 0.28600  0.50640  0.79060  Biso   1.000  N
  N24      1.0000 0.21400  0.99360  0.79060  Biso   1.000  N
  N25      1.0000 0.53600  0.24360  0.54060  Biso   1.000  N
  N26      1.0000 0.46400  0.75640  0.54060  Biso   1.000  N
  N27      1.0000 0.78600  0.00640  0.79060  Biso   1.000  N
  N28      1.0000 0.71400  0.49360  0.79060  Biso   1.000  N
  N29      1.0000 0.53600  0.74360  0.04060  Biso   1.000  N
  N30      1.0000 0.46400  0.25640  0.04060  Biso   1.000  N
  N31      1.0000 0.78600  0.50640  0.29060  Biso   1.000  N
  N32      1.0000 0.71400  0.99360  0.29060  Biso   1.000  N
  N33      1.0000 0.00530  0.44272  0.09210  Biso   1.000  N
  N34      1.0000 0.99470  0.55728  0.09210  Biso   1.000  N
  N35      1.0000 0.25530  0.80728  0.34210  Biso   1.000  N
  N36      1.0000 0.24470  0.69272  0.34210  Biso   1.000  N
  N37      1.0000 0.00530  0.94272  0.59210  Biso   1.000  N
  N38      1.0000 0.99470  0.05728  0.59210  Biso   1.000  N
  N39      1.0000 0.25530  0.30728  0.84210  Biso   1.000  N
  N40      1.0000 0.24470  0.19272  0.84210  Biso   1.000  N
  N41      1.0000 0.50530  0.44272  0.59210  Biso   1.000  N
  N42      1.0000 0.49470  0.55728  0.59210  Biso   1.000  N
  N43      1.0000 0.75530  0.80728  0.84210  Biso   1.000  N
  N44      1.0000 0.74470  0.69272  0.84210  Biso   1.000  N
  N45      1.0000 0.50530  0.94272  0.09210  Biso   1.000  N
  N46      1.0000 0.49470  0.05728  0.09210  Biso   1.000  N
  N47      1.0000 0.75530  0.30728  0.34210  Biso   1.000  N
  N48      1.0000 0.74470  0.19272  0.34210  Biso   1.000  N
  C145     1.0000 0.04740  0.26290  0.14670  Biso   1.000  C
  C146     1.0000 0.95260  0.73710  0.14670  Biso   1.000  C
  C147     1.0000 0.29740  0.98710  0.39670  Biso   1.000  C
  C148     1.0000 0.20260  0.51290  0.39670  Biso   1.000  C
  C149     1.0000 0.04740  0.76290  0.64670  Biso   1.000  C
  C150     1.0000 0.95260  0.23710  0.64670  Biso   1.000  C
  C151     1.0000 0.29740  0.48710  0.89670  Biso   1.000  C
  C152     1.0000 0.20260  0.01290  0.89670  Biso   1.000  C
  C153     1.0000 0.54740  0.26290  0.64670  Biso   1.000  C
  C154     1.0000 0.45260  0.73710  0.64670  Biso   1.000  C
  C155     1.0000 0.79740  0.98710  0.89670  Biso   1.000  C
  C156     1.0000 0.70260  0.51290  0.89670  Biso   1.000  C
  C157     1.0000 0.54740  0.76290  0.14670  Biso   1.000  C
  C158     1.0000 0.45260  0.23710  0.14670  Biso   1.000  C
  C159     1.0000 0.79740  0.48710  0.39670  Biso   1.000  C
  C160     1.0000 0.70260  0.01290  0.39670  Biso   1.000  C
  H145     1.0000 0.06220  0.24970  0.21020  Biso   1.000  H
  H146     1.0000 0.93780  0.75030  0.21020  Biso   1.000  H
  H147     1.0000 0.31220  0.00030  0.46020  Biso   1.000  H
  H148     1.0000 0.18780  0.49970  0.46020  Biso   1.000  H
  H149     1.0000 0.06220  0.74970  0.71020  Biso   1.000  H
  H150     1.0000 0.93780  0.25030  0.71020  Biso   1.000  H
  H151     1.0000 0.31220  0.50030  0.96020  Biso   1.000  H
  H152     1.0000 0.18780  0.99970  0.96020  Biso   1.000  H
  H153     1.0000 0.56220  0.24970  0.71020  Biso   1.000  H
  H154     1.0000 0.43780  0.75030  0.71020  Biso   1.000  H
  H155     1.0000 0.81220  0.00030  0.96020  Biso   1.000  H
  H156     1.0000 0.68780  0.49970  0.96020  Biso   1.000  H
  H157     1.0000 0.56220  0.74970  0.21020  Biso   1.000  H
  H158     1.0000 0.43780  0.25030  0.21020  Biso   1.000  H
  H159     1.0000 0.81220  0.50030  0.46020  Biso   1.000  H
  H160     1.0000 0.68780  0.99970  0.46020  Biso   1.000  H
  C161     1.0000 0.03770  0.30110  0.16110  Biso   1.000  C
  C162     1.0000 0.96230  0.69890  0.16110  Biso   1.000  C
  C163     1.0000 0.28770  0.94890  0.41110  Biso   1.000  C
  C164     1.0000 0.21230  0.55110  0.41110  Biso   1.000  C
  C165     1.0000 0.03770  0.80110  0.66110  Biso   1.000  C
  C166     1.0000 0.96230  0.19890  0.66110  Biso   1.000  C
  C167     1.0000 0.28770  0.44890  0.91110  Biso   1.000  C
  C168     1.0000 0.21230  0.05110  0.91110  Biso   1.000  C
  C169     1.0000 0.53770  0.30110  0.66110  Biso   1.000  C
  C170     1.0000 0.46230  0.69890  0.66110  Biso   1.000  C
  C171     1.0000 0.78770  0.94890  0.91110  Biso   1.000  C
  C172     1.0000 0.71230  0.55110  0.91110  Biso   1.000  C
  C173     1.0000 0.53770  0.80110  0.16110  Biso   1.000  C
  C174     1.0000 0.46230  0.19890  0.16110  Biso   1.000  C
  C175     1.0000 0.78770  0.44890  0.41110  Biso   1.000  C
  C176     1.0000 0.71230  0.05110  0.41110  Biso   1.000  C
  H161     1.0000 0.04350  0.31260  0.23530  Biso   1.000  H
  H162     1.0000 0.95650  0.68740  0.23530  Biso   1.000  H
  H163     1.0000 0.29350  0.93740  0.48530  Biso   1.000  H
  H164     1.0000 0.20650  0.56260  0.48530  Biso   1.000  H
  H165     1.0000 0.04350  0.81260  0.73530  Biso   1.000  H
  H166     1.0000 0.95650  0.18740  0.73530  Biso   1.000  H
  H167     1.0000 0.29350  0.43740  0.98530  Biso   1.000  H
  H168     1.0000 0.20650  0.06260  0.98530  Biso   1.000  H
  H169     1.0000 0.54350  0.31260  0.73530  Biso   1.000  H
  H170     1.0000 0.45650  0.68740  0.73530  Biso   1.000  H
  H171     1.0000 0.79350  0.93740  0.98530  Biso   1.000  H
  H172     1.0000 0.70650  0.56260  0.98530  Biso   1.000  H
  H173     1.0000 0.54350  0.81260  0.23530  Biso   1.000  H
  H174     1.0000 0.45650  0.18740  0.23530  Biso   1.000  H
  H175     1.0000 0.79350  0.43740  0.48530  Biso   1.000  H
  H176     1.0000 0.70650  0.06260  0.48530  Biso   1.000  H
  C177     1.0000 0.02000  0.32120  0.06860  Biso   1.000  C
  C178     1.0000 0.98000  0.67880  0.06860  Biso   1.000  C
  C179     1.0000 0.27000  0.92880  0.31860  Biso   1.000  C
  C180     1.0000 0.23000  0.57120  0.31860  Biso   1.000  C
  C181     1.0000 0.02000  0.82120  0.56860  Biso   1.000  C
  C182     1.0000 0.98000  0.17880  0.56860  Biso   1.000  C
  C183     1.0000 0.27000  0.42880  0.81860  Biso   1.000  C
  C184     1.0000 0.23000  0.07120  0.81860  Biso   1.000  C
  C185     1.0000 0.52000  0.32120  0.56860  Biso   1.000  C
  C186     1.0000 0.48000  0.67880  0.56860  Biso   1.000  C
  C187     1.0000 0.77000  0.92880  0.81860  Biso   1.000  C
  C188     1.0000 0.73000  0.57120  0.81860  Biso   1.000  C
  C189     1.0000 0.52000  0.82120  0.06860  Biso   1.000  C
  C190     1.0000 0.48000  0.17880  0.06860  Biso   1.000  C
  C191     1.0000 0.77000  0.42880  0.31860  Biso   1.000  C
  C192     1.0000 0.73000  0.07120  0.31860  Biso   1.000  C
  C193     1.0000 0.00740  0.30440  0.96160  Biso   1.000  C
  C194     1.0000 0.99260  0.69560  0.96160  Biso   1.000  C
  C195     1.0000 0.25740  0.94560  0.21160  Biso   1.000  C
  C196     1.0000 0.24260  0.55440  0.21160  Biso   1.000  C
  C197     1.0000 0.00740  0.80440  0.46160  Biso   1.000  C
  C198     1.0000 0.99260  0.19560  0.46160  Biso   1.000  C
  C199     1.0000 0.25740  0.44560  0.71160  Biso   1.000  C
  C200     1.0000 0.24260  0.05440  0.71160  Biso   1.000  C
  C201     1.0000 0.50740  0.30440  0.46160  Biso   1.000  C
  C202     1.0000 0.49260  0.69560  0.46160  Biso   1.000  C
  C203     1.0000 0.75740  0.94560  0.71160  Biso   1.000  C
  C204     1.0000 0.74260  0.55440  0.71160  Biso   1.000  C
  C205     1.0000 0.50740  0.80440  0.96160  Biso   1.000  C
  C206     1.0000 0.49260  0.19560  0.96160  Biso   1.000  C
  C207     1.0000 0.75740  0.44560  0.21160  Biso   1.000  C
  C208     1.0000 0.74260  0.05440  0.21160  Biso   1.000  C
  H177     1.0000 0.99290  0.31770  0.89790  Biso   1.000  H
  H178     1.0000 0.00710  0.68230  0.89790  Biso   1.000  H
  H179     1.0000 0.24290  0.93230  0.14790  Biso   1.000  H
  H180     1.0000 0.25710  0.56770  0.14790  Biso   1.000  H
  H181     1.0000 0.99290  0.81770  0.39790  Biso   1.000  H
  H182     1.0000 0.00710  0.18230  0.39790  Biso   1.000  H
  H183     1.0000 0.24290  0.43230  0.64790  Biso   1.000  H
  H184     1.0000 0.25710  0.06770  0.64790  Biso   1.000  H
  H185     1.0000 0.49290  0.31770  0.39790  Biso   1.000  H
  H186     1.0000 0.50710  0.68230  0.39790  Biso   1.000  H
  H187     1.0000 0.74290  0.93230  0.64790  Biso   1.000  H
  H188     1.0000 0.75710  0.56770  0.64790  Biso   1.000  H
  H189     1.0000 0.49290  0.81770  0.89790  Biso   1.000  H
  H190     1.0000 0.50710  0.18230  0.89790  Biso   1.000  H
  H191     1.0000 0.74290  0.43230  0.14790  Biso   1.000  H
  H192     1.0000 0.75710  0.06770  0.14790  Biso   1.000  H
  C209     1.0000 0.01820  0.26500  0.95450  Biso   1.000  C
  C210     1.0000 0.98180  0.73500  0.95450  Biso   1.000  C
  C211     1.0000 0.26820  0.98500  0.20450  Biso   1.000  C
  C212     1.0000 0.23180  0.51500  0.20450  Biso   1.000  C
  C213     1.0000 0.01820  0.76500  0.45450  Biso   1.000  C
  C214     1.0000 0.98180  0.23500  0.45450  Biso   1.000  C
  C215     1.0000 0.26820  0.48500  0.70450  Biso   1.000  C
  C216     1.0000 0.23180  0.01500  0.70450  Biso   1.000  C
  C217     1.0000 0.51820  0.26500  0.45450  Biso   1.000  C
  C218     1.0000 0.48180  0.73500  0.45450  Biso   1.000  C
  C219     1.0000 0.76820  0.98500  0.70450  Biso   1.000  C
  C220     1.0000 0.73180  0.51500  0.70450  Biso   1.000  C
  C221     1.0000 0.51820  0.76500  0.95450  Biso   1.000  C
  C222     1.0000 0.48180  0.23500  0.95450  Biso   1.000  C
  C223     1.0000 0.76820  0.48500  0.20450  Biso   1.000  C
  C224     1.0000 0.73180  0.01500  0.20450  Biso   1.000  C
  H193     1.0000 0.01180  0.25340  0.88080  Biso   1.000  H
  H194     1.0000 0.98820  0.74660  0.88080  Biso   1.000  H
  H195     1.0000 0.26180  0.99660  0.13080  Biso   1.000  H
  H196     1.0000 0.23820  0.50340  0.13080  Biso   1.000  H
  H197     1.0000 0.01180  0.75340  0.38080  Biso   1.000  H
  H198     1.0000 0.98820  0.24660  0.38080  Biso   1.000  H
  H199     1.0000 0.26180  0.49660  0.63080  Biso   1.000  H
  H200     1.0000 0.23820  0.00340  0.63080  Biso   1.000  H
  H201     1.0000 0.51180  0.25340  0.38080  Biso   1.000  H
  H202     1.0000 0.48820  0.74660  0.38080  Biso   1.000  H
  H203     1.0000 0.76180  0.99660  0.63080  Biso   1.000  H
  H204     1.0000 0.73820  0.50340  0.63080  Biso   1.000  H
  H205     1.0000 0.51180  0.75340  0.88080  Biso   1.000  H
  H206     1.0000 0.48820  0.24660  0.88080  Biso   1.000  H
  H207     1.0000 0.76180  0.49660  0.13080  Biso   1.000  H
  H208     1.0000 0.73820  0.00340  0.13080  Biso   1.000  H
  C225     1.0000 0.01300  0.36420  0.08120  Biso   1.000  C
  C226     1.0000 0.98700  0.63580  0.08120  Biso   1.000  C
  C227     1.0000 0.26300  0.88580  0.33120  Biso   1.000  C
  C228     1.0000 0.23700  0.61420  0.33120  Biso   1.000  C
  C229     1.0000 0.01300  0.86420  0.58120  Biso   1.000  C
  C230     1.0000 0.98700  0.13580  0.58120  Biso   1.000  C
  C231     1.0000 0.26300  0.38580  0.83120  Biso   1.000  C
  C232     1.0000 0.23700  0.11420  0.83120  Biso   1.000  C
  C233     1.0000 0.51300  0.36420  0.58120  Biso   1.000  C
  C234     1.0000 0.48700  0.63580  0.58120  Biso   1.000  C
  C235     1.0000 0.76300  0.88580  0.83120  Biso   1.000  C
  C236     1.0000 0.73700  0.61420  0.83120  Biso   1.000  C
  C237     1.0000 0.51300  0.86420  0.08120  Biso   1.000  C
  C238     1.0000 0.48700  0.13580  0.08120  Biso   1.000  C
  C239     1.0000 0.76300  0.38580  0.33120  Biso   1.000  C
  C240     1.0000 0.73700  0.11420  0.33120  Biso   1.000  C
  C241     1.0000 0.03960  0.38580  0.16270  Biso   1.000  C
  C242     1.0000 0.96040  0.61420  0.16270  Biso   1.000  C
  C243     1.0000 0.28960  0.86420  0.41270  Biso   1.000  C
  C244     1.0000 0.21040  0.63580  0.41270  Biso   1.000  C
  C245     1.0000 0.03960  0.88580  0.66270  Biso   1.000  C
  C246     1.0000 0.96040  0.11420  0.66270  Biso   1.000  C
  C247     1.0000 0.28960  0.36420  0.91270  Biso   1.000  C
  C248     1.0000 0.21040  0.13580  0.91270  Biso   1.000  C
  C249     1.0000 0.53960  0.38580  0.66270  Biso   1.000  C
  C250     1.0000 0.46040  0.61420  0.66270  Biso   1.000  C
  C251     1.0000 0.78960  0.86420  0.91270  Biso   1.000  C
  C252     1.0000 0.71040  0.63580  0.91270  Biso   1.000  C
  C253     1.0000 0.53960  0.88580  0.16270  Biso   1.000  C
  C254     1.0000 0.46040  0.11420  0.16270  Biso   1.000  C
  C255     1.0000 0.78960  0.36420  0.41270  Biso   1.000  C
  C256     1.0000 0.71040  0.13580  0.41270  Biso   1.000  C
  H209     1.0000 0.06110  0.37390  0.21750  Biso   1.000  H
  H210     1.0000 0.93890  0.62610  0.21750  Biso   1.000  H
  H211     1.0000 0.31110  0.87610  0.46750  Biso   1.000  H
  H212     1.0000 0.18890  0.62390  0.46750  Biso   1.000  H
  H213     1.0000 0.06110  0.87390  0.71750  Biso   1.000  H
  H214     1.0000 0.93890  0.12610  0.71750  Biso   1.000  H
  H215     1.0000 0.31110  0.37610  0.96750  Biso   1.000  H
  H216     1.0000 0.18890  0.12390  0.96750  Biso   1.000  H
  H217     1.0000 0.56110  0.37390  0.71750  Biso   1.000  H
  H218     1.0000 0.43890  0.62610  0.71750  Biso   1.000  H
  H219     1.0000 0.81110  0.87610  0.96750  Biso   1.000  H
  H220     1.0000 0.68890  0.62390  0.96750  Biso   1.000  H
  H221     1.0000 0.56110  0.87390  0.21750  Biso   1.000  H
  H222     1.0000 0.43890  0.12610  0.21750  Biso   1.000  H
  H223     1.0000 0.81110  0.37610  0.46750  Biso   1.000  H
  H224     1.0000 0.68890  0.12390  0.46750  Biso   1.000  H
  C257     1.0000 0.03570  0.42370  0.16610  Biso   1.000  C
  C258     1.0000 0.96430  0.57630  0.16610  Biso   1.000  C
  C259     1.0000 0.28570  0.82630  0.41610  Biso   1.000  C
  C260     1.0000 0.21430  0.67370  0.41610  Biso   1.000  C
  C261     1.0000 0.03570  0.92370  0.66610  Biso   1.000  C
  C262     1.0000 0.96430  0.07630  0.66610  Biso   1.000  C
  C263     1.0000 0.28570  0.32630  0.91610  Biso   1.000  C
  C264     1.0000 0.21430  0.17370  0.91610  Biso   1.000  C
  C265     1.0000 0.53570  0.42370  0.66610  Biso   1.000  C
  C266     1.0000 0.46430  0.57630  0.66610  Biso   1.000  C
  C267     1.0000 0.78570  0.82630  0.91610  Biso   1.000  C
  C268     1.0000 0.71430  0.67370  0.91610  Biso   1.000  C
  C269     1.0000 0.53570  0.92370  0.16610  Biso   1.000  C
  C270     1.0000 0.46430  0.07630  0.16610  Biso   1.000  C
  C271     1.0000 0.78570  0.32630  0.41610  Biso   1.000  C
  C272     1.0000 0.71430  0.17370  0.41610  Biso   1.000  C
  H225     1.0000 0.05490  0.43700  0.22230  Biso   1.000  H
  H226     1.0000 0.94510  0.56300  0.22230  Biso   1.000  H
  H227     1.0000 0.30490  0.81300  0.47230  Biso   1.000  H
  H228     1.0000 0.19510  0.68700  0.47230  Biso   1.000  H
  H229     1.0000 0.05490  0.93700  0.72230  Biso   1.000  H
  H230     1.0000 0.94510  0.06300  0.72230  Biso   1.000  H
  H231     1.0000 0.30490  0.31300  0.97230  Biso   1.000  H
  H232     1.0000 0.19510  0.18700  0.97230  Biso   1.000  H
  H233     1.0000 0.55490  0.43700  0.72230  Biso   1.000  H
  H234     1.0000 0.44510  0.56300  0.72230  Biso   1.000  H
  H235     1.0000 0.80490  0.81300  0.97230  Biso   1.000  H
  H236     1.0000 0.69510  0.68700  0.97230  Biso   1.000  H
  H237     1.0000 0.55490  0.93700  0.22230  Biso   1.000  H
  H238     1.0000 0.44510  0.06300  0.22230  Biso   1.000  H
  H239     1.0000 0.80490  0.31300  0.47230  Biso   1.000  H
  H240     1.0000 0.69510  0.18700  0.47230  Biso   1.000  H
  C273     1.0000 0.97980  0.42220  0.00700  Biso   1.000  C
  C274     1.0000 0.02020  0.57780  0.00700  Biso   1.000  C
  C275     1.0000 0.22980  0.82780  0.25700  Biso   1.000  C
  C276     1.0000 0.27020  0.67220  0.25700  Biso   1.000  C
  C277     1.0000 0.97980  0.92220  0.50700  Biso   1.000  C
  C278     1.0000 0.02020  0.07780  0.50700  Biso   1.000  C
  C279     1.0000 0.22980  0.32780  0.75700  Biso   1.000  C
  C280     1.0000 0.27020  0.17220  0.75700  Biso   1.000  C
  C281     1.0000 0.47980  0.42220  0.50700  Biso   1.000  C
  C282     1.0000 0.52020  0.57780  0.50700  Biso   1.000  C
  C283     1.0000 0.72980  0.82780  0.75700  Biso   1.000  C
  C284     1.0000 0.77020  0.67220  0.75700  Biso   1.000  C
  C285     1.0000 0.47980  0.92220  0.00700  Biso   1.000  C
  C286     1.0000 0.52020  0.07780  0.00700  Biso   1.000  C
  C287     1.0000 0.72980  0.32780  0.25700  Biso   1.000  C
  C288     1.0000 0.77020  0.17220  0.25700  Biso   1.000  C
  H241     1.0000 0.96030  0.43500  0.94980  Biso   1.000  H
  H242     1.0000 0.03970  0.56500  0.94980  Biso   1.000  H
  H243     1.0000 0.21030  0.81500  0.19980  Biso   1.000  H
  H244     1.0000 0.28970  0.68500  0.19980  Biso   1.000  H
  H245     1.0000 0.96030  0.93500  0.44980  Biso   1.000  H
  H246     1.0000 0.03970  0.06500  0.44980  Biso   1.000  H
  H247     1.0000 0.21030  0.31500  0.69980  Biso   1.000  H
  H248     1.0000 0.28970  0.18500  0.69980  Biso   1.000  H
  H249     1.0000 0.46030  0.43500  0.44980  Biso   1.000  H
  H250     1.0000 0.53970  0.56500  0.44980  Biso   1.000  H
  H251     1.0000 0.71030  0.81500  0.69980  Biso   1.000  H
  H252     1.0000 0.78970  0.68500  0.69980  Biso   1.000  H
  H253     1.0000 0.46030  0.93500  0.94980  Biso   1.000  H
  H254     1.0000 0.53970  0.06500  0.94980  Biso   1.000  H
  H255     1.0000 0.71030  0.31500  0.19980  Biso   1.000  H
  H256     1.0000 0.78970  0.18500  0.19980  Biso   1.000  H
  C289     1.0000 0.98190  0.38250  0.00220  Biso   1.000  C
  C290     1.0000 0.01810  0.61750  0.00220  Biso   1.000  C
  C291     1.0000 0.23190  0.86750  0.25220  Biso   1.000  C
  C292     1.0000 0.26810  0.63250  0.25220  Biso   1.000  C
  C293     1.0000 0.98190  0.88250  0.50220  Biso   1.000  C
  C294     1.0000 0.01810  0.11750  0.50220  Biso   1.000  C
  C295     1.0000 0.23190  0.36750  0.75220  Biso   1.000  C
  C296     1.0000 0.26810  0.13250  0.75220  Biso   1.000  C
  C297     1.0000 0.48190  0.38250  0.50220  Biso   1.000  C
  C298     1.0000 0.51810  0.61750  0.50220  Biso   1.000  C
  C299     1.0000 0.73190  0.86750  0.75220  Biso   1.000  C
  C300     1.0000 0.76810  0.63250  0.75220  Biso   1.000  C
  C301     1.0000 0.48190  0.88250  0.00220  Biso   1.000  C
  C302     1.0000 0.51810  0.11750  0.00220  Biso   1.000  C
  C303     1.0000 0.73190  0.36750  0.25220  Biso   1.000  C
  C304     1.0000 0.76810  0.13250  0.25220  Biso   1.000  C
  H257     1.0000 0.96250  0.36910  0.94640  Biso   1.000  H
  H258     1.0000 0.03750  0.63090  0.94640  Biso   1.000  H
  H259     1.0000 0.21250  0.88090  0.19640  Biso   1.000  H
  H260     1.0000 0.28750  0.61910  0.19640  Biso   1.000  H
  H261     1.0000 0.96250  0.86910  0.44640  Biso   1.000  H
  H262     1.0000 0.03750  0.13090  0.44640  Biso   1.000  H
  H263     1.0000 0.21250  0.38090  0.69640  Biso   1.000  H
  H264     1.0000 0.28750  0.11910  0.69640  Biso   1.000  H
  H265     1.0000 0.46250  0.36910  0.44640  Biso   1.000  H
  H266     1.0000 0.53750  0.63090  0.44640  Biso   1.000  H
  H267     1.0000 0.71250  0.88090  0.69640  Biso   1.000  H
  H268     1.0000 0.78750  0.61910  0.69640  Biso   1.000  H
  H269     1.0000 0.46250  0.86910  0.94640  Biso   1.000  H
  H270     1.0000 0.53750  0.13090  0.94640  Biso   1.000  H
  H271     1.0000 0.71250  0.38090  0.19640  Biso   1.000  H
  H272     1.0000 0.78750  0.11910  0.19640  Biso   1.000  H
  Cu17     1.0000 0.00000  0.50000  0.09050  Biso   1.000  Cu
  Cu18     1.0000 0.25000  0.75000  0.34050  Biso   1.000  Cu
  Cu19     1.0000 0.00000  0.00000  0.59050  Biso   1.000  Cu
  Cu20     1.0000 0.25000  0.25000  0.84050  Biso   1.000  Cu
  Cu21     1.0000 0.50000  0.50000  0.59050  Biso   1.000  Cu
  Cu22     1.0000 0.75000  0.75000  0.84050  Biso   1.000  Cu
  Cu23     1.0000 0.50000  0.00000  0.09050  Biso   1.000  Cu
  Cu24     1.0000 0.75000  0.25000  0.34050  Biso   1.000  Cu
  N49      1.0000 0.00000  0.50000  0.90810  Biso   1.000  N
  N50      1.0000 0.25000  0.75000  0.15810  Biso   1.000  N
  N51      1.0000 0.00000  0.00000  0.40810  Biso   1.000  N
  N52      1.0000 0.25000  0.25000  0.65810  Biso   1.000  N
  N53      1.0000 0.50000  0.50000  0.40810  Biso   1.000  N
  N54      1.0000 0.75000  0.75000  0.65810  Biso   1.000  N
  N55      1.0000 0.50000  0.00000  0.90810  Biso   1.000  N
  N56      1.0000 0.75000  0.25000  0.15810  Biso   1.000  N
  N57      1.0000 0.00000  0.50000  0.27020  Biso   1.000  N
  N58      1.0000 0.25000  0.75000  0.52020  Biso   1.000  N
  N59      1.0000 0.00000  0.00000  0.77020  Biso   1.000  N
  N60      1.0000 0.25000  0.25000  0.02020  Biso   1.000  N
  N61      1.0000 0.50000  0.50000  0.77020  Biso   1.000  N
  N62      1.0000 0.75000  0.75000  0.02020  Biso   1.000  N
  N63      1.0000 0.50000  0.00000  0.27020  Biso   1.000  N
  N64      1.0000 0.75000  0.25000  0.52020  Biso   1.000  N
  C305     1.0000 0.96460  0.51910  0.84580  Biso   1.000  C
  C306     1.0000 0.03540  0.48090  0.84580  Biso   1.000  C
  C307     1.0000 0.21460  0.73090  0.09580  Biso   1.000  C
  C308     1.0000 0.28540  0.76910  0.09580  Biso   1.000  C
  C309     1.0000 0.96460  0.01910  0.34580  Biso   1.000  C
  C310     1.0000 0.03540  0.98090  0.34580  Biso   1.000  C
  C311     1.0000 0.21460  0.23090  0.59580  Biso   1.000  C
  C312     1.0000 0.28540  0.26910  0.59580  Biso   1.000  C
  C313     1.0000 0.46460  0.51910  0.34580  Biso   1.000  C
  C314     1.0000 0.53540  0.48090  0.34580  Biso   1.000  C
  C315     1.0000 0.71460  0.73090  0.59580  Biso   1.000  C
  C316     1.0000 0.78540  0.76910  0.59580  Biso   1.000  C
  C317     1.0000 0.46460  0.01910  0.84580  Biso   1.000  C
  C318     1.0000 0.53540  0.98090  0.84580  Biso   1.000  C
  C319     1.0000 0.71460  0.23090  0.09580  Biso   1.000  C
  C320     1.0000 0.78540  0.26910  0.09580  Biso   1.000  C
  H273     1.0000 0.93930  0.53210  0.88730  Biso   1.000  H
  H274     1.0000 0.06070  0.46790  0.88730  Biso   1.000  H
  H275     1.0000 0.18930  0.71790  0.13730  Biso   1.000  H
  H276     1.0000 0.31070  0.78210  0.13730  Biso   1.000  H
  H277     1.0000 0.93930  0.03210  0.38730  Biso   1.000  H
  H278     1.0000 0.06070  0.96790  0.38730  Biso   1.000  H
  H279     1.0000 0.18930  0.21790  0.63730  Biso   1.000  H
  H280     1.0000 0.31070  0.28210  0.63730  Biso   1.000  H
  H281     1.0000 0.43930  0.53210  0.38730  Biso   1.000  H
  H282     1.0000 0.56070  0.46790  0.38730  Biso   1.000  H
  H283     1.0000 0.68930  0.71790  0.63730  Biso   1.000  H
  H284     1.0000 0.81070  0.78210  0.63730  Biso   1.000  H
  H285     1.0000 0.43930  0.03210  0.88730  Biso   1.000  H
  H286     1.0000 0.56070  0.96790  0.88730  Biso   1.000  H
  H287     1.0000 0.68930  0.21790  0.13730  Biso   1.000  H
  H288     1.0000 0.81070  0.28210  0.13730  Biso   1.000  H
  C321     1.0000 0.96510  0.51980  0.71840  Biso   1.000  C
  C322     1.0000 0.03490  0.48020  0.71840  Biso   1.000  C
  C323     1.0000 0.21510  0.73020  0.96840  Biso   1.000  C
  C324     1.0000 0.28490  0.76980  0.96840  Biso   1.000  C
  C325     1.0000 0.96510  0.01980  0.21840  Biso   1.000  C
  C326     1.0000 0.03490  0.98020  0.21840  Biso   1.000  C
  C327     1.0000 0.21510  0.23020  0.46840  Biso   1.000  C
  C328     1.0000 0.28490  0.26980  0.46840  Biso   1.000  C
  C329     1.0000 0.46510  0.51980  0.21840  Biso   1.000  C
  C330     1.0000 0.53490  0.48020  0.21840  Biso   1.000  C
  C331     1.0000 0.71510  0.73020  0.46840  Biso   1.000  C
  C332     1.0000 0.78490  0.76980  0.46840  Biso   1.000  C
  C333     1.0000 0.46510  0.01980  0.71840  Biso   1.000  C
  C334     1.0000 0.53490  0.98020  0.71840  Biso   1.000  C
  C335     1.0000 0.71510  0.23020  0.96840  Biso   1.000  C
  C336     1.0000 0.78490  0.26980  0.96840  Biso   1.000  C
  H289     1.0000 0.94070  0.53430  0.67830  Biso   1.000  H
  H290     1.0000 0.05930  0.46570  0.67830  Biso   1.000  H
  H291     1.0000 0.19070  0.71570  0.92830  Biso   1.000  H
  H292     1.0000 0.30930  0.78430  0.92830  Biso   1.000  H
  H293     1.0000 0.94070  0.03430  0.17830  Biso   1.000  H
  H294     1.0000 0.05930  0.96570  0.17830  Biso   1.000  H
  H295     1.0000 0.19070  0.21570  0.42830  Biso   1.000  H
  H296     1.0000 0.30930  0.28430  0.42830  Biso   1.000  H
  H297     1.0000 0.44070  0.53430  0.17830  Biso   1.000  H
  H298     1.0000 0.55930  0.46570  0.17830  Biso   1.000  H
  H299     1.0000 0.69070  0.71570  0.42830  Biso   1.000  H
  H300     1.0000 0.80930  0.78430  0.42830  Biso   1.000  H
  H301     1.0000 0.44070  0.03430  0.67830  Biso   1.000  H
  H302     1.0000 0.55930  0.96570  0.67830  Biso   1.000  H
  H303     1.0000 0.69070  0.21570  0.92830  Biso   1.000  H
  H304     1.0000 0.80930  0.28430  0.92830  Biso   1.000  H
  C337     1.0000 0.00000  0.50000  0.65200  Biso   1.000  C
  C338     1.0000 0.25000  0.75000  0.90200  Biso   1.000  C
  C339     1.0000 0.00000  0.00000  0.15200  Biso   1.000  C
  C340     1.0000 0.25000  0.25000  0.40200  Biso   1.000  C
  C341     1.0000 0.50000  0.50000  0.15200  Biso   1.000  C
  C342     1.0000 0.75000  0.75000  0.40200  Biso   1.000  C
  C343     1.0000 0.50000  0.00000  0.65200  Biso   1.000  C
  C344     1.0000 0.75000  0.25000  0.90200  Biso   1.000  C
  C345     1.0000 0.00000  0.50000  0.52020  Biso   1.000  C
  C346     1.0000 0.25000  0.75000  0.77020  Biso   1.000  C
  C347     1.0000 0.00000  0.00000  0.02020  Biso   1.000  C
  C348     1.0000 0.25000  0.25000  0.27020  Biso   1.000  C
  C349     1.0000 0.50000  0.50000  0.02020  Biso   1.000  C
  C350     1.0000 0.75000  0.75000  0.27020  Biso   1.000  C
  C351     1.0000 0.50000  0.00000  0.52020  Biso   1.000  C
  C352     1.0000 0.75000  0.25000  0.77020  Biso   1.000  C
  C353     1.0000 0.04370  0.50750  0.45800  Biso   1.000  C
  C354     1.0000 0.95630  0.49250  0.45800  Biso   1.000  C
  C355     1.0000 0.29370  0.74250  0.70800  Biso   1.000  C
  C356     1.0000 0.20630  0.75750  0.70800  Biso   1.000  C
  C357     1.0000 0.04370  0.00750  0.95800  Biso   1.000  C
  C358     1.0000 0.95630  0.99250  0.95800  Biso   1.000  C
  C359     1.0000 0.29370  0.24250  0.20800  Biso   1.000  C
  C360     1.0000 0.20630  0.25750  0.20800  Biso   1.000  C
  C361     1.0000 0.54370  0.50750  0.95800  Biso   1.000  C
  C362     1.0000 0.45630  0.49250  0.95800  Biso   1.000  C
  C363     1.0000 0.79370  0.74250  0.20800  Biso   1.000  C
  C364     1.0000 0.70630  0.75750  0.20800  Biso   1.000  C
  C365     1.0000 0.54370  0.00750  0.45800  Biso   1.000  C
  C366     1.0000 0.45630  0.99250  0.45800  Biso   1.000  C
  C367     1.0000 0.79370  0.24250  0.70800  Biso   1.000  C
  C368     1.0000 0.70630  0.25750  0.70800  Biso   1.000  C
  H305     1.0000 0.07390  0.51290  0.49840  Biso   1.000  H
  H306     1.0000 0.92610  0.48710  0.49840  Biso   1.000  H
  H307     1.0000 0.32390  0.73710  0.74840  Biso   1.000  H
  H308     1.0000 0.17610  0.76290  0.74840  Biso   1.000  H
  H309     1.0000 0.07390  0.01290  0.99840  Biso   1.000  H
  H310     1.0000 0.92610  0.98710  0.99840  Biso   1.000  H
  H311     1.0000 0.32390  0.23710  0.24840  Biso   1.000  H
  H312     1.0000 0.17610  0.26290  0.24840  Biso   1.000  H
  H313     1.0000 0.57390  0.51290  0.99840  Biso   1.000  H
  H314     1.0000 0.42610  0.48710  0.99840  Biso   1.000  H
  H315     1.0000 0.82390  0.73710  0.24840  Biso   1.000  H
  H316     1.0000 0.67610  0.76290  0.24840  Biso   1.000  H
  H317     1.0000 0.57390  0.01290  0.49840  Biso   1.000  H
  H318     1.0000 0.42610  0.98710  0.49840  Biso   1.000  H
  H319     1.0000 0.82390  0.23710  0.74840  Biso   1.000  H
  H320     1.0000 0.67610  0.26290  0.74840  Biso   1.000  H
  C369     1.0000 0.04180  0.50700  0.33080  Biso   1.000  C
  C370     1.0000 0.95820  0.49300  0.33080  Biso   1.000  C
  C371     1.0000 0.29180  0.74300  0.58080  Biso   1.000  C
  C372     1.0000 0.20820  0.75700  0.58080  Biso   1.000  C
  C373     1.0000 0.04180  0.00700  0.83080  Biso   1.000  C
  C374     1.0000 0.95820  0.99300  0.83080  Biso   1.000  C
  C375     1.0000 0.29180  0.24300  0.08080  Biso   1.000  C
  C376     1.0000 0.20820  0.25700  0.08080  Biso   1.000  C
  C377     1.0000 0.54180  0.50700  0.83080  Biso   1.000  C
  C378     1.0000 0.45820  0.49300  0.83080  Biso   1.000  C
  C379     1.0000 0.79180  0.74300  0.08080  Biso   1.000  C
  C380     1.0000 0.70820  0.75700  0.08080  Biso   1.000  C
  C381     1.0000 0.54180  0.00700  0.33080  Biso   1.000  C
  C382     1.0000 0.45820  0.99300  0.33080  Biso   1.000  C
  C383     1.0000 0.79180  0.24300  0.58080  Biso   1.000  C
  C384     1.0000 0.70820  0.25700  0.58080  Biso   1.000  C
  H321     1.0000 0.07160  0.51180  0.28800  Biso   1.000  H
  H322     1.0000 0.92840  0.48820  0.28800  Biso   1.000  H
  H323     1.0000 0.32160  0.73820  0.53800  Biso   1.000  H
  H324     1.0000 0.17840  0.76180  0.53800  Biso   1.000  H
  H325     1.0000 0.07160  0.01180  0.78800  Biso   1.000  H
  H326     1.0000 0.92840  0.98820  0.78800  Biso   1.000  H
  H327     1.0000 0.32160  0.23820  0.03800  Biso   1.000  H
  H328     1.0000 0.17840  0.26180  0.03800  Biso   1.000  H
  H329     1.0000 0.57160  0.51180  0.78800  Biso   1.000  H
  H330     1.0000 0.42840  0.48820  0.78800  Biso   1.000  H
  H331     1.0000 0.82160  0.73820  0.03800  Biso   1.000  H
  H332     1.0000 0.67840  0.76180  0.03800  Biso   1.000  H
  H333     1.0000 0.57160  0.01180  0.28800  Biso   1.000  H
  H334     1.0000 0.42840  0.98820  0.28800  Biso   1.000  H
  H335     1.0000 0.82160  0.23820  0.53800  Biso   1.000  H
  H336     1.0000 0.67840  0.26180  0.53800  Biso   1.000  H
  N65      1.0000 0.13630  0.17860  0.22230  Biso   1.000  N
  N66      1.0000 0.86370  0.82140  0.22230  Biso   1.000  N
  N67      1.0000 0.38630  0.07140  0.47230  Biso   1.000  N
  N68      1.0000 0.11370  0.42860  0.47230  Biso   1.000  N
  N69      1.0000 0.13630  0.67860  0.72230  Biso   1.000  N
  N70      1.0000 0.86370  0.32140  0.72230  Biso   1.000  N
  N71      1.0000 0.38630  0.57140  0.97230  Biso   1.000  N
  N72      1.0000 0.11370  0.92860  0.97230  Biso   1.000  N
  N73      1.0000 0.63630  0.17860  0.72230  Biso   1.000  N
  N74      1.0000 0.36370  0.82140  0.72230  Biso   1.000  N
  N75      1.0000 0.88630  0.07140  0.97230  Biso   1.000  N
  N76      1.0000 0.61370  0.42860  0.97230  Biso   1.000  N
  N77      1.0000 0.63630  0.67860  0.22230  Biso   1.000  N
  N78      1.0000 0.36370  0.32140  0.22230  Biso   1.000  N
  N79      1.0000 0.88630  0.57140  0.47230  Biso   1.000  N
  N80      1.0000 0.61370  0.92860  0.47230  Biso   1.000  N
  O33      1.0000 0.12480  0.19060  0.11460  Biso   1.000  O
  O34      1.0000 0.87520  0.80940  0.11460  Biso   1.000  O
  O35      1.0000 0.37480  0.05940  0.36460  Biso   1.000  O
  O36      1.0000 0.12520  0.44060  0.36460  Biso   1.000  O
  O37      1.0000 0.12480  0.69060  0.61460  Biso   1.000  O
  O38      1.0000 0.87520  0.30940  0.61460  Biso   1.000  O
  O39      1.0000 0.37480  0.55940  0.86460  Biso   1.000  O
  O40      1.0000 0.12520  0.94060  0.86460  Biso   1.000  O
  O41      1.0000 0.62480  0.19060  0.61460  Biso   1.000  O
  O42      1.0000 0.37520  0.80940  0.61460  Biso   1.000  O
  O43      1.0000 0.87480  0.05940  0.86460  Biso   1.000  O
  O44      1.0000 0.62520  0.44060  0.86460  Biso   1.000  O
  O45      1.0000 0.62480  0.69060  0.11460  Biso   1.000  O
  O46      1.0000 0.37520  0.30940  0.11460  Biso   1.000  O
  O47      1.0000 0.87480  0.55940  0.36460  Biso   1.000  O
  O48      1.0000 0.62520  0.94060  0.36460  Biso   1.000  O
  O49      1.0000 0.11030  0.18780  0.30100  Biso   1.000  O
  O50      1.0000 0.88970  0.81220  0.30100  Biso   1.000  O
  O51      1.0000 0.36030  0.06220  0.55100  Biso   1.000  O
  O52      1.0000 0.13970  0.43780  0.55100  Biso   1.000  O
  O53      1.0000 0.11030  0.68780  0.80100  Biso   1.000  O
  O54      1.0000 0.88970  0.31220  0.80100  Biso   1.000  O
  O55      1.0000 0.36030  0.56220  0.05100  Biso   1.000  O
  O56      1.0000 0.13970  0.93780  0.05100  Biso   1.000  O
  O57      1.0000 0.61030  0.18780  0.80100  Biso   1.000  O
  O58      1.0000 0.38970  0.81220  0.80100  Biso   1.000  O
  O59      1.0000 0.86030  0.06220  0.05100  Biso   1.000  O
  O60      1.0000 0.63970  0.43780  0.05100  Biso   1.000  O
  O61      1.0000 0.61030  0.68780  0.30100  Biso   1.000  O
  O62      1.0000 0.38970  0.31220  0.30100  Biso   1.000  O
  O63      1.0000 0.86030  0.56220  0.55100  Biso   1.000  O
  O64      1.0000 0.63970  0.93780  0.55100  Biso   1.000  O
  O65      1.0000 0.18170  0.16800  0.22270  Biso   1.000  O
  O66      1.0000 0.81830  0.83200  0.22270  Biso   1.000  O
  O67      1.0000 0.43170  0.08200  0.47270  Biso   1.000  O
  O68      1.0000 0.06830  0.41800  0.47270  Biso   1.000  O
  O69      1.0000 0.18170  0.66800  0.72270  Biso   1.000  O
  O70      1.0000 0.81830  0.33200  0.72270  Biso   1.000  O
  O71      1.0000 0.43170  0.58200  0.97270  Biso   1.000  O
  O72      1.0000 0.06830  0.91800  0.97270  Biso   1.000  O
  O73      1.0000 0.68170  0.16800  0.72270  Biso   1.000  O
  O74      1.0000 0.31830  0.83200  0.72270  Biso   1.000  O
  O75      1.0000 0.93170  0.08200  0.97270  Biso   1.000  O
  O76      1.0000 0.56830  0.41800  0.97270  Biso   1.000  O
  O77      1.0000 0.68170  0.66800  0.22270  Biso   1.000  O
  O78      1.0000 0.31830  0.33200  0.22270  Biso   1.000  O
  O79      1.0000 0.93170  0.58200  0.47270  Biso   1.000  O
  O80      1.0000 0.56830  0.91800  0.47270  Biso   1.000  O
  N81      1.0000 0.85460  0.45280  0.77900  Biso   1.000  N
  N82      1.0000 0.14540  0.54720  0.77900  Biso   1.000  N
  N83      1.0000 0.10460  0.79720  0.02900  Biso   1.000  N
  N84      1.0000 0.39540  0.70280  0.02900  Biso   1.000  N
  N85      1.0000 0.85460  0.95280  0.27900  Biso   1.000  N
  N86      1.0000 0.14540  0.04720  0.27900  Biso   1.000  N
  N87      1.0000 0.10460  0.29720  0.52900  Biso   1.000  N
  N88      1.0000 0.39540  0.20280  0.52900  Biso   1.000  N
  N89      1.0000 0.35460  0.45280  0.27900  Biso   1.000  N
  N90      1.0000 0.64540  0.54720  0.27900  Biso   1.000  N
  N91      1.0000 0.60460  0.79720  0.52900  Biso   1.000  N
  N92      1.0000 0.89540  0.70280  0.52900  Biso   1.000  N
  N93      1.0000 0.35460  0.95280  0.77900  Biso   1.000  N
  N94      1.0000 0.64540  0.04720  0.77900  Biso   1.000  N
  N95      1.0000 0.60460  0.29720  0.02900  Biso   1.000  N
  N96      1.0000 0.89540  0.20280  0.02900  Biso   1.000  N
  O81      1.0000 0.90030  0.44830  0.75590  Biso   1.000  O
  O82      1.0000 0.09970  0.55170  0.75590  Biso   1.000  O
  O83      1.0000 0.15030  0.80170  0.00590  Biso   1.000  O
  O84      1.0000 0.34970  0.69830  0.00590  Biso   1.000  O
  O85      1.0000 0.90030  0.94830  0.25590  Biso   1.000  O
  O86      1.0000 0.09970  0.05170  0.25590  Biso   1.000  O
  O87      1.0000 0.15030  0.30170  0.50590  Biso   1.000  O
  O88      1.0000 0.34970  0.19830  0.50590  Biso   1.000  O
  O89      1.0000 0.40030  0.44830  0.25590  Biso   1.000  O
  O90      1.0000 0.59970  0.55170  0.25590  Biso   1.000  O
  O91      1.0000 0.65030  0.80170  0.50590  Biso   1.000  O
  O92      1.0000 0.84970  0.69830  0.50590  Biso   1.000  O
  O93      1.0000 0.40030  0.94830  0.75590  Biso   1.000  O
  O94      1.0000 0.59970  0.05170  0.75590  Biso   1.000  O
  O95      1.0000 0.65030  0.30170  0.00590  Biso   1.000  O
  O96      1.0000 0.84970  0.19830  0.00590  Biso   1.000  O
  O97      1.0000 0.84290  0.45920  0.88870  Biso   1.000  O
  O98      1.0000 0.15710  0.54080  0.88870  Biso   1.000  O
  O99      1.0000 0.09290  0.79080  0.13870  Biso   1.000  O
  O100     1.0000 0.40710  0.70920  0.13870  Biso   1.000  O
  O101     1.0000 0.84290  0.95920  0.38870  Biso   1.000  O
  O102     1.0000 0.15710  0.04080  0.38870  Biso   1.000  O
  O103     1.0000 0.09290  0.29080  0.63870  Biso   1.000  O
  O104     1.0000 0.40710  0.20920  0.63870  Biso   1.000  O
  O105     1.0000 0.34290  0.45920  0.38870  Biso   1.000  O
  O106     1.0000 0.65710  0.54080  0.38870  Biso   1.000  O
  O107     1.0000 0.59290  0.79080  0.63870  Biso   1.000  O
  O108     1.0000 0.90710  0.70920  0.63870  Biso   1.000  O
  O109     1.0000 0.34290  0.95920  0.88870  Biso   1.000  O
  O110     1.0000 0.65710  0.04080  0.88870  Biso   1.000  O
  O111     1.0000 0.59290  0.29080  0.13870  Biso   1.000  O
  O112     1.0000 0.90710  0.20920  0.13870  Biso   1.000  O
  O113     1.0000 0.82200  0.44680  0.70270  Biso   1.000  O
  O114     1.0000 0.17800  0.55320  0.70270  Biso   1.000  O
  O115     1.0000 0.07200  0.80320  0.95270  Biso   1.000  O
  O116     1.0000 0.42800  0.69680  0.95270  Biso   1.000  O
  O117     1.0000 0.82200  0.94680  0.20270  Biso   1.000  O
  O118     1.0000 0.17800  0.05320  0.20270  Biso   1.000  O
  O119     1.0000 0.07200  0.30320  0.45270  Biso   1.000  O
  O120     1.0000 0.42800  0.19680  0.45270  Biso   1.000  O
  O121     1.0000 0.32200  0.44680  0.20270  Biso   1.000  O
  O122     1.0000 0.67800  0.55320  0.20270  Biso   1.000  O
  O123     1.0000 0.57200  0.80320  0.45270  Biso   1.000  O
  O124     1.0000 0.92800  0.69680  0.45270  Biso   1.000  O
  O125     1.0000 0.32200  0.94680  0.70270  Biso   1.000  O
  O126     1.0000 0.67800  0.05320  0.70270  Biso   1.000  O
  O127     1.0000 0.57200  0.30320  0.95270  Biso   1.000  O
  O128     1.0000 0.92800  0.19680  0.95270  Biso   1.000  O
  O129     1.0000 0.89996  0.49491  0.08180  Biso   1.000  O
  O130     1.0000 0.10004  0.50509  0.08180  Biso   1.000  O
  O131     1.0000 0.14996  0.75509  0.33180  Biso   1.000  O
  O132     1.0000 0.35004  0.74491  0.33180  Biso   1.000  O
  O133     1.0000 0.89996  0.99491  0.58180  Biso   1.000  O
  O134     1.0000 0.10004  0.00509  0.58180  Biso   1.000  O
  O135     1.0000 0.14996  0.25509  0.83180  Biso   1.000  O
  O136     1.0000 0.35004  0.24491  0.83180  Biso   1.000  O
  O137     1.0000 0.39996  0.49491  0.58180  Biso   1.000  O
  O138     1.0000 0.60004  0.50509  0.58180  Biso   1.000  O
  O139     1.0000 0.64996  0.75509  0.83180  Biso   1.000  O
  O140     1.0000 0.85004  0.74491  0.83180  Biso   1.000  O
  O141     1.0000 0.39996  0.99491  0.08180  Biso   1.000  O
  O142     1.0000 0.60004  0.00509  0.08180  Biso   1.000  O
  O143     1.0000 0.64996  0.25509  0.33180  Biso   1.000  O
  O144     1.0000 0.85004  0.24491  0.33180  Biso   1.000  O
  H337     1.0000 0.88250  0.47710  0.05900  Biso   1.000  H
  H338     1.0000 0.11750  0.52290  0.05900  Biso   1.000  H
  H339     1.0000 0.13250  0.77290  0.30900  Biso   1.000  H
  H340     1.0000 0.36750  0.72710  0.30900  Biso   1.000  H
  H341     1.0000 0.88250  0.97710  0.55900  Biso   1.000  H
  H342     1.0000 0.11750  0.02290  0.55900  Biso   1.000  H
  H343     1.0000 0.13250  0.27290  0.80900  Biso   1.000  H
  H344     1.0000 0.36750  0.22710  0.80900  Biso   1.000  H
  H345     1.0000 0.38250  0.47710  0.55900  Biso   1.000  H
  H346     1.0000 0.61750  0.52290  0.55900  Biso   1.000  H
  H347     1.0000 0.63250  0.77290  0.80900  Biso   1.000  H
  H348     1.0000 0.86750  0.72710  0.80900  Biso   1.000  H
  H349     1.0000 0.38250  0.97710  0.05900  Biso   1.000  H
  H350     1.0000 0.61750  0.02290  0.05900  Biso   1.000  H
  H351     1.0000 0.63250  0.27290  0.30900  Biso   1.000  H
  H352     1.0000 0.86750  0.22710  0.30900  Biso   1.000  H
  H353     1.0000 0.88200  0.51330  0.09700  Biso   1.000  H
  H354     1.0000 0.11800  0.48670  0.09700  Biso   1.000  H
  H355     1.0000 0.13200  0.73670  0.34700  Biso   1.000  H
  H356     1.0000 0.36800  0.76330  0.34700  Biso   1.000  H
  H357     1.0000 0.88200  0.01330  0.59700  Biso   1.000  H
  H358     1.0000 0.11800  0.98670  0.59700  Biso   1.000  H
  H359     1.0000 0.13200  0.23670  0.84700  Biso   1.000  H
  H360     1.0000 0.36800  0.26330  0.84700  Biso   1.000  H
  H361     1.0000 0.38200  0.51330  0.59700  Biso   1.000  H
  H362     1.0000 0.61800  0.48670  0.59700  Biso   1.000  H
  H363     1.0000 0.63200  0.73670  0.84700  Biso   1.000  H
  H364     1.0000 0.86800  0.76330  0.84700  Biso   1.000  H
  H365     1.0000 0.38200  0.01330  0.09700  Biso   1.000  H
  H366     1.0000 0.61800  0.98670  0.09700  Biso   1.000  H
  H367     1.0000 0.63200  0.23670  0.34700  Biso   1.000  H
  H368     1.0000 0.86800  0.26330  0.34700  Biso   1.000  H
