data_image0
_cell_length_a       20.7431
_cell_length_b       20.7431
_cell_length_c       31.709
_cell_angle_alpha    90
_cell_angle_beta     90
_cell_angle_gamma    90

_symmetry_space_group_name_H-M    "P 1"
_symmetry_int_tables_number       1

loop_
  _symmetry_equiv_pos_as_xyz
  'x, y, z'

loop_
  _atom_site_label
  _atom_site_occupancy
  _atom_site_fract_x
  _atom_site_fract_y
  _atom_site_fract_z
  _atom_site_thermal_displace_type
  _atom_site_B_iso_or_equiv
  _atom_site_type_symbol
  Cu1      1.0000 0.46975  0.99994  0.03680  Biso   1.000  Cu
  Cu2      1.0000 0.25006  0.21975  0.28680  Biso   1.000  Cu
  Cu3      1.0000 0.24994  0.78025  0.78680  Biso   1.000  Cu
  Cu4      1.0000 0.24994  0.21975  0.71320  Biso   1.000  Cu
  Cu5      1.0000 0.25006  0.78025  0.21320  Biso   1.000  Cu
  Cu6      1.0000 0.96975  0.49994  0.53680  Biso   1.000  Cu
  Cu7      1.0000 0.75006  0.71975  0.78680  Biso   1.000  Cu
  Cu8      1.0000 0.74994  0.28025  0.28680  Biso   1.000  Cu
  Cu9      1.0000 0.74994  0.71975  0.21320  Biso   1.000  Cu
  Cu10     1.0000 0.03025  0.00006  0.53680  Biso   1.000  Cu
  Cu11     1.0000 0.03025  0.99994  0.96320  Biso   1.000  Cu
  Cu12     1.0000 0.46975  0.00006  0.46320  Biso   1.000  Cu
  Cu13     1.0000 0.53025  0.50006  0.03680  Biso   1.000  Cu
  Cu14     1.0000 0.53025  0.49994  0.46320  Biso   1.000  Cu
  Cu15     1.0000 0.96975  0.50006  0.96320  Biso   1.000  Cu
  Cu16     1.0000 0.75006  0.28025  0.71320  Biso   1.000  Cu
  Cu17     1.0000 0.53025  0.00006  0.96320  Biso   1.000  Cu
  Cu18     1.0000 0.24994  0.28025  0.21320  Biso   1.000  Cu
  Cu19     1.0000 0.25006  0.71975  0.71320  Biso   1.000  Cu
  Cu20     1.0000 0.25006  0.28025  0.78680  Biso   1.000  Cu
  Cu21     1.0000 0.24994  0.71975  0.28680  Biso   1.000  Cu
  Cu22     1.0000 0.03025  0.50006  0.46320  Biso   1.000  Cu
  Cu23     1.0000 0.74994  0.78025  0.71320  Biso   1.000  Cu
  Cu24     1.0000 0.75006  0.21975  0.21320  Biso   1.000  Cu
  Cu25     1.0000 0.75006  0.78025  0.28680  Biso   1.000  Cu
  Cu26     1.0000 0.96975  0.99994  0.46320  Biso   1.000  Cu
  Cu27     1.0000 0.96975  0.00006  0.03680  Biso   1.000  Cu
  Cu28     1.0000 0.53025  0.99994  0.53680  Biso   1.000  Cu
  Cu29     1.0000 0.46975  0.49994  0.96320  Biso   1.000  Cu
  Cu30     1.0000 0.46975  0.50006  0.53680  Biso   1.000  Cu
  Cu31     1.0000 0.03025  0.49994  0.03680  Biso   1.000  Cu
  Cu32     1.0000 0.74994  0.21975  0.78680  Biso   1.000  Cu
  O1       1.0000 0.51680  0.08150  0.04552  Biso   1.000  O
  O2       1.0000 0.16850  0.26680  0.29552  Biso   1.000  O
  O3       1.0000 0.33150  0.73320  0.79552  Biso   1.000  O
  O4       1.0000 0.33150  0.26680  0.70448  Biso   1.000  O
  O5       1.0000 0.16850  0.73320  0.20448  Biso   1.000  O
  O6       1.0000 0.01680  0.58150  0.54552  Biso   1.000  O
  O7       1.0000 0.66850  0.76680  0.79552  Biso   1.000  O
  O8       1.0000 0.83150  0.23320  0.29552  Biso   1.000  O
  O9       1.0000 0.83150  0.76680  0.20448  Biso   1.000  O
  O10      1.0000 0.98320  0.91850  0.54552  Biso   1.000  O
  O11      1.0000 0.98320  0.08150  0.95448  Biso   1.000  O
  O12      1.0000 0.51680  0.91850  0.45448  Biso   1.000  O
  O13      1.0000 0.48320  0.41850  0.04552  Biso   1.000  O
  O14      1.0000 0.48320  0.58150  0.45448  Biso   1.000  O
  O15      1.0000 0.01680  0.41850  0.95448  Biso   1.000  O
  O16      1.0000 0.66850  0.23320  0.70448  Biso   1.000  O
  O17      1.0000 0.48320  0.91850  0.95448  Biso   1.000  O
  O18      1.0000 0.33150  0.23320  0.20448  Biso   1.000  O
  O19      1.0000 0.16850  0.76680  0.70448  Biso   1.000  O
  O20      1.0000 0.16850  0.23320  0.79552  Biso   1.000  O
  O21      1.0000 0.33150  0.76680  0.29552  Biso   1.000  O
  O22      1.0000 0.98320  0.41850  0.45448  Biso   1.000  O
  O23      1.0000 0.83150  0.73320  0.70448  Biso   1.000  O
  O24      1.0000 0.66850  0.26680  0.20448  Biso   1.000  O
  O25      1.0000 0.66850  0.73320  0.29552  Biso   1.000  O
  O26      1.0000 0.01680  0.08150  0.45448  Biso   1.000  O
  O27      1.0000 0.01680  0.91850  0.04552  Biso   1.000  O
  O28      1.0000 0.48320  0.08150  0.54552  Biso   1.000  O
  O29      1.0000 0.51680  0.58150  0.95448  Biso   1.000  O
  O30      1.0000 0.51680  0.41850  0.54552  Biso   1.000  O
  O31      1.0000 0.98320  0.58150  0.04552  Biso   1.000  O
  O32      1.0000 0.83150  0.26680  0.79552  Biso   1.000  O
  O33      1.0000 0.56740  0.08200  0.98375  Biso   1.000  O
  O34      1.0000 0.16800  0.31740  0.23375  Biso   1.000  O
  O35      1.0000 0.33200  0.68260  0.73375  Biso   1.000  O
  O36      1.0000 0.33200  0.31740  0.76625  Biso   1.000  O
  O37      1.0000 0.16800  0.68260  0.26625  Biso   1.000  O
  O38      1.0000 0.06740  0.58200  0.48375  Biso   1.000  O
  O39      1.0000 0.66800  0.81740  0.73375  Biso   1.000  O
  O40      1.0000 0.83200  0.18260  0.23375  Biso   1.000  O
  O41      1.0000 0.83200  0.81740  0.26625  Biso   1.000  O
  O42      1.0000 0.93260  0.91800  0.48375  Biso   1.000  O
  O43      1.0000 0.93260  0.08200  0.01625  Biso   1.000  O
  O44      1.0000 0.56740  0.91800  0.51625  Biso   1.000  O
  O45      1.0000 0.43260  0.41800  0.98375  Biso   1.000  O
  O46      1.0000 0.43260  0.58200  0.51625  Biso   1.000  O
  O47      1.0000 0.06740  0.41800  0.01625  Biso   1.000  O
  O48      1.0000 0.66800  0.18260  0.76625  Biso   1.000  O
  O49      1.0000 0.43260  0.91800  0.01625  Biso   1.000  O
  O50      1.0000 0.33200  0.18260  0.26625  Biso   1.000  O
  O51      1.0000 0.16800  0.81740  0.76625  Biso   1.000  O
  O52      1.0000 0.16800  0.18260  0.73375  Biso   1.000  O
  O53      1.0000 0.33200  0.81740  0.23375  Biso   1.000  O
  O54      1.0000 0.93260  0.41800  0.51625  Biso   1.000  O
  O55      1.0000 0.83200  0.68260  0.76625  Biso   1.000  O
  O56      1.0000 0.66800  0.31740  0.26625  Biso   1.000  O
  O57      1.0000 0.66800  0.68260  0.23375  Biso   1.000  O
  O58      1.0000 0.06740  0.08200  0.51625  Biso   1.000  O
  O59      1.0000 0.06740  0.91800  0.98375  Biso   1.000  O
  O60      1.0000 0.43260  0.08200  0.48375  Biso   1.000  O
  O61      1.0000 0.56740  0.58200  0.01625  Biso   1.000  O
  O62      1.0000 0.56740  0.41800  0.48375  Biso   1.000  O
  O63      1.0000 0.93260  0.58200  0.98375  Biso   1.000  O
  O64      1.0000 0.83200  0.31740  0.73375  Biso   1.000  O
  O65      1.0000 0.54500  0.95200  0.05626  Biso   1.000  O
  O66      1.0000 0.29800  0.29500  0.30626  Biso   1.000  O
  O67      1.0000 0.20200  0.70500  0.80626  Biso   1.000  O
  O68      1.0000 0.20200  0.29500  0.69374  Biso   1.000  O
  O69      1.0000 0.29800  0.70500  0.19374  Biso   1.000  O
  O70      1.0000 0.04500  0.45200  0.55626  Biso   1.000  O
  O71      1.0000 0.79800  0.79500  0.80626  Biso   1.000  O
  O72      1.0000 0.70200  0.20500  0.30626  Biso   1.000  O
  O73      1.0000 0.70200  0.79500  0.19374  Biso   1.000  O
  O74      1.0000 0.95500  0.04800  0.55626  Biso   1.000  O
  O75      1.0000 0.95500  0.95200  0.94374  Biso   1.000  O
  O76      1.0000 0.54500  0.04800  0.44374  Biso   1.000  O
  O77      1.0000 0.45500  0.54800  0.05626  Biso   1.000  O
  O78      1.0000 0.45500  0.45200  0.44374  Biso   1.000  O
  O79      1.0000 0.04500  0.54800  0.94374  Biso   1.000  O
  O80      1.0000 0.79800  0.20500  0.69374  Biso   1.000  O
  O81      1.0000 0.45500  0.04800  0.94374  Biso   1.000  O
  O82      1.0000 0.20200  0.20500  0.19374  Biso   1.000  O
  O83      1.0000 0.29800  0.79500  0.69374  Biso   1.000  O
  O84      1.0000 0.29800  0.20500  0.80626  Biso   1.000  O
  O85      1.0000 0.20200  0.79500  0.30626  Biso   1.000  O
  O86      1.0000 0.95500  0.54800  0.44374  Biso   1.000  O
  O87      1.0000 0.70200  0.70500  0.69374  Biso   1.000  O
  O88      1.0000 0.79800  0.29500  0.19374  Biso   1.000  O
  O89      1.0000 0.79800  0.70500  0.30626  Biso   1.000  O
  O90      1.0000 0.04500  0.95200  0.44374  Biso   1.000  O
  O91      1.0000 0.04500  0.04800  0.05626  Biso   1.000  O
  O92      1.0000 0.45500  0.95200  0.55626  Biso   1.000  O
  O93      1.0000 0.54500  0.45200  0.94374  Biso   1.000  O
  O94      1.0000 0.54500  0.54800  0.55626  Biso   1.000  O
  O95      1.0000 0.95500  0.45200  0.05626  Biso   1.000  O
  O96      1.0000 0.70200  0.29500  0.80626  Biso   1.000  O
  O97      1.0000 0.59610  0.95230  0.99363  Biso   1.000  O
  O98      1.0000 0.29770  0.34610  0.24363  Biso   1.000  O
  O99      1.0000 0.20230  0.65390  0.74363  Biso   1.000  O
  O100     1.0000 0.20230  0.34610  0.75637  Biso   1.000  O
  O101     1.0000 0.29770  0.65390  0.25637  Biso   1.000  O
  O102     1.0000 0.09610  0.45230  0.49363  Biso   1.000  O
  O103     1.0000 0.79770  0.84610  0.74363  Biso   1.000  O
  O104     1.0000 0.70230  0.15390  0.24363  Biso   1.000  O
  O105     1.0000 0.70230  0.84610  0.25637  Biso   1.000  O
  O106     1.0000 0.90390  0.04770  0.49363  Biso   1.000  O
  O107     1.0000 0.90390  0.95230  0.00637  Biso   1.000  O
  O108     1.0000 0.59610  0.04770  0.50637  Biso   1.000  O
  O109     1.0000 0.40390  0.54770  0.99363  Biso   1.000  O
  O110     1.0000 0.40390  0.45230  0.50637  Biso   1.000  O
  O111     1.0000 0.09610  0.54770  0.00637  Biso   1.000  O
  O112     1.0000 0.79770  0.15390  0.75637  Biso   1.000  O
  O113     1.0000 0.40390  0.04770  0.00637  Biso   1.000  O
  O114     1.0000 0.20230  0.15390  0.25637  Biso   1.000  O
  O115     1.0000 0.29770  0.84610  0.75637  Biso   1.000  O
  O116     1.0000 0.29770  0.15390  0.74363  Biso   1.000  O
  O117     1.0000 0.20230  0.84610  0.24363  Biso   1.000  O
  O118     1.0000 0.90390  0.54770  0.50637  Biso   1.000  O
  O119     1.0000 0.70230  0.65390  0.75637  Biso   1.000  O
  O120     1.0000 0.79770  0.34610  0.25637  Biso   1.000  O
  O121     1.0000 0.79770  0.65390  0.24363  Biso   1.000  O
  O122     1.0000 0.09610  0.95230  0.50637  Biso   1.000  O
  O123     1.0000 0.09610  0.04770  0.99363  Biso   1.000  O
  O124     1.0000 0.40390  0.95230  0.49363  Biso   1.000  O
  O125     1.0000 0.59610  0.45230  0.00637  Biso   1.000  O
  O126     1.0000 0.59610  0.54770  0.49363  Biso   1.000  O
  O127     1.0000 0.90390  0.45230  0.99363  Biso   1.000  O
  O128     1.0000 0.70230  0.34610  0.74363  Biso   1.000  O
  O129     1.0000 0.50000  0.25000  0.92040  Biso   1.000  O
  O130     1.0000 0.00000  0.25000  0.17040  Biso   1.000  O
  O131     1.0000 0.50000  0.75000  0.67040  Biso   1.000  O
  O132     1.0000 0.50000  0.25000  0.82960  Biso   1.000  O
  O133     1.0000 0.00000  0.75000  0.32960  Biso   1.000  O
  O134     1.0000 0.00000  0.75000  0.42040  Biso   1.000  O
  O135     1.0000 0.00000  0.25000  0.07960  Biso   1.000  O
  O136     1.0000 0.50000  0.75000  0.57960  Biso   1.000  O
  O137     1.0000 0.50000  0.75000  0.07960  Biso   1.000  O
  O138     1.0000 0.50000  0.25000  0.32960  Biso   1.000  O
  O139     1.0000 0.00000  0.75000  0.82960  Biso   1.000  O
  O140     1.0000 0.00000  0.25000  0.67040  Biso   1.000  O
  O141     1.0000 0.50000  0.75000  0.17040  Biso   1.000  O
  O142     1.0000 0.00000  0.25000  0.57960  Biso   1.000  O
  O143     1.0000 0.00000  0.75000  0.92040  Biso   1.000  O
  O144     1.0000 0.50000  0.25000  0.42040  Biso   1.000  O
  N1       1.0000 0.41810  0.00170  0.09628  Biso   1.000  N
  N2       1.0000 0.24830  0.16810  0.34628  Biso   1.000  N
  N3       1.0000 0.25170  0.83190  0.84628  Biso   1.000  N
  N4       1.0000 0.25170  0.16810  0.65372  Biso   1.000  N
  N5       1.0000 0.24830  0.83190  0.15372  Biso   1.000  N
  N6       1.0000 0.91810  0.50170  0.59628  Biso   1.000  N
  N7       1.0000 0.74830  0.66810  0.84628  Biso   1.000  N
  N8       1.0000 0.75170  0.33190  0.34628  Biso   1.000  N
  N9       1.0000 0.75170  0.66810  0.15372  Biso   1.000  N
  N10      1.0000 0.08190  0.99830  0.59628  Biso   1.000  N
  N11      1.0000 0.08190  0.00170  0.90372  Biso   1.000  N
  N12      1.0000 0.41810  0.99830  0.40372  Biso   1.000  N
  N13      1.0000 0.58190  0.49830  0.09628  Biso   1.000  N
  N14      1.0000 0.58190  0.50170  0.40372  Biso   1.000  N
  N15      1.0000 0.91810  0.49830  0.90372  Biso   1.000  N
  N16      1.0000 0.74830  0.33190  0.65372  Biso   1.000  N
  N17      1.0000 0.58190  0.99830  0.90372  Biso   1.000  N
  N18      1.0000 0.25170  0.33190  0.15372  Biso   1.000  N
  N19      1.0000 0.24830  0.66810  0.65372  Biso   1.000  N
  N20      1.0000 0.24830  0.33190  0.84628  Biso   1.000  N
  N21      1.0000 0.25170  0.66810  0.34628  Biso   1.000  N
  N22      1.0000 0.08190  0.49830  0.40372  Biso   1.000  N
  N23      1.0000 0.75170  0.83190  0.65372  Biso   1.000  N
  N24      1.0000 0.74830  0.16810  0.15372  Biso   1.000  N
  N25      1.0000 0.74830  0.83190  0.34628  Biso   1.000  N
  N26      1.0000 0.91810  0.00170  0.40372  Biso   1.000  N
  N27      1.0000 0.91810  0.99830  0.09628  Biso   1.000  N
  N28      1.0000 0.58190  0.00170  0.59628  Biso   1.000  N
  N29      1.0000 0.41810  0.50170  0.90372  Biso   1.000  N
  N30      1.0000 0.41810  0.49830  0.59628  Biso   1.000  N
  N31      1.0000 0.08190  0.50170  0.09628  Biso   1.000  N
  N32      1.0000 0.75170  0.16810  0.84628  Biso   1.000  N
  C1       1.0000 0.55350  0.10650  0.01840  Biso   1.000  C
  C2       1.0000 0.14350  0.30350  0.26840  Biso   1.000  C
  C3       1.0000 0.35650  0.69650  0.76840  Biso   1.000  C
  C4       1.0000 0.35650  0.30350  0.73160  Biso   1.000  C
  C5       1.0000 0.14350  0.69650  0.23160  Biso   1.000  C
  C6       1.0000 0.05350  0.60650  0.51840  Biso   1.000  C
  C7       1.0000 0.64350  0.80350  0.76840  Biso   1.000  C
  C8       1.0000 0.85650  0.19650  0.26840  Biso   1.000  C
  C9       1.0000 0.85650  0.80350  0.23160  Biso   1.000  C
  C10      1.0000 0.94650  0.89350  0.51840  Biso   1.000  C
  C11      1.0000 0.94650  0.10650  0.98160  Biso   1.000  C
  C12      1.0000 0.55350  0.89350  0.48160  Biso   1.000  C
  C13      1.0000 0.44650  0.39350  0.01840  Biso   1.000  C
  C14      1.0000 0.44650  0.60650  0.48160  Biso   1.000  C
  C15      1.0000 0.05350  0.39350  0.98160  Biso   1.000  C
  C16      1.0000 0.64350  0.19650  0.73160  Biso   1.000  C
  C17      1.0000 0.44650  0.89350  0.98160  Biso   1.000  C
  C18      1.0000 0.35650  0.19650  0.23160  Biso   1.000  C
  C19      1.0000 0.14350  0.80350  0.73160  Biso   1.000  C
  C20      1.0000 0.14350  0.19650  0.76840  Biso   1.000  C
  C21      1.0000 0.35650  0.80350  0.26840  Biso   1.000  C
  C22      1.0000 0.94650  0.39350  0.48160  Biso   1.000  C
  C23      1.0000 0.85650  0.69650  0.73160  Biso   1.000  C
  C24      1.0000 0.64350  0.30350  0.23160  Biso   1.000  C
  C25      1.0000 0.64350  0.69650  0.26840  Biso   1.000  C
  C26      1.0000 0.05350  0.10650  0.48160  Biso   1.000  C
  C27      1.0000 0.05350  0.89350  0.01840  Biso   1.000  C
  C28      1.0000 0.44650  0.10650  0.51840  Biso   1.000  C
  C29      1.0000 0.55350  0.60650  0.98160  Biso   1.000  C
  C30      1.0000 0.55350  0.39350  0.51840  Biso   1.000  C
  C31      1.0000 0.94650  0.60650  0.01840  Biso   1.000  C
  C32      1.0000 0.85650  0.30350  0.76840  Biso   1.000  C
  C33      1.0000 0.58340  0.17000  0.02780  Biso   1.000  C
  C34      1.0000 0.08000  0.33340  0.27780  Biso   1.000  C
  C35      1.0000 0.42000  0.66660  0.77780  Biso   1.000  C
  C36      1.0000 0.42000  0.33340  0.72220  Biso   1.000  C
  C37      1.0000 0.08000  0.66660  0.22220  Biso   1.000  C
  C38      1.0000 0.08340  0.67000  0.52780  Biso   1.000  C
  C39      1.0000 0.58000  0.83340  0.77780  Biso   1.000  C
  C40      1.0000 0.92000  0.16660  0.27780  Biso   1.000  C
  C41      1.0000 0.92000  0.83340  0.22220  Biso   1.000  C
  C42      1.0000 0.91660  0.83000  0.52780  Biso   1.000  C
  C43      1.0000 0.91660  0.17000  0.97220  Biso   1.000  C
  C44      1.0000 0.58340  0.83000  0.47220  Biso   1.000  C
  C45      1.0000 0.41660  0.33000  0.02780  Biso   1.000  C
  C46      1.0000 0.41660  0.67000  0.47220  Biso   1.000  C
  C47      1.0000 0.08340  0.33000  0.97220  Biso   1.000  C
  C48      1.0000 0.58000  0.16660  0.72220  Biso   1.000  C
  C49      1.0000 0.41660  0.83000  0.97220  Biso   1.000  C
  C50      1.0000 0.42000  0.16660  0.22220  Biso   1.000  C
  C51      1.0000 0.08000  0.83340  0.72220  Biso   1.000  C
  C52      1.0000 0.08000  0.16660  0.77780  Biso   1.000  C
  C53      1.0000 0.42000  0.83340  0.27780  Biso   1.000  C
  C54      1.0000 0.91660  0.33000  0.47220  Biso   1.000  C
  C55      1.0000 0.92000  0.66660  0.72220  Biso   1.000  C
  C56      1.0000 0.58000  0.33340  0.22220  Biso   1.000  C
  C57      1.0000 0.58000  0.66660  0.27780  Biso   1.000  C
  C58      1.0000 0.08340  0.17000  0.47220  Biso   1.000  C
  C59      1.0000 0.08340  0.83000  0.02780  Biso   1.000  C
  C60      1.0000 0.41660  0.17000  0.52780  Biso   1.000  C
  C61      1.0000 0.58340  0.67000  0.97220  Biso   1.000  C
  C62      1.0000 0.58340  0.33000  0.52780  Biso   1.000  C
  C63      1.0000 0.91660  0.67000  0.02780  Biso   1.000  C
  C64      1.0000 0.92000  0.33340  0.77780  Biso   1.000  C
  H1       1.0000 0.60790  0.18940  0.00680  Biso   1.000  H
  H2       1.0000 0.06060  0.35790  0.25680  Biso   1.000  H
  H3       1.0000 0.43940  0.64210  0.75680  Biso   1.000  H
  H4       1.0000 0.43940  0.35790  0.74320  Biso   1.000  H
  H5       1.0000 0.06060  0.64210  0.24320  Biso   1.000  H
  H6       1.0000 0.10790  0.68940  0.50680  Biso   1.000  H
  H7       1.0000 0.56060  0.85790  0.75680  Biso   1.000  H
  H8       1.0000 0.93940  0.14210  0.25680  Biso   1.000  H
  H9       1.0000 0.93940  0.85790  0.24320  Biso   1.000  H
  H10      1.0000 0.89210  0.81060  0.50680  Biso   1.000  H
  H11      1.0000 0.89210  0.18940  0.99320  Biso   1.000  H
  H12      1.0000 0.60790  0.81060  0.49320  Biso   1.000  H
  H13      1.0000 0.39210  0.31060  0.00680  Biso   1.000  H
  H14      1.0000 0.39210  0.68940  0.49320  Biso   1.000  H
  H15      1.0000 0.10790  0.31060  0.99320  Biso   1.000  H
  H16      1.0000 0.56060  0.14210  0.74320  Biso   1.000  H
  H17      1.0000 0.39210  0.81060  0.99320  Biso   1.000  H
  H18      1.0000 0.43940  0.14210  0.24320  Biso   1.000  H
  H19      1.0000 0.06060  0.85790  0.74320  Biso   1.000  H
  H20      1.0000 0.06060  0.14210  0.75680  Biso   1.000  H
  H21      1.0000 0.43940  0.85790  0.25680  Biso   1.000  H
  H22      1.0000 0.89210  0.31060  0.49320  Biso   1.000  H
  H23      1.0000 0.93940  0.64210  0.74320  Biso   1.000  H
  H24      1.0000 0.56060  0.35790  0.24320  Biso   1.000  H
  H25      1.0000 0.56060  0.64210  0.25680  Biso   1.000  H
  H26      1.0000 0.10790  0.18940  0.49320  Biso   1.000  H
  H27      1.0000 0.10790  0.81060  0.00680  Biso   1.000  H
  H28      1.0000 0.39210  0.18940  0.50680  Biso   1.000  H
  H29      1.0000 0.60790  0.68940  0.99320  Biso   1.000  H
  H30      1.0000 0.60790  0.31060  0.50680  Biso   1.000  H
  H31      1.0000 0.89210  0.68940  0.00680  Biso   1.000  H
  H32      1.0000 0.93940  0.35790  0.75680  Biso   1.000  H
  C65      1.0000 0.57740  0.19970  0.06310  Biso   1.000  C
  C66      1.0000 0.05030  0.32740  0.31310  Biso   1.000  C
  C67      1.0000 0.44970  0.67260  0.81310  Biso   1.000  C
  C68      1.0000 0.44970  0.32740  0.68690  Biso   1.000  C
  C69      1.0000 0.05030  0.67260  0.18690  Biso   1.000  C
  C70      1.0000 0.07740  0.69970  0.56310  Biso   1.000  C
  C71      1.0000 0.55030  0.82740  0.81310  Biso   1.000  C
  C72      1.0000 0.94970  0.17260  0.31310  Biso   1.000  C
  C73      1.0000 0.94970  0.82740  0.18690  Biso   1.000  C
  C74      1.0000 0.92260  0.80030  0.56310  Biso   1.000  C
  C75      1.0000 0.92260  0.19970  0.93690  Biso   1.000  C
  C76      1.0000 0.57740  0.80030  0.43690  Biso   1.000  C
  C77      1.0000 0.42260  0.30030  0.06310  Biso   1.000  C
  C78      1.0000 0.42260  0.69970  0.43690  Biso   1.000  C
  C79      1.0000 0.07740  0.30030  0.93690  Biso   1.000  C
  C80      1.0000 0.55030  0.17260  0.68690  Biso   1.000  C
  C81      1.0000 0.42260  0.80030  0.93690  Biso   1.000  C
  C82      1.0000 0.44970  0.17260  0.18690  Biso   1.000  C
  C83      1.0000 0.05030  0.82740  0.68690  Biso   1.000  C
  C84      1.0000 0.05030  0.17260  0.81310  Biso   1.000  C
  C85      1.0000 0.44970  0.82740  0.31310  Biso   1.000  C
  C86      1.0000 0.92260  0.30030  0.43690  Biso   1.000  C
  C87      1.0000 0.94970  0.67260  0.68690  Biso   1.000  C
  C88      1.0000 0.55030  0.32740  0.18690  Biso   1.000  C
  C89      1.0000 0.55030  0.67260  0.31310  Biso   1.000  C
  C90      1.0000 0.07740  0.19970  0.43690  Biso   1.000  C
  C91      1.0000 0.07740  0.80030  0.06310  Biso   1.000  C
  C92      1.0000 0.42260  0.19970  0.56310  Biso   1.000  C
  C93      1.0000 0.57740  0.69970  0.93690  Biso   1.000  C
  C94      1.0000 0.57740  0.30030  0.56310  Biso   1.000  C
  C95      1.0000 0.92260  0.69970  0.06310  Biso   1.000  C
  C96      1.0000 0.94970  0.32740  0.81310  Biso   1.000  C
  H33      1.0000 0.55380  0.17970  0.08430  Biso   1.000  H
  H34      1.0000 0.07030  0.30380  0.33430  Biso   1.000  H
  H35      1.0000 0.42970  0.69620  0.83430  Biso   1.000  H
  H36      1.0000 0.42970  0.30380  0.66570  Biso   1.000  H
  H37      1.0000 0.07030  0.69620  0.16570  Biso   1.000  H
  H38      1.0000 0.05380  0.67970  0.58430  Biso   1.000  H
  H39      1.0000 0.57030  0.80380  0.83430  Biso   1.000  H
  H40      1.0000 0.92970  0.19620  0.33430  Biso   1.000  H
  H41      1.0000 0.92970  0.80380  0.16570  Biso   1.000  H
  H42      1.0000 0.94620  0.82030  0.58430  Biso   1.000  H
  H43      1.0000 0.94620  0.17970  0.91570  Biso   1.000  H
  H44      1.0000 0.55380  0.82030  0.41570  Biso   1.000  H
  H45      1.0000 0.44620  0.32030  0.08430  Biso   1.000  H
  H46      1.0000 0.44620  0.67970  0.41570  Biso   1.000  H
  H47      1.0000 0.05380  0.32030  0.91570  Biso   1.000  H
  H48      1.0000 0.57030  0.19620  0.66570  Biso   1.000  H
  H49      1.0000 0.44620  0.82030  0.91570  Biso   1.000  H
  H50      1.0000 0.42970  0.19620  0.16570  Biso   1.000  H
  H51      1.0000 0.07030  0.80380  0.66570  Biso   1.000  H
  H52      1.0000 0.07030  0.19620  0.83430  Biso   1.000  H
  H53      1.0000 0.42970  0.80380  0.33430  Biso   1.000  H
  H54      1.0000 0.94620  0.32030  0.41570  Biso   1.000  H
  H55      1.0000 0.92970  0.69620  0.66570  Biso   1.000  H
  H56      1.0000 0.57030  0.30380  0.16570  Biso   1.000  H
  H57      1.0000 0.57030  0.69620  0.33430  Biso   1.000  H
  H58      1.0000 0.05380  0.17970  0.41570  Biso   1.000  H
  H59      1.0000 0.05380  0.82030  0.08430  Biso   1.000  H
  H60      1.0000 0.44620  0.17970  0.58430  Biso   1.000  H
  H61      1.0000 0.55380  0.67970  0.91570  Biso   1.000  H
  H62      1.0000 0.55380  0.32030  0.58430  Biso   1.000  H
  H63      1.0000 0.94620  0.67970  0.08430  Biso   1.000  H
  H64      1.0000 0.92970  0.30380  0.83430  Biso   1.000  H
  C97      1.0000 0.60600  0.26490  0.07250  Biso   1.000  C
  C98      1.0000 0.98510  0.35600  0.32250  Biso   1.000  C
  C99      1.0000 0.51490  0.64400  0.82250  Biso   1.000  C
  C100     1.0000 0.51490  0.35600  0.67750  Biso   1.000  C
  C101     1.0000 0.98510  0.64400  0.17750  Biso   1.000  C
  C102     1.0000 0.10600  0.76490  0.57250  Biso   1.000  C
  C103     1.0000 0.48510  0.85600  0.82250  Biso   1.000  C
  C104     1.0000 0.01490  0.14400  0.32250  Biso   1.000  C
  C105     1.0000 0.01490  0.85600  0.17750  Biso   1.000  C
  C106     1.0000 0.89400  0.73510  0.57250  Biso   1.000  C
  C107     1.0000 0.89400  0.26490  0.92750  Biso   1.000  C
  C108     1.0000 0.60600  0.73510  0.42750  Biso   1.000  C
  C109     1.0000 0.39400  0.23510  0.07250  Biso   1.000  C
  C110     1.0000 0.39400  0.76490  0.42750  Biso   1.000  C
  C111     1.0000 0.10600  0.23510  0.92750  Biso   1.000  C
  C112     1.0000 0.48510  0.14400  0.67750  Biso   1.000  C
  C113     1.0000 0.39400  0.73510  0.92750  Biso   1.000  C
  C114     1.0000 0.51490  0.14400  0.17750  Biso   1.000  C
  C115     1.0000 0.98510  0.85600  0.67750  Biso   1.000  C
  C116     1.0000 0.98510  0.14400  0.82250  Biso   1.000  C
  C117     1.0000 0.51490  0.85600  0.32250  Biso   1.000  C
  C118     1.0000 0.89400  0.23510  0.42750  Biso   1.000  C
  C119     1.0000 0.01490  0.64400  0.67750  Biso   1.000  C
  C120     1.0000 0.48510  0.35600  0.17750  Biso   1.000  C
  C121     1.0000 0.48510  0.64400  0.32250  Biso   1.000  C
  C122     1.0000 0.10600  0.26490  0.42750  Biso   1.000  C
  C123     1.0000 0.10600  0.73510  0.07250  Biso   1.000  C
  C124     1.0000 0.39400  0.26490  0.57250  Biso   1.000  C
  C125     1.0000 0.60600  0.76490  0.92750  Biso   1.000  C
  C126     1.0000 0.60600  0.23510  0.57250  Biso   1.000  C
  C127     1.0000 0.89400  0.76490  0.07250  Biso   1.000  C
  C128     1.0000 0.01490  0.35600  0.82250  Biso   1.000  C
  H65      1.0000 0.62830  0.28060  0.04810  Biso   1.000  H
  H66      1.0000 0.96940  0.37830  0.29810  Biso   1.000  H
  H67      1.0000 0.53060  0.62170  0.79810  Biso   1.000  H
  H68      1.0000 0.53060  0.37830  0.70190  Biso   1.000  H
  H69      1.0000 0.96940  0.62170  0.20190  Biso   1.000  H
  H70      1.0000 0.12830  0.78060  0.54810  Biso   1.000  H
  H71      1.0000 0.46940  0.87830  0.79810  Biso   1.000  H
  H72      1.0000 0.03060  0.12170  0.29810  Biso   1.000  H
  H73      1.0000 0.03060  0.87830  0.20190  Biso   1.000  H
  H74      1.0000 0.87170  0.71940  0.54810  Biso   1.000  H
  H75      1.0000 0.87170  0.28060  0.95190  Biso   1.000  H
  H76      1.0000 0.62830  0.71940  0.45190  Biso   1.000  H
  H77      1.0000 0.37170  0.21940  0.04810  Biso   1.000  H
  H78      1.0000 0.37170  0.78060  0.45190  Biso   1.000  H
  H79      1.0000 0.12830  0.21940  0.95190  Biso   1.000  H
  H80      1.0000 0.46940  0.12170  0.70190  Biso   1.000  H
  H81      1.0000 0.37170  0.71940  0.95190  Biso   1.000  H
  H82      1.0000 0.53060  0.12170  0.20190  Biso   1.000  H
  H83      1.0000 0.96940  0.87830  0.70190  Biso   1.000  H
  H84      1.0000 0.96940  0.12170  0.79810  Biso   1.000  H
  H85      1.0000 0.53060  0.87830  0.29810  Biso   1.000  H
  H86      1.0000 0.87170  0.21940  0.45190  Biso   1.000  H
  H87      1.0000 0.03060  0.62170  0.70190  Biso   1.000  H
  H88      1.0000 0.46940  0.37830  0.20190  Biso   1.000  H
  H89      1.0000 0.46940  0.62170  0.29810  Biso   1.000  H
  H90      1.0000 0.12830  0.28060  0.45190  Biso   1.000  H
  H91      1.0000 0.12830  0.71940  0.04810  Biso   1.000  H
  H92      1.0000 0.37170  0.28060  0.54810  Biso   1.000  H
  H93      1.0000 0.62830  0.78060  0.95190  Biso   1.000  H
  H94      1.0000 0.62830  0.21940  0.54810  Biso   1.000  H
  H95      1.0000 0.87170  0.78060  0.04810  Biso   1.000  H
  H96      1.0000 0.03060  0.37830  0.79810  Biso   1.000  H
  H97      1.0000 0.63580  0.26130  0.09560  Biso   1.000  H
  H98      1.0000 0.98870  0.38580  0.34560  Biso   1.000  H
  H99      1.0000 0.51130  0.61420  0.84560  Biso   1.000  H
  H100     1.0000 0.51130  0.38580  0.65440  Biso   1.000  H
  H101     1.0000 0.98870  0.61420  0.15440  Biso   1.000  H
  H102     1.0000 0.13580  0.76130  0.59560  Biso   1.000  H
  H103     1.0000 0.48870  0.88580  0.84560  Biso   1.000  H
  H104     1.0000 0.01130  0.11420  0.34560  Biso   1.000  H
  H105     1.0000 0.01130  0.88580  0.15440  Biso   1.000  H
  H106     1.0000 0.86420  0.73870  0.59560  Biso   1.000  H
  H107     1.0000 0.86420  0.26130  0.90440  Biso   1.000  H
  H108     1.0000 0.63580  0.73870  0.40440  Biso   1.000  H
  H109     1.0000 0.36420  0.23870  0.09560  Biso   1.000  H
  H110     1.0000 0.36420  0.76130  0.40440  Biso   1.000  H
  H111     1.0000 0.13580  0.23870  0.90440  Biso   1.000  H
  H112     1.0000 0.48870  0.11420  0.65440  Biso   1.000  H
  H113     1.0000 0.36420  0.73870  0.90440  Biso   1.000  H
  H114     1.0000 0.51130  0.11420  0.15440  Biso   1.000  H
  H115     1.0000 0.98870  0.88580  0.65440  Biso   1.000  H
  H116     1.0000 0.98870  0.11420  0.84560  Biso   1.000  H
  H117     1.0000 0.51130  0.88580  0.34560  Biso   1.000  H
  H118     1.0000 0.86420  0.23870  0.40440  Biso   1.000  H
  H119     1.0000 0.01130  0.61420  0.65440  Biso   1.000  H
  H120     1.0000 0.48870  0.38580  0.15440  Biso   1.000  H
  H121     1.0000 0.48870  0.61420  0.34560  Biso   1.000  H
  H122     1.0000 0.13580  0.26130  0.40440  Biso   1.000  H
  H123     1.0000 0.13580  0.73870  0.09560  Biso   1.000  H
  H124     1.0000 0.36420  0.26130  0.59560  Biso   1.000  H
  H125     1.0000 0.63580  0.76130  0.90440  Biso   1.000  H
  H126     1.0000 0.63580  0.23870  0.59560  Biso   1.000  H
  H127     1.0000 0.86420  0.76130  0.09560  Biso   1.000  H
  H128     1.0000 0.01130  0.38580  0.84560  Biso   1.000  H
  H129     1.0000 0.57220  0.29450  0.07990  Biso   1.000  H
  H130     1.0000 0.95550  0.32220  0.32990  Biso   1.000  H
  H131     1.0000 0.54450  0.67780  0.82990  Biso   1.000  H
  H132     1.0000 0.54450  0.32220  0.67010  Biso   1.000  H
  H133     1.0000 0.95550  0.67780  0.17010  Biso   1.000  H
  H134     1.0000 0.07220  0.79450  0.57990  Biso   1.000  H
  H135     1.0000 0.45550  0.82220  0.82990  Biso   1.000  H
  H136     1.0000 0.04450  0.17780  0.32990  Biso   1.000  H
  H137     1.0000 0.04450  0.82220  0.17010  Biso   1.000  H
  H138     1.0000 0.92780  0.70550  0.57990  Biso   1.000  H
  H139     1.0000 0.92780  0.29450  0.92010  Biso   1.000  H
  H140     1.0000 0.57220  0.70550  0.42010  Biso   1.000  H
  H141     1.0000 0.42780  0.20550  0.07990  Biso   1.000  H
  H142     1.0000 0.42780  0.79450  0.42010  Biso   1.000  H
  H143     1.0000 0.07220  0.20550  0.92010  Biso   1.000  H
  H144     1.0000 0.45550  0.17780  0.67010  Biso   1.000  H
  H145     1.0000 0.42780  0.70550  0.92010  Biso   1.000  H
  H146     1.0000 0.54450  0.17780  0.17010  Biso   1.000  H
  H147     1.0000 0.95550  0.82220  0.67010  Biso   1.000  H
  H148     1.0000 0.95550  0.17780  0.82990  Biso   1.000  H
  H149     1.0000 0.54450  0.82220  0.32990  Biso   1.000  H
  H150     1.0000 0.92780  0.20550  0.42010  Biso   1.000  H
  H151     1.0000 0.04450  0.67780  0.67010  Biso   1.000  H
  H152     1.0000 0.45550  0.32220  0.17010  Biso   1.000  H
  H153     1.0000 0.45550  0.67780  0.32990  Biso   1.000  H
  H154     1.0000 0.07220  0.29450  0.42010  Biso   1.000  H
  H155     1.0000 0.07220  0.70550  0.07990  Biso   1.000  H
  H156     1.0000 0.42780  0.29450  0.57990  Biso   1.000  H
  H157     1.0000 0.57220  0.79450  0.92010  Biso   1.000  H
  H158     1.0000 0.57220  0.20550  0.57990  Biso   1.000  H
  H159     1.0000 0.92780  0.79450  0.07990  Biso   1.000  H
  H160     1.0000 0.04450  0.32220  0.82990  Biso   1.000  H
  C129     1.0000 0.59080  0.93630  0.03130  Biso   1.000  C
  C130     1.0000 0.31370  0.34080  0.28130  Biso   1.000  C
  C131     1.0000 0.18630  0.65920  0.78130  Biso   1.000  C
  C132     1.0000 0.18630  0.34080  0.71870  Biso   1.000  C
  C133     1.0000 0.31370  0.65920  0.21870  Biso   1.000  C
  C134     1.0000 0.09080  0.43630  0.53130  Biso   1.000  C
  C135     1.0000 0.81370  0.84080  0.78130  Biso   1.000  C
  C136     1.0000 0.68630  0.15920  0.28130  Biso   1.000  C
  C137     1.0000 0.68630  0.84080  0.21870  Biso   1.000  C
  C138     1.0000 0.90920  0.06370  0.53130  Biso   1.000  C
  C139     1.0000 0.90920  0.93630  0.96870  Biso   1.000  C
  C140     1.0000 0.59080  0.06370  0.46870  Biso   1.000  C
  C141     1.0000 0.40920  0.56370  0.03130  Biso   1.000  C
  C142     1.0000 0.40920  0.43630  0.46870  Biso   1.000  C
  C143     1.0000 0.09080  0.56370  0.96870  Biso   1.000  C
  C144     1.0000 0.81370  0.15920  0.71870  Biso   1.000  C
  C145     1.0000 0.40920  0.06370  0.96870  Biso   1.000  C
  C146     1.0000 0.18630  0.15920  0.21870  Biso   1.000  C
  C147     1.0000 0.31370  0.84080  0.71870  Biso   1.000  C
  C148     1.0000 0.31370  0.15920  0.78130  Biso   1.000  C
  C149     1.0000 0.18630  0.84080  0.28130  Biso   1.000  C
  C150     1.0000 0.90920  0.56370  0.46870  Biso   1.000  C
  C151     1.0000 0.68630  0.65920  0.71870  Biso   1.000  C
  C152     1.0000 0.81370  0.34080  0.21870  Biso   1.000  C
  C153     1.0000 0.81370  0.65920  0.28130  Biso   1.000  C
  C154     1.0000 0.09080  0.93630  0.46870  Biso   1.000  C
  C155     1.0000 0.09080  0.06370  0.03130  Biso   1.000  C
  C156     1.0000 0.40920  0.93630  0.53130  Biso   1.000  C
  C157     1.0000 0.59080  0.43630  0.96870  Biso   1.000  C
  C158     1.0000 0.59080  0.56370  0.53130  Biso   1.000  C
  C159     1.0000 0.90920  0.43630  0.03130  Biso   1.000  C
  C160     1.0000 0.68630  0.34080  0.78130  Biso   1.000  C
  C161     1.0000 0.63940  0.89700  0.05400  Biso   1.000  C
  C162     1.0000 0.35300  0.38940  0.30400  Biso   1.000  C
  C163     1.0000 0.14700  0.61060  0.80400  Biso   1.000  C
  C164     1.0000 0.14700  0.38940  0.69600  Biso   1.000  C
  C165     1.0000 0.35300  0.61060  0.19600  Biso   1.000  C
  C166     1.0000 0.13940  0.39700  0.55400  Biso   1.000  C
  C167     1.0000 0.85300  0.88940  0.80400  Biso   1.000  C
  C168     1.0000 0.64700  0.11060  0.30400  Biso   1.000  C
  C169     1.0000 0.64700  0.88940  0.19600  Biso   1.000  C
  C170     1.0000 0.86060  0.10300  0.55400  Biso   1.000  C
  C171     1.0000 0.86060  0.89700  0.94600  Biso   1.000  C
  C172     1.0000 0.63940  0.10300  0.44600  Biso   1.000  C
  C173     1.0000 0.36060  0.60300  0.05400  Biso   1.000  C
  C174     1.0000 0.36060  0.39700  0.44600  Biso   1.000  C
  C175     1.0000 0.13940  0.60300  0.94600  Biso   1.000  C
  C176     1.0000 0.85300  0.11060  0.69600  Biso   1.000  C
  C177     1.0000 0.36060  0.10300  0.94600  Biso   1.000  C
  C178     1.0000 0.14700  0.11060  0.19600  Biso   1.000  C
  C179     1.0000 0.35300  0.88940  0.69600  Biso   1.000  C
  C180     1.0000 0.35300  0.11060  0.80400  Biso   1.000  C
  C181     1.0000 0.14700  0.88940  0.30400  Biso   1.000  C
  C182     1.0000 0.86060  0.60300  0.44600  Biso   1.000  C
  C183     1.0000 0.64700  0.61060  0.69600  Biso   1.000  C
  C184     1.0000 0.85300  0.38940  0.19600  Biso   1.000  C
  C185     1.0000 0.85300  0.61060  0.30400  Biso   1.000  C
  C186     1.0000 0.13940  0.89700  0.44600  Biso   1.000  C
  C187     1.0000 0.13940  0.10300  0.05400  Biso   1.000  C
  C188     1.0000 0.36060  0.89700  0.55400  Biso   1.000  C
  C189     1.0000 0.63940  0.39700  0.94600  Biso   1.000  C
  C190     1.0000 0.63940  0.60300  0.55400  Biso   1.000  C
  C191     1.0000 0.86060  0.39700  0.05400  Biso   1.000  C
  C192     1.0000 0.64700  0.38940  0.80400  Biso   1.000  C
  H161     1.0000 0.63070  0.89090  0.08250  Biso   1.000  H
  H162     1.0000 0.35910  0.38070  0.33250  Biso   1.000  H
  H163     1.0000 0.14090  0.61930  0.83250  Biso   1.000  H
  H164     1.0000 0.14090  0.38070  0.66750  Biso   1.000  H
  H165     1.0000 0.35910  0.61930  0.16750  Biso   1.000  H
  H166     1.0000 0.13070  0.39090  0.58250  Biso   1.000  H
  H167     1.0000 0.85910  0.88070  0.83250  Biso   1.000  H
  H168     1.0000 0.64090  0.11930  0.33250  Biso   1.000  H
  H169     1.0000 0.64090  0.88070  0.16750  Biso   1.000  H
  H170     1.0000 0.86930  0.10910  0.58250  Biso   1.000  H
  H171     1.0000 0.86930  0.89090  0.91750  Biso   1.000  H
  H172     1.0000 0.63070  0.10910  0.41750  Biso   1.000  H
  H173     1.0000 0.36930  0.60910  0.08250  Biso   1.000  H
  H174     1.0000 0.36930  0.39090  0.41750  Biso   1.000  H
  H175     1.0000 0.13070  0.60910  0.91750  Biso   1.000  H
  H176     1.0000 0.85910  0.11930  0.66750  Biso   1.000  H
  H177     1.0000 0.36930  0.10910  0.91750  Biso   1.000  H
  H178     1.0000 0.14090  0.11930  0.16750  Biso   1.000  H
  H179     1.0000 0.35910  0.88070  0.66750  Biso   1.000  H
  H180     1.0000 0.35910  0.11930  0.83250  Biso   1.000  H
  H181     1.0000 0.14090  0.88070  0.33250  Biso   1.000  H
  H182     1.0000 0.86930  0.60910  0.41750  Biso   1.000  H
  H183     1.0000 0.64090  0.61930  0.66750  Biso   1.000  H
  H184     1.0000 0.85910  0.38070  0.16750  Biso   1.000  H
  H185     1.0000 0.85910  0.61930  0.33250  Biso   1.000  H
  H186     1.0000 0.13070  0.89090  0.41750  Biso   1.000  H
  H187     1.0000 0.13070  0.10910  0.08250  Biso   1.000  H
  H188     1.0000 0.36930  0.89090  0.58250  Biso   1.000  H
  H189     1.0000 0.63070  0.39090  0.91750  Biso   1.000  H
  H190     1.0000 0.63070  0.60910  0.58250  Biso   1.000  H
  H191     1.0000 0.86930  0.39090  0.08250  Biso   1.000  H
  H192     1.0000 0.64090  0.38070  0.83250  Biso   1.000  H
  C193     1.0000 0.68580  0.87260  0.04250  Biso   1.000  C
  C194     1.0000 0.37740  0.43580  0.29250  Biso   1.000  C
  C195     1.0000 0.12260  0.56420  0.79250  Biso   1.000  C
  C196     1.0000 0.12260  0.43580  0.70750  Biso   1.000  C
  C197     1.0000 0.37740  0.56420  0.20750  Biso   1.000  C
  C198     1.0000 0.18580  0.37260  0.54250  Biso   1.000  C
  C199     1.0000 0.87740  0.93580  0.79250  Biso   1.000  C
  C200     1.0000 0.62260  0.06420  0.29250  Biso   1.000  C
  C201     1.0000 0.62260  0.93580  0.20750  Biso   1.000  C
  C202     1.0000 0.81420  0.12740  0.54250  Biso   1.000  C
  C203     1.0000 0.81420  0.87260  0.95750  Biso   1.000  C
  C204     1.0000 0.68580  0.12740  0.45750  Biso   1.000  C
  C205     1.0000 0.31420  0.62740  0.04250  Biso   1.000  C
  C206     1.0000 0.31420  0.37260  0.45750  Biso   1.000  C
  C207     1.0000 0.18580  0.62740  0.95750  Biso   1.000  C
  C208     1.0000 0.87740  0.06420  0.70750  Biso   1.000  C
  C209     1.0000 0.31420  0.12740  0.95750  Biso   1.000  C
  C210     1.0000 0.12260  0.06420  0.20750  Biso   1.000  C
  C211     1.0000 0.37740  0.93580  0.70750  Biso   1.000  C
  C212     1.0000 0.37740  0.06420  0.79250  Biso   1.000  C
  C213     1.0000 0.12260  0.93580  0.29250  Biso   1.000  C
  C214     1.0000 0.81420  0.62740  0.45750  Biso   1.000  C
  C215     1.0000 0.62260  0.56420  0.70750  Biso   1.000  C
  C216     1.0000 0.87740  0.43580  0.20750  Biso   1.000  C
  C217     1.0000 0.87740  0.56420  0.29250  Biso   1.000  C
  C218     1.0000 0.18580  0.87260  0.45750  Biso   1.000  C
  C219     1.0000 0.18580  0.12740  0.04250  Biso   1.000  C
  C220     1.0000 0.31420  0.87260  0.54250  Biso   1.000  C
  C221     1.0000 0.68580  0.37260  0.95750  Biso   1.000  C
  C222     1.0000 0.68580  0.62740  0.54250  Biso   1.000  C
  C223     1.0000 0.81420  0.37260  0.04250  Biso   1.000  C
  C224     1.0000 0.62260  0.43580  0.79250  Biso   1.000  C
  H193     1.0000 0.69730  0.87920  0.01440  Biso   1.000  H
  H194     1.0000 0.37080  0.44730  0.26440  Biso   1.000  H
  H195     1.0000 0.12920  0.55270  0.76440  Biso   1.000  H
  H196     1.0000 0.12920  0.44730  0.73560  Biso   1.000  H
  H197     1.0000 0.37080  0.55270  0.23560  Biso   1.000  H
  H198     1.0000 0.19730  0.37920  0.51440  Biso   1.000  H
  H199     1.0000 0.87080  0.94730  0.76440  Biso   1.000  H
  H200     1.0000 0.62920  0.05270  0.26440  Biso   1.000  H
  H201     1.0000 0.62920  0.94730  0.23560  Biso   1.000  H
  H202     1.0000 0.80270  0.12080  0.51440  Biso   1.000  H
  H203     1.0000 0.80270  0.87920  0.98560  Biso   1.000  H
  H204     1.0000 0.69730  0.12080  0.48560  Biso   1.000  H
  H205     1.0000 0.30270  0.62080  0.01440  Biso   1.000  H
  H206     1.0000 0.30270  0.37920  0.48560  Biso   1.000  H
  H207     1.0000 0.19730  0.62080  0.98560  Biso   1.000  H
  H208     1.0000 0.87080  0.05270  0.73560  Biso   1.000  H
  H209     1.0000 0.30270  0.12080  0.98560  Biso   1.000  H
  H210     1.0000 0.12920  0.05270  0.23560  Biso   1.000  H
  H211     1.0000 0.37080  0.94730  0.73560  Biso   1.000  H
  H212     1.0000 0.37080  0.05270  0.76440  Biso   1.000  H
  H213     1.0000 0.12920  0.94730  0.26440  Biso   1.000  H
  H214     1.0000 0.80270  0.62080  0.48560  Biso   1.000  H
  H215     1.0000 0.62920  0.55270  0.73560  Biso   1.000  H
  H216     1.0000 0.87080  0.44730  0.23560  Biso   1.000  H
  H217     1.0000 0.87080  0.55270  0.26440  Biso   1.000  H
  H218     1.0000 0.19730  0.87920  0.48560  Biso   1.000  H
  H219     1.0000 0.19730  0.12080  0.01440  Biso   1.000  H
  H220     1.0000 0.30270  0.87920  0.51440  Biso   1.000  H
  H221     1.0000 0.69730  0.37920  0.98560  Biso   1.000  H
  H222     1.0000 0.69730  0.62080  0.51440  Biso   1.000  H
  H223     1.0000 0.80270  0.37920  0.01440  Biso   1.000  H
  H224     1.0000 0.62920  0.44730  0.76440  Biso   1.000  H
  C225     1.0000 0.73100  0.82980  0.06940  Biso   1.000  C
  C226     1.0000 0.42020  0.48100  0.31940  Biso   1.000  C
  C227     1.0000 0.07980  0.51900  0.81940  Biso   1.000  C
  C228     1.0000 0.07980  0.48100  0.68060  Biso   1.000  C
  C229     1.0000 0.42020  0.51900  0.18060  Biso   1.000  C
  C230     1.0000 0.23100  0.32980  0.56940  Biso   1.000  C
  C231     1.0000 0.92020  0.98100  0.81940  Biso   1.000  C
  C232     1.0000 0.57980  0.01900  0.31940  Biso   1.000  C
  C233     1.0000 0.57980  0.98100  0.18060  Biso   1.000  C
  C234     1.0000 0.76900  0.17020  0.56940  Biso   1.000  C
  C235     1.0000 0.76900  0.82980  0.93060  Biso   1.000  C
  C236     1.0000 0.73100  0.17020  0.43060  Biso   1.000  C
  C237     1.0000 0.26900  0.67020  0.06940  Biso   1.000  C
  C238     1.0000 0.26900  0.32980  0.43060  Biso   1.000  C
  C239     1.0000 0.23100  0.67020  0.93060  Biso   1.000  C
  C240     1.0000 0.92020  0.01900  0.68060  Biso   1.000  C
  C241     1.0000 0.26900  0.17020  0.93060  Biso   1.000  C
  C242     1.0000 0.07980  0.01900  0.18060  Biso   1.000  C
  C243     1.0000 0.42020  0.98100  0.68060  Biso   1.000  C
  C244     1.0000 0.42020  0.01900  0.81940  Biso   1.000  C
  C245     1.0000 0.07980  0.98100  0.31940  Biso   1.000  C
  C246     1.0000 0.76900  0.67020  0.43060  Biso   1.000  C
  C247     1.0000 0.57980  0.51900  0.68060  Biso   1.000  C
  C248     1.0000 0.92020  0.48100  0.18060  Biso   1.000  C
  C249     1.0000 0.92020  0.51900  0.31940  Biso   1.000  C
  C250     1.0000 0.23100  0.82980  0.43060  Biso   1.000  C
  C251     1.0000 0.23100  0.17020  0.06940  Biso   1.000  C
  C252     1.0000 0.26900  0.82980  0.56940  Biso   1.000  C
  C253     1.0000 0.73100  0.32980  0.93060  Biso   1.000  C
  C254     1.0000 0.73100  0.67020  0.56940  Biso   1.000  C
  C255     1.0000 0.76900  0.32980  0.06940  Biso   1.000  C
  C256     1.0000 0.57980  0.48100  0.81940  Biso   1.000  C
  H225     1.0000 0.74800  0.85470  0.09230  Biso   1.000  H
  H226     1.0000 0.39530  0.49800  0.34230  Biso   1.000  H
  H227     1.0000 0.10470  0.50200  0.84230  Biso   1.000  H
  H228     1.0000 0.10470  0.49800  0.65770  Biso   1.000  H
  H229     1.0000 0.39530  0.50200  0.15770  Biso   1.000  H
  H230     1.0000 0.24800  0.35470  0.59230  Biso   1.000  H
  H231     1.0000 0.89530  0.99800  0.84230  Biso   1.000  H
  H232     1.0000 0.60470  0.00200  0.34230  Biso   1.000  H
  H233     1.0000 0.60470  0.99800  0.15770  Biso   1.000  H
  H234     1.0000 0.75200  0.14530  0.59230  Biso   1.000  H
  H235     1.0000 0.75200  0.85470  0.90770  Biso   1.000  H
  H236     1.0000 0.74800  0.14530  0.40770  Biso   1.000  H
  H237     1.0000 0.25200  0.64530  0.09230  Biso   1.000  H
  H238     1.0000 0.25200  0.35470  0.40770  Biso   1.000  H
  H239     1.0000 0.24800  0.64530  0.90770  Biso   1.000  H
  H240     1.0000 0.89530  0.00200  0.65770  Biso   1.000  H
  H241     1.0000 0.25200  0.14530  0.90770  Biso   1.000  H
  H242     1.0000 0.10470  0.00200  0.15770  Biso   1.000  H
  H243     1.0000 0.39530  0.99800  0.65770  Biso   1.000  H
  H244     1.0000 0.39530  0.00200  0.84230  Biso   1.000  H
  H245     1.0000 0.10470  0.99800  0.34230  Biso   1.000  H
  H246     1.0000 0.75200  0.64530  0.40770  Biso   1.000  H
  H247     1.0000 0.60470  0.50200  0.65770  Biso   1.000  H
  H248     1.0000 0.89530  0.49800  0.15770  Biso   1.000  H
  H249     1.0000 0.89530  0.50200  0.34230  Biso   1.000  H
  H250     1.0000 0.24800  0.85470  0.40770  Biso   1.000  H
  H251     1.0000 0.24800  0.14530  0.09230  Biso   1.000  H
  H252     1.0000 0.25200  0.85470  0.59230  Biso   1.000  H
  H253     1.0000 0.74800  0.35470  0.90770  Biso   1.000  H
  H254     1.0000 0.74800  0.64530  0.59230  Biso   1.000  H
  H255     1.0000 0.75200  0.35470  0.09230  Biso   1.000  H
  H256     1.0000 0.60470  0.49800  0.84230  Biso   1.000  H
  H257     1.0000 0.76580  0.81430  0.05220  Biso   1.000  H
  H258     1.0000 0.43570  0.51580  0.30220  Biso   1.000  H
  H259     1.0000 0.06430  0.48420  0.80220  Biso   1.000  H
  H260     1.0000 0.06430  0.51580  0.69780  Biso   1.000  H
  H261     1.0000 0.43570  0.48420  0.19780  Biso   1.000  H
  H262     1.0000 0.26580  0.31430  0.55220  Biso   1.000  H
  H263     1.0000 0.93570  0.01580  0.80220  Biso   1.000  H
  H264     1.0000 0.56430  0.98420  0.30220  Biso   1.000  H
  H265     1.0000 0.56430  0.01580  0.19780  Biso   1.000  H
  H266     1.0000 0.73420  0.18570  0.55220  Biso   1.000  H
  H267     1.0000 0.73420  0.81430  0.94780  Biso   1.000  H
  H268     1.0000 0.76580  0.18570  0.44780  Biso   1.000  H
  H269     1.0000 0.23420  0.68570  0.05220  Biso   1.000  H
  H270     1.0000 0.23420  0.31430  0.44780  Biso   1.000  H
  H271     1.0000 0.26580  0.68570  0.94780  Biso   1.000  H
  H272     1.0000 0.93570  0.98420  0.69780  Biso   1.000  H
  H273     1.0000 0.23420  0.18570  0.94780  Biso   1.000  H
  H274     1.0000 0.06430  0.98420  0.19780  Biso   1.000  H
  H275     1.0000 0.43570  0.01580  0.69780  Biso   1.000  H
  H276     1.0000 0.43570  0.98420  0.80220  Biso   1.000  H
  H277     1.0000 0.06430  0.01580  0.30220  Biso   1.000  H
  H278     1.0000 0.73420  0.68570  0.44780  Biso   1.000  H
  H279     1.0000 0.56430  0.48420  0.69780  Biso   1.000  H
  H280     1.0000 0.93570  0.51580  0.19780  Biso   1.000  H
  H281     1.0000 0.93570  0.48420  0.30220  Biso   1.000  H
  H282     1.0000 0.26580  0.81430  0.44780  Biso   1.000  H
  H283     1.0000 0.26580  0.18570  0.05220  Biso   1.000  H
  H284     1.0000 0.23420  0.81430  0.55220  Biso   1.000  H
  H285     1.0000 0.76580  0.31430  0.94780  Biso   1.000  H
  H286     1.0000 0.76580  0.68570  0.55220  Biso   1.000  H
  H287     1.0000 0.73420  0.31430  0.05220  Biso   1.000  H
  H288     1.0000 0.56430  0.51580  0.80220  Biso   1.000  H
  H289     1.0000 0.70710  0.79380  0.08030  Biso   1.000  H
  H290     1.0000 0.45620  0.45710  0.33030  Biso   1.000  H
  H291     1.0000 0.04380  0.54290  0.83030  Biso   1.000  H
  H292     1.0000 0.04380  0.45710  0.66970  Biso   1.000  H
  H293     1.0000 0.45620  0.54290  0.16970  Biso   1.000  H
  H294     1.0000 0.20710  0.29380  0.58030  Biso   1.000  H
  H295     1.0000 0.95620  0.95710  0.83030  Biso   1.000  H
  H296     1.0000 0.54380  0.04290  0.33030  Biso   1.000  H
  H297     1.0000 0.54380  0.95710  0.16970  Biso   1.000  H
  H298     1.0000 0.79290  0.20620  0.58030  Biso   1.000  H
  H299     1.0000 0.79290  0.79380  0.91970  Biso   1.000  H
  H300     1.0000 0.70710  0.20620  0.41970  Biso   1.000  H
  H301     1.0000 0.29290  0.70620  0.08030  Biso   1.000  H
  H302     1.0000 0.29290  0.29380  0.41970  Biso   1.000  H
  H303     1.0000 0.20710  0.70620  0.91970  Biso   1.000  H
  H304     1.0000 0.95620  0.04290  0.66970  Biso   1.000  H
  H305     1.0000 0.29290  0.20620  0.91970  Biso   1.000  H
  H306     1.0000 0.04380  0.04290  0.16970  Biso   1.000  H
  H307     1.0000 0.45620  0.95710  0.66970  Biso   1.000  H
  H308     1.0000 0.45620  0.04290  0.83030  Biso   1.000  H
  H309     1.0000 0.04380  0.95710  0.33030  Biso   1.000  H
  H310     1.0000 0.79290  0.70620  0.41970  Biso   1.000  H
  H311     1.0000 0.54380  0.54290  0.66970  Biso   1.000  H
  H312     1.0000 0.95620  0.45710  0.16970  Biso   1.000  H
  H313     1.0000 0.95620  0.54290  0.33030  Biso   1.000  H
  H314     1.0000 0.20710  0.79380  0.41970  Biso   1.000  H
  H315     1.0000 0.20710  0.20620  0.08030  Biso   1.000  H
  H316     1.0000 0.29290  0.79380  0.58030  Biso   1.000  H
  H317     1.0000 0.70710  0.29380  0.91970  Biso   1.000  H
  H318     1.0000 0.70710  0.70620  0.58030  Biso   1.000  H
  H319     1.0000 0.79290  0.29380  0.08030  Biso   1.000  H
  H320     1.0000 0.54380  0.45710  0.83030  Biso   1.000  H
  C257     1.0000 0.37900  0.04710  0.10640  Biso   1.000  C
  C258     1.0000 0.20290  0.12900  0.35640  Biso   1.000  C
  C259     1.0000 0.29710  0.87100  0.85640  Biso   1.000  C
  C260     1.0000 0.29710  0.12900  0.64360  Biso   1.000  C
  C261     1.0000 0.20290  0.87100  0.14360  Biso   1.000  C
  C262     1.0000 0.87900  0.54710  0.60640  Biso   1.000  C
  C263     1.0000 0.70290  0.62900  0.85640  Biso   1.000  C
  C264     1.0000 0.79710  0.37100  0.35640  Biso   1.000  C
  C265     1.0000 0.79710  0.62900  0.14360  Biso   1.000  C
  C266     1.0000 0.12100  0.95290  0.60640  Biso   1.000  C
  C267     1.0000 0.12100  0.04710  0.89360  Biso   1.000  C
  C268     1.0000 0.37900  0.95290  0.39360  Biso   1.000  C
  C269     1.0000 0.62100  0.45290  0.10640  Biso   1.000  C
  C270     1.0000 0.62100  0.54710  0.39360  Biso   1.000  C
  C271     1.0000 0.87900  0.45290  0.89360  Biso   1.000  C
  C272     1.0000 0.70290  0.37100  0.64360  Biso   1.000  C
  C273     1.0000 0.62100  0.95290  0.89360  Biso   1.000  C
  C274     1.0000 0.29710  0.37100  0.14360  Biso   1.000  C
  C275     1.0000 0.20290  0.62900  0.64360  Biso   1.000  C
  C276     1.0000 0.20290  0.37100  0.85640  Biso   1.000  C
  C277     1.0000 0.29710  0.62900  0.35640  Biso   1.000  C
  C278     1.0000 0.12100  0.45290  0.39360  Biso   1.000  C
  C279     1.0000 0.79710  0.87100  0.64360  Biso   1.000  C
  C280     1.0000 0.70290  0.12900  0.14360  Biso   1.000  C
  C281     1.0000 0.70290  0.87100  0.35640  Biso   1.000  C
  C282     1.0000 0.87900  0.04710  0.39360  Biso   1.000  C
  C283     1.0000 0.87900  0.95290  0.10640  Biso   1.000  C
  C284     1.0000 0.62100  0.04710  0.60640  Biso   1.000  C
  C285     1.0000 0.37900  0.54710  0.89360  Biso   1.000  C
  C286     1.0000 0.37900  0.45290  0.60640  Biso   1.000  C
  C287     1.0000 0.12100  0.54710  0.10640  Biso   1.000  C
  C288     1.0000 0.79710  0.12900  0.85640  Biso   1.000  C
  H321     1.0000 0.37560  0.08190  0.08800  Biso   1.000  H
  H322     1.0000 0.16810  0.12560  0.33800  Biso   1.000  H
  H323     1.0000 0.33190  0.87440  0.83800  Biso   1.000  H
  H324     1.0000 0.33190  0.12560  0.66200  Biso   1.000  H
  H325     1.0000 0.16810  0.87440  0.16200  Biso   1.000  H
  H326     1.0000 0.87560  0.58190  0.58800  Biso   1.000  H
  H327     1.0000 0.66810  0.62560  0.83800  Biso   1.000  H
  H328     1.0000 0.83190  0.37440  0.33800  Biso   1.000  H
  H329     1.0000 0.83190  0.62560  0.16200  Biso   1.000  H
  H330     1.0000 0.12440  0.91810  0.58800  Biso   1.000  H
  H331     1.0000 0.12440  0.08190  0.91200  Biso   1.000  H
  H332     1.0000 0.37560  0.91810  0.41200  Biso   1.000  H
  H333     1.0000 0.62440  0.41810  0.08800  Biso   1.000  H
  H334     1.0000 0.62440  0.58190  0.41200  Biso   1.000  H
  H335     1.0000 0.87560  0.41810  0.91200  Biso   1.000  H
  H336     1.0000 0.66810  0.37440  0.66200  Biso   1.000  H
  H337     1.0000 0.62440  0.91810  0.91200  Biso   1.000  H
  H338     1.0000 0.33190  0.37440  0.16200  Biso   1.000  H
  H339     1.0000 0.16810  0.62560  0.66200  Biso   1.000  H
  H340     1.0000 0.16810  0.37440  0.83800  Biso   1.000  H
  H341     1.0000 0.33190  0.62560  0.33800  Biso   1.000  H
  H342     1.0000 0.12440  0.41810  0.41200  Biso   1.000  H
  H343     1.0000 0.83190  0.87440  0.66200  Biso   1.000  H
  H344     1.0000 0.66810  0.12560  0.16200  Biso   1.000  H
  H345     1.0000 0.66810  0.87440  0.33800  Biso   1.000  H
  H346     1.0000 0.87560  0.08190  0.41200  Biso   1.000  H
  H347     1.0000 0.87560  0.91810  0.08800  Biso   1.000  H
  H348     1.0000 0.62440  0.08190  0.58800  Biso   1.000  H
  H349     1.0000 0.37560  0.58190  0.91200  Biso   1.000  H
  H350     1.0000 0.37560  0.41810  0.58800  Biso   1.000  H
  H351     1.0000 0.12440  0.58190  0.08800  Biso   1.000  H
  H352     1.0000 0.83190  0.12560  0.83800  Biso   1.000  H
  C289     1.0000 0.34190  0.04840  0.14200  Biso   1.000  C
  C290     1.0000 0.20160  0.09190  0.39200  Biso   1.000  C
  C291     1.0000 0.29840  0.90810  0.89200  Biso   1.000  C
  C292     1.0000 0.29840  0.09190  0.60800  Biso   1.000  C
  C293     1.0000 0.20160  0.90810  0.10800  Biso   1.000  C
  C294     1.0000 0.84190  0.54840  0.64200  Biso   1.000  C
  C295     1.0000 0.70160  0.59190  0.89200  Biso   1.000  C
  C296     1.0000 0.79840  0.40810  0.39200  Biso   1.000  C
  C297     1.0000 0.79840  0.59190  0.10800  Biso   1.000  C
  C298     1.0000 0.15810  0.95160  0.64200  Biso   1.000  C
  C299     1.0000 0.15810  0.04840  0.85800  Biso   1.000  C
  C300     1.0000 0.34190  0.95160  0.35800  Biso   1.000  C
  C301     1.0000 0.65810  0.45160  0.14200  Biso   1.000  C
  C302     1.0000 0.65810  0.54840  0.35800  Biso   1.000  C
  C303     1.0000 0.84190  0.45160  0.85800  Biso   1.000  C
  C304     1.0000 0.70160  0.40810  0.60800  Biso   1.000  C
  C305     1.0000 0.65810  0.95160  0.85800  Biso   1.000  C
  C306     1.0000 0.29840  0.40810  0.10800  Biso   1.000  C
  C307     1.0000 0.20160  0.59190  0.60800  Biso   1.000  C
  C308     1.0000 0.20160  0.40810  0.89200  Biso   1.000  C
  C309     1.0000 0.29840  0.59190  0.39200  Biso   1.000  C
  C310     1.0000 0.15810  0.45160  0.35800  Biso   1.000  C
  C311     1.0000 0.79840  0.90810  0.60800  Biso   1.000  C
  C312     1.0000 0.70160  0.09190  0.10800  Biso   1.000  C
  C313     1.0000 0.70160  0.90810  0.39200  Biso   1.000  C
  C314     1.0000 0.84190  0.04840  0.35800  Biso   1.000  C
  C315     1.0000 0.84190  0.95160  0.14200  Biso   1.000  C
  C316     1.0000 0.65810  0.04840  0.64200  Biso   1.000  C
  C317     1.0000 0.34190  0.54840  0.85800  Biso   1.000  C
  C318     1.0000 0.34190  0.45160  0.64200  Biso   1.000  C
  C319     1.0000 0.15810  0.54840  0.14200  Biso   1.000  C
  C320     1.0000 0.79840  0.09190  0.89200  Biso   1.000  C
  H353     1.0000 0.31370  0.08250  0.14680  Biso   1.000  H
  H354     1.0000 0.16750  0.06370  0.39680  Biso   1.000  H
  H355     1.0000 0.33250  0.93630  0.89680  Biso   1.000  H
  H356     1.0000 0.33250  0.06370  0.60320  Biso   1.000  H
  H357     1.0000 0.16750  0.93630  0.10320  Biso   1.000  H
  H358     1.0000 0.81370  0.58250  0.64680  Biso   1.000  H
  H359     1.0000 0.66750  0.56370  0.89680  Biso   1.000  H
  H360     1.0000 0.83250  0.43630  0.39680  Biso   1.000  H
  H361     1.0000 0.83250  0.56370  0.10320  Biso   1.000  H
  H362     1.0000 0.18630  0.91750  0.64680  Biso   1.000  H
  H363     1.0000 0.18630  0.08250  0.85320  Biso   1.000  H
  H364     1.0000 0.31370  0.91750  0.35320  Biso   1.000  H
  H365     1.0000 0.68630  0.41750  0.14680  Biso   1.000  H
  H366     1.0000 0.68630  0.58250  0.35320  Biso   1.000  H
  H367     1.0000 0.81370  0.41750  0.85320  Biso   1.000  H
  H368     1.0000 0.66750  0.43630  0.60320  Biso   1.000  H
  H369     1.0000 0.68630  0.91750  0.85320  Biso   1.000  H
  H370     1.0000 0.33250  0.43630  0.10320  Biso   1.000  H
  H371     1.0000 0.16750  0.56370  0.60320  Biso   1.000  H
  H372     1.0000 0.16750  0.43630  0.89680  Biso   1.000  H
  H373     1.0000 0.33250  0.56370  0.39680  Biso   1.000  H
  H374     1.0000 0.18630  0.41750  0.35320  Biso   1.000  H
  H375     1.0000 0.83250  0.93630  0.60320  Biso   1.000  H
  H376     1.0000 0.66750  0.06370  0.10320  Biso   1.000  H
  H377     1.0000 0.66750  0.93630  0.39680  Biso   1.000  H
  H378     1.0000 0.81370  0.08250  0.35320  Biso   1.000  H
  H379     1.0000 0.81370  0.91750  0.14680  Biso   1.000  H
  H380     1.0000 0.68630  0.08250  0.64680  Biso   1.000  H
  H381     1.0000 0.31370  0.58250  0.85320  Biso   1.000  H
  H382     1.0000 0.31370  0.41750  0.64680  Biso   1.000  H
  H383     1.0000 0.18630  0.58250  0.14680  Biso   1.000  H
  H384     1.0000 0.83250  0.06370  0.89680  Biso   1.000  H
  C321     1.0000 0.34660  0.99880  0.17069  Biso   1.000  C
  C322     1.0000 0.25120  0.09660  0.42069  Biso   1.000  C
  C323     1.0000 0.24880  0.90340  0.92069  Biso   1.000  C
  C324     1.0000 0.24880  0.09660  0.57931  Biso   1.000  C
  C325     1.0000 0.25120  0.90340  0.07931  Biso   1.000  C
  C326     1.0000 0.84660  0.49880  0.67069  Biso   1.000  C
  C327     1.0000 0.75120  0.59660  0.92069  Biso   1.000  C
  C328     1.0000 0.74880  0.40340  0.42069  Biso   1.000  C
  C329     1.0000 0.74880  0.59660  0.07931  Biso   1.000  C
  C330     1.0000 0.15340  0.00120  0.67069  Biso   1.000  C
  C331     1.0000 0.15340  0.99880  0.82931  Biso   1.000  C
  C332     1.0000 0.34660  0.00120  0.32931  Biso   1.000  C
  C333     1.0000 0.65340  0.50120  0.17069  Biso   1.000  C
  C334     1.0000 0.65340  0.49880  0.32931  Biso   1.000  C
  C335     1.0000 0.84660  0.50120  0.82931  Biso   1.000  C
  C336     1.0000 0.75120  0.40340  0.57931  Biso   1.000  C
  C337     1.0000 0.65340  0.00120  0.82931  Biso   1.000  C
  C338     1.0000 0.24880  0.40340  0.07931  Biso   1.000  C
  C339     1.0000 0.25120  0.59660  0.57931  Biso   1.000  C
  C340     1.0000 0.25120  0.40340  0.92069  Biso   1.000  C
  C341     1.0000 0.24880  0.59660  0.42069  Biso   1.000  C
  C342     1.0000 0.15340  0.50120  0.32931  Biso   1.000  C
  C343     1.0000 0.74880  0.90340  0.57931  Biso   1.000  C
  C344     1.0000 0.75120  0.09660  0.07931  Biso   1.000  C
  C345     1.0000 0.75120  0.90340  0.42069  Biso   1.000  C
  C346     1.0000 0.84660  0.99880  0.32931  Biso   1.000  C
  C347     1.0000 0.84660  0.00120  0.17069  Biso   1.000  C
  C348     1.0000 0.65340  0.99880  0.67069  Biso   1.000  C
  C349     1.0000 0.34660  0.49880  0.82931  Biso   1.000  C
  C350     1.0000 0.34660  0.50120  0.67069  Biso   1.000  C
  C351     1.0000 0.15340  0.49880  0.17069  Biso   1.000  C
  C352     1.0000 0.74880  0.09660  0.92069  Biso   1.000  C
  C353     1.0000 0.38840  0.95120  0.16120  Biso   1.000  C
  C354     1.0000 0.29880  0.13840  0.41120  Biso   1.000  C
  C355     1.0000 0.20120  0.86160  0.91120  Biso   1.000  C
  C356     1.0000 0.20120  0.13840  0.58880  Biso   1.000  C
  C357     1.0000 0.29880  0.86160  0.08880  Biso   1.000  C
  C358     1.0000 0.88840  0.45120  0.66120  Biso   1.000  C
  C359     1.0000 0.79880  0.63840  0.91120  Biso   1.000  C
  C360     1.0000 0.70120  0.36160  0.41120  Biso   1.000  C
  C361     1.0000 0.70120  0.63840  0.08880  Biso   1.000  C
  C362     1.0000 0.11160  0.04880  0.66120  Biso   1.000  C
  C363     1.0000 0.11160  0.95120  0.83880  Biso   1.000  C
  C364     1.0000 0.38840  0.04880  0.33880  Biso   1.000  C
  C365     1.0000 0.61160  0.54880  0.16120  Biso   1.000  C
  C366     1.0000 0.61160  0.45120  0.33880  Biso   1.000  C
  C367     1.0000 0.88840  0.54880  0.83880  Biso   1.000  C
  C368     1.0000 0.79880  0.36160  0.58880  Biso   1.000  C
  C369     1.0000 0.61160  0.04880  0.83880  Biso   1.000  C
  C370     1.0000 0.20120  0.36160  0.08880  Biso   1.000  C
  C371     1.0000 0.29880  0.63840  0.58880  Biso   1.000  C
  C372     1.0000 0.29880  0.36160  0.91120  Biso   1.000  C
  C373     1.0000 0.20120  0.63840  0.41120  Biso   1.000  C
  C374     1.0000 0.11160  0.54880  0.33880  Biso   1.000  C
  C375     1.0000 0.70120  0.86160  0.58880  Biso   1.000  C
  C376     1.0000 0.79880  0.13840  0.08880  Biso   1.000  C
  C377     1.0000 0.79880  0.86160  0.41120  Biso   1.000  C
  C378     1.0000 0.88840  0.95120  0.33880  Biso   1.000  C
  C379     1.0000 0.88840  0.04880  0.16120  Biso   1.000  C
  C380     1.0000 0.61160  0.95120  0.66120  Biso   1.000  C
  C381     1.0000 0.38840  0.45120  0.83880  Biso   1.000  C
  C382     1.0000 0.38840  0.54880  0.66120  Biso   1.000  C
  C383     1.0000 0.11160  0.45120  0.16120  Biso   1.000  C
  C384     1.0000 0.70120  0.13840  0.91120  Biso   1.000  C
  H385     1.0000 0.39470  0.91690  0.17970  Biso   1.000  H
  H386     1.0000 0.33310  0.14470  0.42970  Biso   1.000  H
  H387     1.0000 0.16690  0.85530  0.92970  Biso   1.000  H
  H388     1.0000 0.16690  0.14470  0.57030  Biso   1.000  H
  H389     1.0000 0.33310  0.85530  0.07030  Biso   1.000  H
  H390     1.0000 0.89470  0.41690  0.67970  Biso   1.000  H
  H391     1.0000 0.83310  0.64470  0.92970  Biso   1.000  H
  H392     1.0000 0.66690  0.35530  0.42970  Biso   1.000  H
  H393     1.0000 0.66690  0.64470  0.07030  Biso   1.000  H
  H394     1.0000 0.10530  0.08310  0.67970  Biso   1.000  H
  H395     1.0000 0.10530  0.91690  0.82030  Biso   1.000  H
  H396     1.0000 0.39470  0.08310  0.32030  Biso   1.000  H
  H397     1.0000 0.60530  0.58310  0.17970  Biso   1.000  H
  H398     1.0000 0.60530  0.41690  0.32030  Biso   1.000  H
  H399     1.0000 0.89470  0.58310  0.82030  Biso   1.000  H
  H400     1.0000 0.83310  0.35530  0.57030  Biso   1.000  H
  H401     1.0000 0.60530  0.08310  0.82030  Biso   1.000  H
  H402     1.0000 0.16690  0.35530  0.07030  Biso   1.000  H
  H403     1.0000 0.33310  0.64470  0.57030  Biso   1.000  H
  H404     1.0000 0.33310  0.35530  0.92970  Biso   1.000  H
  H405     1.0000 0.16690  0.64470  0.42970  Biso   1.000  H
  H406     1.0000 0.10530  0.58310  0.32030  Biso   1.000  H
  H407     1.0000 0.66690  0.85530  0.57030  Biso   1.000  H
  H408     1.0000 0.83310  0.14470  0.07030  Biso   1.000  H
  H409     1.0000 0.83310  0.85530  0.42970  Biso   1.000  H
  H410     1.0000 0.89470  0.91690  0.32030  Biso   1.000  H
  H411     1.0000 0.89470  0.08310  0.17970  Biso   1.000  H
  H412     1.0000 0.60530  0.91690  0.67970  Biso   1.000  H
  H413     1.0000 0.39470  0.41690  0.82030  Biso   1.000  H
  H414     1.0000 0.39470  0.58310  0.67970  Biso   1.000  H
  H415     1.0000 0.10530  0.41690  0.17970  Biso   1.000  H
  H416     1.0000 0.66690  0.14470  0.92970  Biso   1.000  H
  C385     1.0000 0.42170  0.95410  0.12370  Biso   1.000  C
  C386     1.0000 0.29590  0.17170  0.37370  Biso   1.000  C
  C387     1.0000 0.20410  0.82830  0.87370  Biso   1.000  C
  C388     1.0000 0.20410  0.17170  0.62630  Biso   1.000  C
  C389     1.0000 0.29590  0.82830  0.12630  Biso   1.000  C
  C390     1.0000 0.92170  0.45410  0.62370  Biso   1.000  C
  C391     1.0000 0.79590  0.67170  0.87370  Biso   1.000  C
  C392     1.0000 0.70410  0.32830  0.37370  Biso   1.000  C
  C393     1.0000 0.70410  0.67170  0.12630  Biso   1.000  C
  C394     1.0000 0.07830  0.04590  0.62370  Biso   1.000  C
  C395     1.0000 0.07830  0.95410  0.87630  Biso   1.000  C
  C396     1.0000 0.42170  0.04590  0.37630  Biso   1.000  C
  C397     1.0000 0.57830  0.54590  0.12370  Biso   1.000  C
  C398     1.0000 0.57830  0.45410  0.37630  Biso   1.000  C
  C399     1.0000 0.92170  0.54590  0.87630  Biso   1.000  C
  C400     1.0000 0.79590  0.32830  0.62630  Biso   1.000  C
  C401     1.0000 0.57830  0.04590  0.87630  Biso   1.000  C
  C402     1.0000 0.20410  0.32830  0.12630  Biso   1.000  C
  C403     1.0000 0.29590  0.67170  0.62630  Biso   1.000  C
  C404     1.0000 0.29590  0.32830  0.87370  Biso   1.000  C
  C405     1.0000 0.20410  0.67170  0.37370  Biso   1.000  C
  C406     1.0000 0.07830  0.54590  0.37630  Biso   1.000  C
  C407     1.0000 0.70410  0.82830  0.62630  Biso   1.000  C
  C408     1.0000 0.79590  0.17170  0.12630  Biso   1.000  C
  C409     1.0000 0.79590  0.82830  0.37370  Biso   1.000  C
  C410     1.0000 0.92170  0.95410  0.37630  Biso   1.000  C
  C411     1.0000 0.92170  0.04590  0.12370  Biso   1.000  C
  C412     1.0000 0.57830  0.95410  0.62370  Biso   1.000  C
  C413     1.0000 0.42170  0.45410  0.87630  Biso   1.000  C
  C414     1.0000 0.42170  0.54590  0.62370  Biso   1.000  C
  C415     1.0000 0.07830  0.45410  0.12370  Biso   1.000  C
  C416     1.0000 0.70410  0.17170  0.87370  Biso   1.000  C
  H417     1.0000 0.44890  0.91990  0.11730  Biso   1.000  H
  H418     1.0000 0.33010  0.19890  0.36730  Biso   1.000  H
  H419     1.0000 0.16990  0.80110  0.86730  Biso   1.000  H
  H420     1.0000 0.16990  0.19890  0.63270  Biso   1.000  H
  H421     1.0000 0.33010  0.80110  0.13270  Biso   1.000  H
  H422     1.0000 0.94890  0.41990  0.61730  Biso   1.000  H
  H423     1.0000 0.83010  0.69890  0.86730  Biso   1.000  H
  H424     1.0000 0.66990  0.30110  0.36730  Biso   1.000  H
  H425     1.0000 0.66990  0.69890  0.13270  Biso   1.000  H
  H426     1.0000 0.05110  0.08010  0.61730  Biso   1.000  H
  H427     1.0000 0.05110  0.91990  0.88270  Biso   1.000  H
  H428     1.0000 0.44890  0.08010  0.38270  Biso   1.000  H
  H429     1.0000 0.55110  0.58010  0.11730  Biso   1.000  H
  H430     1.0000 0.55110  0.41990  0.38270  Biso   1.000  H
  H431     1.0000 0.94890  0.58010  0.88270  Biso   1.000  H
  H432     1.0000 0.83010  0.30110  0.63270  Biso   1.000  H
  H433     1.0000 0.55110  0.08010  0.88270  Biso   1.000  H
  H434     1.0000 0.16990  0.30110  0.13270  Biso   1.000  H
  H435     1.0000 0.33010  0.69890  0.63270  Biso   1.000  H
  H436     1.0000 0.33010  0.30110  0.86730  Biso   1.000  H
  H437     1.0000 0.16990  0.69890  0.36730  Biso   1.000  H
  H438     1.0000 0.05110  0.58010  0.38270  Biso   1.000  H
  H439     1.0000 0.66990  0.80110  0.63270  Biso   1.000  H
  H440     1.0000 0.83010  0.19890  0.13270  Biso   1.000  H
  H441     1.0000 0.83010  0.80110  0.36730  Biso   1.000  H
  H442     1.0000 0.94890  0.91990  0.38270  Biso   1.000  H
  H443     1.0000 0.94890  0.08010  0.11730  Biso   1.000  H
  H444     1.0000 0.55110  0.91990  0.61730  Biso   1.000  H
  H445     1.0000 0.44890  0.41990  0.88270  Biso   1.000  H
  H446     1.0000 0.44890  0.58010  0.61730  Biso   1.000  H
  H447     1.0000 0.05110  0.41990  0.11730  Biso   1.000  H
  H448     1.0000 0.66990  0.19890  0.86730  Biso   1.000  H
  C417     1.0000 0.30560  0.99870  0.21101  Biso   1.000  C
  C418     1.0000 0.25130  0.05560  0.46101  Biso   1.000  C
  C419     1.0000 0.24870  0.94440  0.96101  Biso   1.000  C
  C420     1.0000 0.24870  0.05560  0.53899  Biso   1.000  C
  C421     1.0000 0.25130  0.94440  0.03899  Biso   1.000  C
  C422     1.0000 0.80560  0.49870  0.71101  Biso   1.000  C
  C423     1.0000 0.75130  0.55560  0.96101  Biso   1.000  C
  C424     1.0000 0.74870  0.44440  0.46101  Biso   1.000  C
  C425     1.0000 0.74870  0.55560  0.03899  Biso   1.000  C
  C426     1.0000 0.19440  0.00130  0.71101  Biso   1.000  C
  C427     1.0000 0.19440  0.99870  0.78899  Biso   1.000  C
  C428     1.0000 0.30560  0.00130  0.28899  Biso   1.000  C
  C429     1.0000 0.69440  0.50130  0.21101  Biso   1.000  C
  C430     1.0000 0.69440  0.49870  0.28899  Biso   1.000  C
  C431     1.0000 0.80560  0.50130  0.78899  Biso   1.000  C
  C432     1.0000 0.75130  0.44440  0.53899  Biso   1.000  C
  C433     1.0000 0.69440  0.00130  0.78899  Biso   1.000  C
  C434     1.0000 0.24870  0.44440  0.03899  Biso   1.000  C
  C435     1.0000 0.25130  0.55560  0.53899  Biso   1.000  C
  C436     1.0000 0.25130  0.44440  0.96101  Biso   1.000  C
  C437     1.0000 0.24870  0.55560  0.46101  Biso   1.000  C
  C438     1.0000 0.19440  0.50130  0.28899  Biso   1.000  C
  C439     1.0000 0.74870  0.94440  0.53899  Biso   1.000  C
  C440     1.0000 0.75130  0.05560  0.03899  Biso   1.000  C
  C441     1.0000 0.75130  0.94440  0.46101  Biso   1.000  C
  C442     1.0000 0.80560  0.99870  0.28899  Biso   1.000  C
  C443     1.0000 0.80560  0.00130  0.21101  Biso   1.000  C
  C444     1.0000 0.69440  0.99870  0.71101  Biso   1.000  C
  C445     1.0000 0.30560  0.49870  0.78899  Biso   1.000  C
  C446     1.0000 0.30560  0.50130  0.71101  Biso   1.000  C
  C447     1.0000 0.19440  0.49870  0.21101  Biso   1.000  C
  C448     1.0000 0.74870  0.05560  0.96101  Biso   1.000  C
  H449     1.0000 0.27740  0.03610  0.21070  Biso   1.000  H
  H450     1.0000 0.21390  0.02740  0.46070  Biso   1.000  H
  H451     1.0000 0.28610  0.97260  0.96070  Biso   1.000  H
  H452     1.0000 0.28610  0.02740  0.53930  Biso   1.000  H
  H453     1.0000 0.21390  0.97260  0.03930  Biso   1.000  H
  H454     1.0000 0.77740  0.53610  0.71070  Biso   1.000  H
  H455     1.0000 0.71390  0.52740  0.96070  Biso   1.000  H
  H456     1.0000 0.78610  0.47260  0.46070  Biso   1.000  H
  H457     1.0000 0.78610  0.52740  0.03930  Biso   1.000  H
  H458     1.0000 0.22260  0.96390  0.71070  Biso   1.000  H
  H459     1.0000 0.22260  0.03610  0.78930  Biso   1.000  H
  H460     1.0000 0.27740  0.96390  0.28930  Biso   1.000  H
  H461     1.0000 0.72260  0.46390  0.21070  Biso   1.000  H
  H462     1.0000 0.72260  0.53610  0.28930  Biso   1.000  H
  H463     1.0000 0.77740  0.46390  0.78930  Biso   1.000  H
  H464     1.0000 0.71390  0.47260  0.53930  Biso   1.000  H
  H465     1.0000 0.72260  0.96390  0.78930  Biso   1.000  H
  H466     1.0000 0.28610  0.47260  0.03930  Biso   1.000  H
  H467     1.0000 0.21390  0.52740  0.53930  Biso   1.000  H
  H468     1.0000 0.21390  0.47260  0.96070  Biso   1.000  H
  H469     1.0000 0.28610  0.52740  0.46070  Biso   1.000  H
  H470     1.0000 0.22260  0.46390  0.28930  Biso   1.000  H
  H471     1.0000 0.78610  0.97260  0.53930  Biso   1.000  H
  H472     1.0000 0.71390  0.02740  0.03930  Biso   1.000  H
  H473     1.0000 0.71390  0.97260  0.46070  Biso   1.000  H
  H474     1.0000 0.77740  0.03610  0.28930  Biso   1.000  H
  H475     1.0000 0.77740  0.96390  0.21070  Biso   1.000  H
  H476     1.0000 0.72260  0.03610  0.71070  Biso   1.000  H
  H477     1.0000 0.27740  0.53610  0.78930  Biso   1.000  H
  H478     1.0000 0.27740  0.46390  0.71070  Biso   1.000  H
  H479     1.0000 0.22260  0.53610  0.21070  Biso   1.000  H
  H480     1.0000 0.78610  0.02740  0.96070  Biso   1.000  H
  H481     1.0000 0.27870  0.96050  0.21130  Biso   1.000  H
  H482     1.0000 0.28950  0.02870  0.46130  Biso   1.000  H
  H483     1.0000 0.21050  0.97130  0.96130  Biso   1.000  H
  H484     1.0000 0.21050  0.02870  0.53870  Biso   1.000  H
  H485     1.0000 0.28950  0.97130  0.03870  Biso   1.000  H
  H486     1.0000 0.77870  0.46050  0.71130  Biso   1.000  H
  H487     1.0000 0.78950  0.52870  0.96130  Biso   1.000  H
  H488     1.0000 0.71050  0.47130  0.46130  Biso   1.000  H
  H489     1.0000 0.71050  0.52870  0.03870  Biso   1.000  H
  H490     1.0000 0.22130  0.03950  0.71130  Biso   1.000  H
  H491     1.0000 0.22130  0.96050  0.78870  Biso   1.000  H
  H492     1.0000 0.27870  0.03950  0.28870  Biso   1.000  H
  H493     1.0000 0.72130  0.53950  0.21130  Biso   1.000  H
  H494     1.0000 0.72130  0.46050  0.28870  Biso   1.000  H
  H495     1.0000 0.77870  0.53950  0.78870  Biso   1.000  H
  H496     1.0000 0.78950  0.47130  0.53870  Biso   1.000  H
  H497     1.0000 0.72130  0.03950  0.78870  Biso   1.000  H
  H498     1.0000 0.21050  0.47130  0.03870  Biso   1.000  H
  H499     1.0000 0.28950  0.52870  0.53870  Biso   1.000  H
  H500     1.0000 0.28950  0.47130  0.96130  Biso   1.000  H
  H501     1.0000 0.21050  0.52870  0.46130  Biso   1.000  H
  H502     1.0000 0.22130  0.53950  0.28870  Biso   1.000  H
  H503     1.0000 0.71050  0.97130  0.53870  Biso   1.000  H
  H504     1.0000 0.78950  0.02870  0.03870  Biso   1.000  H
  H505     1.0000 0.78950  0.97130  0.46130  Biso   1.000  H
  H506     1.0000 0.77870  0.96050  0.28870  Biso   1.000  H
  H507     1.0000 0.77870  0.03950  0.21130  Biso   1.000  H
  H508     1.0000 0.72130  0.96050  0.71130  Biso   1.000  H
  H509     1.0000 0.27870  0.46050  0.78870  Biso   1.000  H
  H510     1.0000 0.27870  0.53950  0.71130  Biso   1.000  H
  H511     1.0000 0.22130  0.46050  0.21130  Biso   1.000  H
  H512     1.0000 0.71050  0.02870  0.96130  Biso   1.000  H
  C449     1.0000 0.34520  0.00000  0.25000  Biso   1.000  C
  C450     1.0000 0.25000  0.09520  0.50000  Biso   1.000  C
  C451     1.0000 0.25000  0.90480  0.00000  Biso   1.000  C
  C452     1.0000 0.84520  0.50000  0.75000  Biso   1.000  C
  C453     1.0000 0.75000  0.59520  0.00000  Biso   1.000  C
  C454     1.0000 0.75000  0.40480  0.50000  Biso   1.000  C
  C455     1.0000 0.15480  0.00000  0.75000  Biso   1.000  C
  C456     1.0000 0.65480  0.50000  0.25000  Biso   1.000  C
  C457     1.0000 0.65480  0.00000  0.75000  Biso   1.000  C
  C458     1.0000 0.25000  0.40480  0.00000  Biso   1.000  C
  C459     1.0000 0.25000  0.59520  0.50000  Biso   1.000  C
  C460     1.0000 0.15480  0.50000  0.25000  Biso   1.000  C
  C461     1.0000 0.75000  0.90480  0.50000  Biso   1.000  C
  C462     1.0000 0.75000  0.09520  0.00000  Biso   1.000  C
  C463     1.0000 0.84520  0.00000  0.25000  Biso   1.000  C
  C464     1.0000 0.34520  0.50000  0.75000  Biso   1.000  C
  H513     1.0000 0.36900  0.03300  0.24630  Biso   1.000  H
  H514     1.0000 0.21700  0.11900  0.49630  Biso   1.000  H
  H515     1.0000 0.28300  0.88100  0.99630  Biso   1.000  H
  H516     1.0000 0.28300  0.11900  0.50370  Biso   1.000  H
  H517     1.0000 0.21700  0.88100  0.00370  Biso   1.000  H
  H518     1.0000 0.86900  0.53300  0.74630  Biso   1.000  H
  H519     1.0000 0.71700  0.61900  0.99630  Biso   1.000  H
  H520     1.0000 0.78300  0.38100  0.49630  Biso   1.000  H
  H521     1.0000 0.78300  0.61900  0.00370  Biso   1.000  H
  H522     1.0000 0.13100  0.96700  0.74630  Biso   1.000  H
  H523     1.0000 0.13100  0.03300  0.75370  Biso   1.000  H
  H524     1.0000 0.36900  0.96700  0.25370  Biso   1.000  H
  H525     1.0000 0.63100  0.46700  0.24630  Biso   1.000  H
  H526     1.0000 0.63100  0.53300  0.25370  Biso   1.000  H
  H527     1.0000 0.86900  0.46700  0.75370  Biso   1.000  H
  H528     1.0000 0.71700  0.38100  0.50370  Biso   1.000  H
  H529     1.0000 0.63100  0.96700  0.75370  Biso   1.000  H
  H530     1.0000 0.28300  0.38100  0.00370  Biso   1.000  H
  H531     1.0000 0.21700  0.61900  0.50370  Biso   1.000  H
  H532     1.0000 0.21700  0.38100  0.99630  Biso   1.000  H
  H533     1.0000 0.28300  0.61900  0.49630  Biso   1.000  H
  H534     1.0000 0.13100  0.46700  0.25370  Biso   1.000  H
  H535     1.0000 0.78300  0.88100  0.50370  Biso   1.000  H
  H536     1.0000 0.71700  0.11900  0.00370  Biso   1.000  H
  H537     1.0000 0.71700  0.88100  0.49630  Biso   1.000  H
  H538     1.0000 0.86900  0.03300  0.25370  Biso   1.000  H
  H539     1.0000 0.86900  0.96700  0.24630  Biso   1.000  H
  H540     1.0000 0.63100  0.03300  0.74630  Biso   1.000  H
  H541     1.0000 0.36900  0.53300  0.75370  Biso   1.000  H
  H542     1.0000 0.36900  0.46700  0.74630  Biso   1.000  H
  H543     1.0000 0.13100  0.53300  0.24630  Biso   1.000  H
  H544     1.0000 0.78300  0.11900  0.99630  Biso   1.000  H
  H545     1.0000 0.53860  0.25600  0.93820  Biso   1.000  H
  H546     1.0000 0.99400  0.28860  0.18820  Biso   1.000  H
  H547     1.0000 0.50600  0.71140  0.68820  Biso   1.000  H
  H548     1.0000 0.50600  0.28860  0.81180  Biso   1.000  H
  H549     1.0000 0.99400  0.71140  0.31180  Biso   1.000  H
  H550     1.0000 0.03860  0.75600  0.43820  Biso   1.000  H
  H551     1.0000 0.49400  0.78860  0.68820  Biso   1.000  H
  H552     1.0000 0.00600  0.21140  0.18820  Biso   1.000  H
  H553     1.0000 0.00600  0.78860  0.31180  Biso   1.000  H
  H554     1.0000 0.96140  0.74400  0.43820  Biso   1.000  H
  H555     1.0000 0.96140  0.25600  0.06180  Biso   1.000  H
  H556     1.0000 0.53860  0.74400  0.56180  Biso   1.000  H
  H557     1.0000 0.46140  0.24400  0.93820  Biso   1.000  H
  H558     1.0000 0.46140  0.75600  0.56180  Biso   1.000  H
  H559     1.0000 0.03860  0.24400  0.06180  Biso   1.000  H
  H560     1.0000 0.49400  0.21140  0.81180  Biso   1.000  H
  H561     1.0000 0.46140  0.74400  0.06180  Biso   1.000  H
  H562     1.0000 0.50600  0.21140  0.31180  Biso   1.000  H
  H563     1.0000 0.99400  0.78860  0.81180  Biso   1.000  H
  H564     1.0000 0.99400  0.21140  0.68820  Biso   1.000  H
  H565     1.0000 0.50600  0.78860  0.18820  Biso   1.000  H
  H566     1.0000 0.96140  0.24400  0.56180  Biso   1.000  H
  H567     1.0000 0.00600  0.71140  0.81180  Biso   1.000  H
  H568     1.0000 0.49400  0.28860  0.31180  Biso   1.000  H
  H569     1.0000 0.49400  0.71140  0.18820  Biso   1.000  H
  H570     1.0000 0.03860  0.25600  0.56180  Biso   1.000  H
  H571     1.0000 0.03860  0.74400  0.93820  Biso   1.000  H
  H572     1.0000 0.46140  0.25600  0.43820  Biso   1.000  H
  H573     1.0000 0.53860  0.75600  0.06180  Biso   1.000  H
  H574     1.0000 0.53860  0.24400  0.43820  Biso   1.000  H
  H575     1.0000 0.96140  0.75600  0.93820  Biso   1.000  H
  H576     1.0000 0.00600  0.28860  0.68820  Biso   1.000  H
