data_image0
_cell_length_a       21.931
_cell_length_b       21.931
_cell_length_c       27.776
_cell_angle_alpha    90
_cell_angle_beta     90
_cell_angle_gamma    90

_symmetry_space_group_name_H-M    "P 1"
_symmetry_int_tables_number       1

loop_
  _symmetry_equiv_pos_as_xyz
  'x, y, z'

loop_
  _atom_site_label
  _atom_site_occupancy
  _atom_site_fract_x
  _atom_site_fract_y
  _atom_site_fract_z
  _atom_site_thermal_displace_type
  _atom_site_B_iso_or_equiv
  _atom_site_type_symbol
  C1       1.0000 0.97930  0.97250  0.06210  Biso   1.000  C
  C2       1.0000 0.02070  0.02750  0.56210  Biso   1.000  C
  C3       1.0000 0.52750  0.47930  0.81210  Biso   1.000  C
  C4       1.0000 0.47250  0.52070  0.31210  Biso   1.000  C
  C5       1.0000 0.52070  0.47250  0.68790  Biso   1.000  C
  C6       1.0000 0.47930  0.52750  0.18790  Biso   1.000  C
  C7       1.0000 0.97250  0.97930  0.93790  Biso   1.000  C
  C8       1.0000 0.02750  0.02070  0.43790  Biso   1.000  C
  C9       1.0000 0.92540  0.94190  0.06960  Biso   1.000  C
  C10      1.0000 0.07460  0.05810  0.56960  Biso   1.000  C
  C11      1.0000 0.55810  0.42540  0.81960  Biso   1.000  C
  C12      1.0000 0.44190  0.57460  0.31960  Biso   1.000  C
  C13      1.0000 0.57460  0.44190  0.68040  Biso   1.000  C
  C14      1.0000 0.42540  0.55810  0.18040  Biso   1.000  C
  C15      1.0000 0.94190  0.92540  0.93040  Biso   1.000  C
  C16      1.0000 0.05810  0.07460  0.43040  Biso   1.000  C
  H1       1.0000 0.88990  0.96430  0.07450  Biso   1.000  H
  H2       1.0000 0.11010  0.03570  0.57450  Biso   1.000  H
  H3       1.0000 0.53570  0.38990  0.82450  Biso   1.000  H
  H4       1.0000 0.46430  0.61010  0.32450  Biso   1.000  H
  H5       1.0000 0.61010  0.46430  0.67550  Biso   1.000  H
  H6       1.0000 0.38990  0.53570  0.17550  Biso   1.000  H
  H7       1.0000 0.96430  0.88990  0.92550  Biso   1.000  H
  H8       1.0000 0.03570  0.11010  0.42550  Biso   1.000  H
  C17      1.0000 0.92230  0.87870  0.07000  Biso   1.000  C
  C18      1.0000 0.07770  0.12130  0.57000  Biso   1.000  C
  C19      1.0000 0.62130  0.42230  0.82000  Biso   1.000  C
  C20      1.0000 0.37870  0.57770  0.32000  Biso   1.000  C
  C21      1.0000 0.57770  0.37870  0.68000  Biso   1.000  C
  C22      1.0000 0.42230  0.62130  0.18000  Biso   1.000  C
  C23      1.0000 0.87870  0.92230  0.93000  Biso   1.000  C
  C24      1.0000 0.12130  0.07770  0.43000  Biso   1.000  C
  C25      1.0000 0.97770  0.84510  0.06150  Biso   1.000  C
  C26      1.0000 0.02230  0.15490  0.56150  Biso   1.000  C
  C27      1.0000 0.65490  0.47770  0.81150  Biso   1.000  C
  C28      1.0000 0.34510  0.52230  0.31150  Biso   1.000  C
  C29      1.0000 0.52230  0.34510  0.68850  Biso   1.000  C
  C30      1.0000 0.47770  0.65490  0.18850  Biso   1.000  C
  C31      1.0000 0.84510  0.97770  0.93850  Biso   1.000  C
  C32      1.0000 0.15490  0.02230  0.43850  Biso   1.000  C
  C33      1.0000 0.03310  0.87920  0.05280  Biso   1.000  C
  C34      1.0000 0.96690  0.12080  0.55280  Biso   1.000  C
  C35      1.0000 0.62080  0.53310  0.80280  Biso   1.000  C
  C36      1.0000 0.37920  0.46690  0.30280  Biso   1.000  C
  C37      1.0000 0.46690  0.37920  0.69720  Biso   1.000  C
  C38      1.0000 0.53310  0.62080  0.19720  Biso   1.000  C
  C39      1.0000 0.87920  0.03310  0.94720  Biso   1.000  C
  C40      1.0000 0.12080  0.96690  0.44720  Biso   1.000  C
  C41      1.0000 0.03150  0.94190  0.05500  Biso   1.000  C
  C42      1.0000 0.96850  0.05810  0.55500  Biso   1.000  C
  C43      1.0000 0.55810  0.53150  0.80500  Biso   1.000  C
  C44      1.0000 0.44190  0.46850  0.30500  Biso   1.000  C
  C45      1.0000 0.46850  0.44190  0.69500  Biso   1.000  C
  C46      1.0000 0.53150  0.55810  0.19500  Biso   1.000  C
  C47      1.0000 0.94190  0.03150  0.94500  Biso   1.000  C
  C48      1.0000 0.05810  0.96850  0.44500  Biso   1.000  C
  H9       1.0000 0.06770  0.96360  0.05140  Biso   1.000  H
  H10      1.0000 0.93230  0.03640  0.55140  Biso   1.000  H
  H11      1.0000 0.53640  0.56770  0.80140  Biso   1.000  H
  H12      1.0000 0.46360  0.43230  0.30140  Biso   1.000  H
  H13      1.0000 0.43230  0.46360  0.69860  Biso   1.000  H
  H14      1.0000 0.56770  0.53640  0.19860  Biso   1.000  H
  H15      1.0000 0.96360  0.06770  0.94860  Biso   1.000  H
  H16      1.0000 0.03640  0.93230  0.44860  Biso   1.000  H
  C49      1.0000 0.86360  0.85000  0.08400  Biso   1.000  C
  C50      1.0000 0.13640  0.15000  0.58400  Biso   1.000  C
  C51      1.0000 0.65000  0.36360  0.83400  Biso   1.000  C
  C52      1.0000 0.35000  0.63640  0.33400  Biso   1.000  C
  C53      1.0000 0.63640  0.35000  0.66600  Biso   1.000  C
  C54      1.0000 0.36360  0.65000  0.16600  Biso   1.000  C
  C55      1.0000 0.85000  0.86360  0.91600  Biso   1.000  C
  C56      1.0000 0.15000  0.13640  0.41600  Biso   1.000  C
  C57      1.0000 0.09410  0.84990  0.04700  Biso   1.000  C
  C58      1.0000 0.90590  0.15010  0.54700  Biso   1.000  C
  C59      1.0000 0.65010  0.59410  0.79700  Biso   1.000  C
  C60      1.0000 0.34990  0.40590  0.29700  Biso   1.000  C
  C61      1.0000 0.40590  0.34990  0.70300  Biso   1.000  C
  C62      1.0000 0.59410  0.65010  0.20300  Biso   1.000  C
  C63      1.0000 0.84990  0.09410  0.95300  Biso   1.000  C
  C64      1.0000 0.15010  0.90590  0.45300  Biso   1.000  C
  C65      1.0000 0.97810  0.61280  0.05750  Biso   1.000  C
  C66      1.0000 0.02190  0.38720  0.55750  Biso   1.000  C
  C67      1.0000 0.88720  0.47810  0.80750  Biso   1.000  C
  C68      1.0000 0.11280  0.52190  0.30750  Biso   1.000  C
  C69      1.0000 0.52190  0.11280  0.69250  Biso   1.000  C
  C70      1.0000 0.47810  0.88720  0.19250  Biso   1.000  C
  C71      1.0000 0.61280  0.97810  0.94250  Biso   1.000  C
  C72      1.0000 0.38720  0.02190  0.44250  Biso   1.000  C
  C73      1.0000 0.92220  0.57860  0.06500  Biso   1.000  C
  C74      1.0000 0.07780  0.42140  0.56500  Biso   1.000  C
  C75      1.0000 0.92140  0.42220  0.81500  Biso   1.000  C
  C76      1.0000 0.07860  0.57780  0.31500  Biso   1.000  C
  C77      1.0000 0.57780  0.07860  0.68500  Biso   1.000  C
  C78      1.0000 0.42220  0.92140  0.18500  Biso   1.000  C
  C79      1.0000 0.57860  0.92220  0.93500  Biso   1.000  C
  C80      1.0000 0.42140  0.07780  0.43500  Biso   1.000  C
  C81      1.0000 0.92200  0.51480  0.06410  Biso   1.000  C
  C82      1.0000 0.07800  0.48520  0.56410  Biso   1.000  C
  C83      1.0000 0.98520  0.42200  0.81410  Biso   1.000  C
  C84      1.0000 0.01480  0.57800  0.31410  Biso   1.000  C
  C85      1.0000 0.57800  0.01480  0.68590  Biso   1.000  C
  C86      1.0000 0.42200  0.98520  0.18590  Biso   1.000  C
  C87      1.0000 0.51480  0.92200  0.93590  Biso   1.000  C
  C88      1.0000 0.48520  0.07800  0.43590  Biso   1.000  C
  H17      1.0000 0.88580  0.49330  0.06790  Biso   1.000  H
  H18      1.0000 0.11420  0.50670  0.56790  Biso   1.000  H
  H19      1.0000 0.00670  0.38580  0.81790  Biso   1.000  H
  H20      1.0000 0.99330  0.61420  0.31790  Biso   1.000  H
  H21      1.0000 0.61420  0.99330  0.68210  Biso   1.000  H
  H22      1.0000 0.38580  0.00670  0.18210  Biso   1.000  H
  H23      1.0000 0.49330  0.88580  0.93210  Biso   1.000  H
  H24      1.0000 0.50670  0.11420  0.43210  Biso   1.000  H
  C89      1.0000 0.97700  0.48380  0.05740  Biso   1.000  C
  C90      1.0000 0.02300  0.51620  0.55740  Biso   1.000  C
  C91      1.0000 0.01620  0.47700  0.80740  Biso   1.000  C
  C92      1.0000 0.98380  0.52300  0.30740  Biso   1.000  C
  C93      1.0000 0.52300  0.98380  0.69260  Biso   1.000  C
  C94      1.0000 0.47700  0.01620  0.19260  Biso   1.000  C
  C95      1.0000 0.48380  0.97700  0.94260  Biso   1.000  C
  C96      1.0000 0.51620  0.02300  0.44260  Biso   1.000  C
  C97      1.0000 0.03220  0.51410  0.04990  Biso   1.000  C
  C98      1.0000 0.96780  0.48590  0.54990  Biso   1.000  C
  C99      1.0000 0.98590  0.53220  0.79990  Biso   1.000  C
  C100     1.0000 0.01410  0.46780  0.29990  Biso   1.000  C
  C101     1.0000 0.46780  0.01410  0.70010  Biso   1.000  C
  C102     1.0000 0.53220  0.98590  0.20010  Biso   1.000  C
  C103     1.0000 0.51410  0.03220  0.95010  Biso   1.000  C
  C104     1.0000 0.48590  0.96780  0.45010  Biso   1.000  C
  H25      1.0000 0.06810  0.49240  0.04480  Biso   1.000  H
  H26      1.0000 0.93190  0.50760  0.54480  Biso   1.000  H
  H27      1.0000 0.00760  0.56810  0.79480  Biso   1.000  H
  H28      1.0000 0.99240  0.43190  0.29480  Biso   1.000  H
  H29      1.0000 0.43190  0.99240  0.70520  Biso   1.000  H
  H30      1.0000 0.56810  0.00760  0.20520  Biso   1.000  H
  H31      1.0000 0.49240  0.06810  0.95520  Biso   1.000  H
  H32      1.0000 0.50760  0.93190  0.45520  Biso   1.000  H
  C105     1.0000 0.03220  0.57960  0.05020  Biso   1.000  C
  C106     1.0000 0.96780  0.42040  0.55020  Biso   1.000  C
  C107     1.0000 0.92040  0.53220  0.80020  Biso   1.000  C
  C108     1.0000 0.07960  0.46780  0.30020  Biso   1.000  C
  C109     1.0000 0.46780  0.07960  0.69980  Biso   1.000  C
  C110     1.0000 0.53220  0.92040  0.19980  Biso   1.000  C
  C111     1.0000 0.57960  0.03220  0.94980  Biso   1.000  C
  C112     1.0000 0.42040  0.96780  0.44980  Biso   1.000  C
  C113     1.0000 0.85980  0.60950  0.07670  Biso   1.000  C
  C114     1.0000 0.14020  0.39050  0.57670  Biso   1.000  C
  C115     1.0000 0.89050  0.35980  0.82670  Biso   1.000  C
  C116     1.0000 0.10950  0.64020  0.32670  Biso   1.000  C
  C117     1.0000 0.64020  0.10950  0.67330  Biso   1.000  C
  C118     1.0000 0.35980  0.89050  0.17330  Biso   1.000  C
  C119     1.0000 0.60950  0.85980  0.92330  Biso   1.000  C
  C120     1.0000 0.39050  0.14020  0.42330  Biso   1.000  C
  C121     1.0000 0.09410  0.60800  0.04380  Biso   1.000  C
  C122     1.0000 0.90590  0.39200  0.54380  Biso   1.000  C
  C123     1.0000 0.89200  0.59410  0.79380  Biso   1.000  C
  C124     1.0000 0.10800  0.40590  0.29380  Biso   1.000  C
  C125     1.0000 0.40590  0.10800  0.70620  Biso   1.000  C
  C126     1.0000 0.59410  0.89200  0.20620  Biso   1.000  C
  C127     1.0000 0.60800  0.09410  0.95620  Biso   1.000  C
  C128     1.0000 0.39200  0.90590  0.45620  Biso   1.000  C
  C129     1.0000 0.47000  0.84040  0.06780  Biso   1.000  C
  C130     1.0000 0.53000  0.15960  0.56780  Biso   1.000  C
  C131     1.0000 0.65960  0.97000  0.81780  Biso   1.000  C
  C132     1.0000 0.34040  0.03000  0.31780  Biso   1.000  C
  C133     1.0000 0.03000  0.34040  0.68220  Biso   1.000  C
  C134     1.0000 0.97000  0.65960  0.18220  Biso   1.000  C
  C135     1.0000 0.84040  0.47000  0.93220  Biso   1.000  C
  C136     1.0000 0.15960  0.53000  0.43220  Biso   1.000  C
  C137     1.0000 0.41590  0.87330  0.05920  Biso   1.000  C
  C138     1.0000 0.58410  0.12670  0.55920  Biso   1.000  C
  C139     1.0000 0.62670  0.91590  0.80920  Biso   1.000  C
  C140     1.0000 0.37330  0.08410  0.30920  Biso   1.000  C
  C141     1.0000 0.08410  0.37330  0.69080  Biso   1.000  C
  C142     1.0000 0.91590  0.62670  0.19080  Biso   1.000  C
  C143     1.0000 0.87330  0.41590  0.94080  Biso   1.000  C
  C144     1.0000 0.12670  0.58410  0.44080  Biso   1.000  C
  C145     1.0000 0.41760  0.93780  0.05830  Biso   1.000  C
  C146     1.0000 0.58240  0.06220  0.55830  Biso   1.000  C
  C147     1.0000 0.56220  0.91760  0.80830  Biso   1.000  C
  C148     1.0000 0.43780  0.08240  0.30830  Biso   1.000  C
  C149     1.0000 0.08240  0.43780  0.69170  Biso   1.000  C
  C150     1.0000 0.91760  0.56220  0.19170  Biso   1.000  C
  C151     1.0000 0.93780  0.41760  0.94170  Biso   1.000  C
  C152     1.0000 0.06220  0.58240  0.44170  Biso   1.000  C
  H33      1.0000 0.38220  0.95970  0.05200  Biso   1.000  H
  H34      1.0000 0.61780  0.04030  0.55200  Biso   1.000  H
  H35      1.0000 0.54030  0.88220  0.80200  Biso   1.000  H
  H36      1.0000 0.45970  0.11780  0.30200  Biso   1.000  H
  H37      1.0000 0.11780  0.45970  0.69800  Biso   1.000  H
  H38      1.0000 0.88220  0.54030  0.19800  Biso   1.000  H
  H39      1.0000 0.95970  0.38220  0.94800  Biso   1.000  H
  H40      1.0000 0.04030  0.61780  0.44800  Biso   1.000  H
  C153     1.0000 0.47250  0.96890  0.06700  Biso   1.000  C
  C154     1.0000 0.52750  0.03110  0.56700  Biso   1.000  C
  C155     1.0000 0.53110  0.97250  0.81700  Biso   1.000  C
  C156     1.0000 0.46890  0.02750  0.31700  Biso   1.000  C
  C157     1.0000 0.02750  0.46890  0.68300  Biso   1.000  C
  C158     1.0000 0.97250  0.53110  0.18300  Biso   1.000  C
  C159     1.0000 0.96890  0.47250  0.93300  Biso   1.000  C
  C160     1.0000 0.03110  0.52750  0.43300  Biso   1.000  C
  C161     1.0000 0.52580  0.93690  0.07520  Biso   1.000  C
  C162     1.0000 0.47420  0.06310  0.57520  Biso   1.000  C
  C163     1.0000 0.56310  0.02580  0.82520  Biso   1.000  C
  C164     1.0000 0.43690  0.97420  0.32520  Biso   1.000  C
  C165     1.0000 0.97420  0.43690  0.67480  Biso   1.000  C
  C166     1.0000 0.02580  0.56310  0.17480  Biso   1.000  C
  C167     1.0000 0.93690  0.52580  0.92480  Biso   1.000  C
  C168     1.0000 0.06310  0.47420  0.42480  Biso   1.000  C
  H41      1.0000 0.56190  0.95830  0.08010  Biso   1.000  H
  H42      1.0000 0.43810  0.04170  0.58010  Biso   1.000  H
  H43      1.0000 0.54170  0.06190  0.83010  Biso   1.000  H
  H44      1.0000 0.45830  0.93810  0.33010  Biso   1.000  H
  H45      1.0000 0.93810  0.45830  0.66990  Biso   1.000  H
  H46      1.0000 0.06190  0.54170  0.16990  Biso   1.000  H
  H47      1.0000 0.95830  0.56190  0.91990  Biso   1.000  H
  H48      1.0000 0.04170  0.43810  0.41990  Biso   1.000  H
  C169     1.0000 0.52670  0.87170  0.07650  Biso   1.000  C
  C170     1.0000 0.47330  0.12830  0.57650  Biso   1.000  C
  C171     1.0000 0.62830  0.02670  0.82650  Biso   1.000  C
  C172     1.0000 0.37170  0.97330  0.32650  Biso   1.000  C
  C173     1.0000 0.97330  0.37170  0.67350  Biso   1.000  C
  C174     1.0000 0.02670  0.62830  0.17350  Biso   1.000  C
  C175     1.0000 0.87170  0.52670  0.92350  Biso   1.000  C
  C176     1.0000 0.12830  0.47330  0.42350  Biso   1.000  C
  C177     1.0000 0.35330  0.84650  0.05300  Biso   1.000  C
  C178     1.0000 0.64670  0.15350  0.55300  Biso   1.000  C
  C179     1.0000 0.65350  0.85330  0.80300  Biso   1.000  C
  C180     1.0000 0.34650  0.14670  0.30300  Biso   1.000  C
  C181     1.0000 0.14670  0.34650  0.69700  Biso   1.000  C
  C182     1.0000 0.85330  0.65350  0.19700  Biso   1.000  C
  C183     1.0000 0.84650  0.35330  0.94700  Biso   1.000  C
  C184     1.0000 0.15350  0.64670  0.44700  Biso   1.000  C
  C185     1.0000 0.58620  0.84330  0.08990  Biso   1.000  C
  C186     1.0000 0.41380  0.15670  0.58990  Biso   1.000  C
  C187     1.0000 0.65670  0.08620  0.83990  Biso   1.000  C
  C188     1.0000 0.34330  0.91380  0.33990  Biso   1.000  C
  C189     1.0000 0.91380  0.34330  0.66010  Biso   1.000  C
  C190     1.0000 0.08620  0.65670  0.16010  Biso   1.000  C
  C191     1.0000 0.84330  0.58620  0.91010  Biso   1.000  C
  C192     1.0000 0.15670  0.41380  0.41010  Biso   1.000  C
  C193     1.0000 0.47010  0.60700  0.06170  Biso   1.000  C
  C194     1.0000 0.52990  0.39300  0.56170  Biso   1.000  C
  C195     1.0000 0.89300  0.97010  0.81170  Biso   1.000  C
  C196     1.0000 0.10700  0.02990  0.31170  Biso   1.000  C
  C197     1.0000 0.02990  0.10700  0.68830  Biso   1.000  C
  C198     1.0000 0.97010  0.89300  0.18830  Biso   1.000  C
  C199     1.0000 0.60700  0.47010  0.93830  Biso   1.000  C
  C200     1.0000 0.39300  0.52990  0.43830  Biso   1.000  C
  C201     1.0000 0.41390  0.57450  0.05370  Biso   1.000  C
  C202     1.0000 0.58610  0.42550  0.55370  Biso   1.000  C
  C203     1.0000 0.92550  0.91390  0.80370  Biso   1.000  C
  C204     1.0000 0.07450  0.08610  0.30370  Biso   1.000  C
  C205     1.0000 0.08610  0.07450  0.69630  Biso   1.000  C
  C206     1.0000 0.91390  0.92550  0.19630  Biso   1.000  C
  C207     1.0000 0.57450  0.41390  0.94630  Biso   1.000  C
  C208     1.0000 0.42550  0.58610  0.44630  Biso   1.000  C
  C209     1.0000 0.41540  0.51180  0.05490  Biso   1.000  C
  C210     1.0000 0.58460  0.48820  0.55490  Biso   1.000  C
  C211     1.0000 0.98820  0.91540  0.80490  Biso   1.000  C
  C212     1.0000 0.01180  0.08460  0.30490  Biso   1.000  C
  C213     1.0000 0.08460  0.01180  0.69510  Biso   1.000  C
  C214     1.0000 0.91540  0.98820  0.19510  Biso   1.000  C
  C215     1.0000 0.51180  0.41540  0.94510  Biso   1.000  C
  C216     1.0000 0.48820  0.58460  0.44510  Biso   1.000  C
  H49      1.0000 0.37940  0.48980  0.05170  Biso   1.000  H
  H50      1.0000 0.62060  0.51020  0.55170  Biso   1.000  H
  H51      1.0000 0.01020  0.87940  0.80170  Biso   1.000  H
  H52      1.0000 0.98980  0.12060  0.30170  Biso   1.000  H
  H53      1.0000 0.12060  0.98980  0.69830  Biso   1.000  H
  H54      1.0000 0.87940  0.01020  0.19830  Biso   1.000  H
  H55      1.0000 0.48980  0.37940  0.94830  Biso   1.000  H
  H56      1.0000 0.51020  0.62060  0.44830  Biso   1.000  H
  C217     1.0000 0.47050  0.48140  0.06110  Biso   1.000  C
  C218     1.0000 0.52950  0.51860  0.56110  Biso   1.000  C
  C219     1.0000 0.01860  0.97050  0.81110  Biso   1.000  C
  C220     1.0000 0.98140  0.02950  0.31110  Biso   1.000  C
  C221     1.0000 0.02950  0.98140  0.68890  Biso   1.000  C
  C222     1.0000 0.97050  0.01860  0.18890  Biso   1.000  C
  C223     1.0000 0.48140  0.47050  0.93890  Biso   1.000  C
  C224     1.0000 0.51860  0.52950  0.43890  Biso   1.000  C
  C225     1.0000 0.52280  0.51310  0.06940  Biso   1.000  C
  C226     1.0000 0.47720  0.48690  0.56940  Biso   1.000  C
  C227     1.0000 0.98690  0.02280  0.81940  Biso   1.000  C
  C228     1.0000 0.01310  0.97720  0.31940  Biso   1.000  C
  C229     1.0000 0.97720  0.01310  0.68060  Biso   1.000  C
  C230     1.0000 0.02280  0.98690  0.18060  Biso   1.000  C
  C231     1.0000 0.51310  0.52280  0.93060  Biso   1.000  C
  C232     1.0000 0.48690  0.47720  0.43060  Biso   1.000  C
  H57      1.0000 0.55850  0.49130  0.07440  Biso   1.000  H
  H58      1.0000 0.44150  0.50870  0.57440  Biso   1.000  H
  H59      1.0000 0.00870  0.05850  0.82440  Biso   1.000  H
  H60      1.0000 0.99130  0.94150  0.32440  Biso   1.000  H
  H61      1.0000 0.94150  0.99130  0.67560  Biso   1.000  H
  H62      1.0000 0.05850  0.00870  0.17560  Biso   1.000  H
  H63      1.0000 0.49130  0.55850  0.92560  Biso   1.000  H
  H64      1.0000 0.50870  0.44150  0.42560  Biso   1.000  H
  C233     1.0000 0.52560  0.57430  0.07090  Biso   1.000  C
  C234     1.0000 0.47440  0.42570  0.57090  Biso   1.000  C
  C235     1.0000 0.92570  0.02560  0.82090  Biso   1.000  C
  C236     1.0000 0.07430  0.97440  0.32090  Biso   1.000  C
  C237     1.0000 0.97440  0.07430  0.67910  Biso   1.000  C
  C238     1.0000 0.02560  0.92570  0.17910  Biso   1.000  C
  C239     1.0000 0.57430  0.52560  0.92910  Biso   1.000  C
  C240     1.0000 0.42570  0.47440  0.42910  Biso   1.000  C
  C241     1.0000 0.58650  0.60360  0.08290  Biso   1.000  C
  C242     1.0000 0.41350  0.39640  0.58290  Biso   1.000  C
  C243     1.0000 0.89640  0.08650  0.83290  Biso   1.000  C
  C244     1.0000 0.10360  0.91350  0.33290  Biso   1.000  C
  C245     1.0000 0.91350  0.10360  0.66710  Biso   1.000  C
  C246     1.0000 0.08650  0.89640  0.16710  Biso   1.000  C
  C247     1.0000 0.60360  0.58650  0.91710  Biso   1.000  C
  C248     1.0000 0.39640  0.41350  0.41710  Biso   1.000  C
  C249     1.0000 0.35310  0.60440  0.04590  Biso   1.000  C
  C250     1.0000 0.64690  0.39560  0.54590  Biso   1.000  C
  C251     1.0000 0.89560  0.85310  0.79590  Biso   1.000  C
  C252     1.0000 0.10440  0.14690  0.29590  Biso   1.000  C
  C253     1.0000 0.14690  0.10440  0.70410  Biso   1.000  C
  C254     1.0000 0.85310  0.89560  0.20410  Biso   1.000  C
  C255     1.0000 0.60440  0.35310  0.95410  Biso   1.000  C
  C256     1.0000 0.39560  0.64690  0.45410  Biso   1.000  C
  C257     1.0000 0.26660  0.64260  0.55730  Biso   1.000  C
  C258     1.0000 0.73340  0.35740  0.05730  Biso   1.000  C
  C259     1.0000 0.85740  0.76660  0.30730  Biso   1.000  C
  C260     1.0000 0.14260  0.23340  0.80730  Biso   1.000  C
  C261     1.0000 0.23340  0.14260  0.19270  Biso   1.000  C
  C262     1.0000 0.76660  0.85740  0.69270  Biso   1.000  C
  C263     1.0000 0.64260  0.26660  0.44270  Biso   1.000  C
  C264     1.0000 0.35740  0.73340  0.94270  Biso   1.000  C
  H65      1.0000 0.26510  0.68100  0.54320  Biso   1.000  H
  H66      1.0000 0.73490  0.31900  0.04320  Biso   1.000  H
  H67      1.0000 0.81900  0.76510  0.29320  Biso   1.000  H
  H68      1.0000 0.18100  0.23490  0.79320  Biso   1.000  H
  H69      1.0000 0.23490  0.18100  0.20680  Biso   1.000  H
  H70      1.0000 0.76510  0.81900  0.70680  Biso   1.000  H
  H71      1.0000 0.68100  0.26510  0.45680  Biso   1.000  H
  H72      1.0000 0.31900  0.73490  0.95680  Biso   1.000  H
  C265     1.0000 0.27190  0.54980  0.56530  Biso   1.000  C
  C266     1.0000 0.72810  0.45020  0.06530  Biso   1.000  C
  C267     1.0000 0.95020  0.77190  0.31530  Biso   1.000  C
  C268     1.0000 0.04980  0.22810  0.81530  Biso   1.000  C
  C269     1.0000 0.22810  0.04980  0.18470  Biso   1.000  C
  C270     1.0000 0.77190  0.95020  0.68470  Biso   1.000  C
  C271     1.0000 0.54980  0.27190  0.43470  Biso   1.000  C
  C272     1.0000 0.45020  0.72810  0.93470  Biso   1.000  C
  H73      1.0000 0.27490  0.50840  0.55840  Biso   1.000  H
  H74      1.0000 0.72510  0.49160  0.05840  Biso   1.000  H
  H75      1.0000 0.99160  0.77490  0.30840  Biso   1.000  H
  H76      1.0000 0.00840  0.22510  0.80840  Biso   1.000  H
  H77      1.0000 0.22510  0.00840  0.19160  Biso   1.000  H
  H78      1.0000 0.77490  0.99160  0.69160  Biso   1.000  H
  H79      1.0000 0.50840  0.27490  0.44160  Biso   1.000  H
  H80      1.0000 0.49160  0.72510  0.94160  Biso   1.000  H
  C273     1.0000 0.26760  0.59390  0.93820  Biso   1.000  C
  C274     1.0000 0.73240  0.40610  0.43820  Biso   1.000  C
  C275     1.0000 0.90610  0.76760  0.68820  Biso   1.000  C
  C276     1.0000 0.09390  0.23240  0.18820  Biso   1.000  C
  C277     1.0000 0.23240  0.09390  0.81180  Biso   1.000  C
  C278     1.0000 0.76760  0.90610  0.31180  Biso   1.000  C
  C279     1.0000 0.59390  0.26760  0.06180  Biso   1.000  C
  C280     1.0000 0.40610  0.73240  0.56180  Biso   1.000  C
  H81      1.0000 0.30680  0.58210  0.94700  Biso   1.000  H
  H82      1.0000 0.69320  0.41790  0.44700  Biso   1.000  H
  H83      1.0000 0.91790  0.80680  0.69700  Biso   1.000  H
  H84      1.0000 0.08210  0.19320  0.19700  Biso   1.000  H
  H85      1.0000 0.19320  0.08210  0.80300  Biso   1.000  H
  H86      1.0000 0.80680  0.91790  0.30300  Biso   1.000  H
  H87      1.0000 0.58210  0.30680  0.05300  Biso   1.000  H
  H88      1.0000 0.41790  0.69320  0.55300  Biso   1.000  H
  C281     1.0000 0.17740  0.62000  0.93840  Biso   1.000  C
  C282     1.0000 0.82260  0.38000  0.43840  Biso   1.000  C
  C283     1.0000 0.88000  0.67740  0.68840  Biso   1.000  C
  C284     1.0000 0.12000  0.32260  0.18840  Biso   1.000  C
  C285     1.0000 0.32260  0.12000  0.81160  Biso   1.000  C
  C286     1.0000 0.67740  0.88000  0.31160  Biso   1.000  C
  C287     1.0000 0.62000  0.17740  0.06160  Biso   1.000  C
  C288     1.0000 0.38000  0.82260  0.56160  Biso   1.000  C
  H89      1.0000 0.13880  0.62950  0.95010  Biso   1.000  H
  H90      1.0000 0.86120  0.37050  0.45010  Biso   1.000  H
  H91      1.0000 0.87050  0.63880  0.70010  Biso   1.000  H
  H92      1.0000 0.12950  0.36120  0.20010  Biso   1.000  H
  H93      1.0000 0.36120  0.12950  0.79990  Biso   1.000  H
  H94      1.0000 0.63880  0.87050  0.29990  Biso   1.000  H
  H95      1.0000 0.62950  0.13880  0.04990  Biso   1.000  H
  H96      1.0000 0.37050  0.86120  0.54990  Biso   1.000  H
  C289     1.0000 0.12530  0.74100  0.55380  Biso   1.000  C
  C290     1.0000 0.87470  0.25900  0.05380  Biso   1.000  C
  C291     1.0000 0.75900  0.62530  0.30380  Biso   1.000  C
  C292     1.0000 0.24100  0.37470  0.80380  Biso   1.000  C
  C293     1.0000 0.37470  0.24100  0.19620  Biso   1.000  C
  C294     1.0000 0.62530  0.75900  0.69620  Biso   1.000  C
  C295     1.0000 0.74100  0.12530  0.44620  Biso   1.000  C
  C296     1.0000 0.25900  0.87470  0.94620  Biso   1.000  C
  H97      1.0000 0.09370  0.71410  0.54690  Biso   1.000  H
  H98      1.0000 0.90630  0.28590  0.04690  Biso   1.000  H
  H99      1.0000 0.78590  0.59370  0.29690  Biso   1.000  H
  H100     1.0000 0.21410  0.40630  0.79690  Biso   1.000  H
  H101     1.0000 0.40630  0.21410  0.20310  Biso   1.000  H
  H102     1.0000 0.59370  0.78590  0.70310  Biso   1.000  H
  H103     1.0000 0.71410  0.09370  0.45310  Biso   1.000  H
  H104     1.0000 0.28590  0.90630  0.95310  Biso   1.000  H
  C297     1.0000 0.19770  0.80220  0.54740  Biso   1.000  C
  C298     1.0000 0.80230  0.19780  0.04740  Biso   1.000  C
  C299     1.0000 0.69780  0.69770  0.29740  Biso   1.000  C
  C300     1.0000 0.30220  0.30230  0.79740  Biso   1.000  C
  C301     1.0000 0.30230  0.30220  0.20260  Biso   1.000  C
  C302     1.0000 0.69770  0.69780  0.70260  Biso   1.000  C
  C303     1.0000 0.80220  0.19770  0.45260  Biso   1.000  C
  C304     1.0000 0.19780  0.80230  0.95260  Biso   1.000  C
  H105     1.0000 0.22920  0.82490  0.53390  Biso   1.000  H
  H106     1.0000 0.77080  0.17510  0.03390  Biso   1.000  H
  H107     1.0000 0.67510  0.72920  0.28390  Biso   1.000  H
  H108     1.0000 0.32490  0.27080  0.78390  Biso   1.000  H
  H109     1.0000 0.27080  0.32490  0.21610  Biso   1.000  H
  H110     1.0000 0.72920  0.67510  0.71610  Biso   1.000  H
  H111     1.0000 0.82490  0.22920  0.46610  Biso   1.000  H
  H112     1.0000 0.17510  0.77080  0.96610  Biso   1.000  H
  C305     1.0000 0.05270  0.76420  0.92600  Biso   1.000  C
  C306     1.0000 0.94730  0.23580  0.42600  Biso   1.000  C
  C307     1.0000 0.73580  0.55270  0.67600  Biso   1.000  C
  C308     1.0000 0.26420  0.44730  0.17600  Biso   1.000  C
  C309     1.0000 0.44730  0.26420  0.82400  Biso   1.000  C
  C310     1.0000 0.55270  0.73580  0.32400  Biso   1.000  C
  C311     1.0000 0.76420  0.05270  0.07400  Biso   1.000  C
  C312     1.0000 0.23580  0.94730  0.57400  Biso   1.000  C
  H113     1.0000 0.07140  0.80170  0.93130  Biso   1.000  H
  H114     1.0000 0.92860  0.19830  0.43130  Biso   1.000  H
  H115     1.0000 0.69830  0.57140  0.68130  Biso   1.000  H
  H116     1.0000 0.30170  0.42860  0.18130  Biso   1.000  H
  H117     1.0000 0.42860  0.30170  0.81870  Biso   1.000  H
  H118     1.0000 0.57140  0.69830  0.31870  Biso   1.000  H
  H119     1.0000 0.80170  0.07140  0.06870  Biso   1.000  H
  H120     1.0000 0.19830  0.92860  0.56870  Biso   1.000  H
  C313     1.0000 0.00910  0.68560  0.93650  Biso   1.000  C
  C314     1.0000 0.99090  0.31440  0.43650  Biso   1.000  C
  C315     1.0000 0.81440  0.50910  0.68650  Biso   1.000  C
  C316     1.0000 0.18560  0.49090  0.18650  Biso   1.000  C
  C317     1.0000 0.49090  0.18560  0.81350  Biso   1.000  C
  C318     1.0000 0.50910  0.81440  0.31350  Biso   1.000  C
  C319     1.0000 0.68560  0.00910  0.06350  Biso   1.000  C
  C320     1.0000 0.31440  0.99090  0.56350  Biso   1.000  C
  H121     1.0000 0.98910  0.65280  0.95050  Biso   1.000  H
  H122     1.0000 0.01090  0.34720  0.45050  Biso   1.000  H
  H123     1.0000 0.84720  0.48910  0.70050  Biso   1.000  H
  H124     1.0000 0.15280  0.51090  0.20050  Biso   1.000  H
  H125     1.0000 0.51090  0.15280  0.79950  Biso   1.000  H
  H126     1.0000 0.48910  0.84720  0.29950  Biso   1.000  H
  H127     1.0000 0.65280  0.98910  0.04950  Biso   1.000  H
  H128     1.0000 0.34720  0.01090  0.54950  Biso   1.000  H
  C321     1.0000 0.07070  0.76140  0.83690  Biso   1.000  C
  C322     1.0000 0.92930  0.23860  0.33690  Biso   1.000  C
  C323     1.0000 0.73860  0.57070  0.58690  Biso   1.000  C
  C324     1.0000 0.26140  0.42930  0.08690  Biso   1.000  C
  C325     1.0000 0.42930  0.26140  0.91310  Biso   1.000  C
  C326     1.0000 0.57070  0.73860  0.41310  Biso   1.000  C
  C327     1.0000 0.76140  0.07070  0.16310  Biso   1.000  C
  C328     1.0000 0.23860  0.92930  0.66310  Biso   1.000  C
  H129     1.0000 0.09790  0.79580  0.84180  Biso   1.000  H
  H130     1.0000 0.90210  0.20420  0.34180  Biso   1.000  H
  H131     1.0000 0.70420  0.59790  0.59180  Biso   1.000  H
  H132     1.0000 0.29580  0.40210  0.09180  Biso   1.000  H
  H133     1.0000 0.40210  0.29580  0.90820  Biso   1.000  H
  H134     1.0000 0.59790  0.70420  0.40820  Biso   1.000  H
  H135     1.0000 0.79580  0.09790  0.15820  Biso   1.000  H
  H136     1.0000 0.20420  0.90210  0.65820  Biso   1.000  H
  H137     1.0000 0.03630  0.77570  0.81810  Biso   1.000  H
  H138     1.0000 0.96370  0.22430  0.31810  Biso   1.000  H
  H139     1.0000 0.72430  0.53630  0.56810  Biso   1.000  H
  H140     1.0000 0.27570  0.46370  0.06810  Biso   1.000  H
  H141     1.0000 0.46370  0.27570  0.93190  Biso   1.000  H
  H142     1.0000 0.53630  0.72430  0.43190  Biso   1.000  H
  H143     1.0000 0.77570  0.03630  0.18190  Biso   1.000  H
  H144     1.0000 0.22430  0.96370  0.68190  Biso   1.000  H
  C329     1.0000 0.10420  0.71270  0.80810  Biso   1.000  C
  C330     1.0000 0.89580  0.28730  0.30810  Biso   1.000  C
  C331     1.0000 0.78730  0.60420  0.55810  Biso   1.000  C
  C332     1.0000 0.21270  0.39580  0.05810  Biso   1.000  C
  C333     1.0000 0.39580  0.21270  0.94190  Biso   1.000  C
  C334     1.0000 0.60420  0.78730  0.44190  Biso   1.000  C
  C335     1.0000 0.71270  0.10420  0.19190  Biso   1.000  C
  C336     1.0000 0.28730  0.89580  0.69190  Biso   1.000  C
  H145     1.0000 0.07760  0.67890  0.80020  Biso   1.000  H
  H146     1.0000 0.92240  0.32110  0.30020  Biso   1.000  H
  H147     1.0000 0.82110  0.57760  0.55020  Biso   1.000  H
  H148     1.0000 0.17890  0.42240  0.05020  Biso   1.000  H
  H149     1.0000 0.42240  0.17890  0.94980  Biso   1.000  H
  H150     1.0000 0.57760  0.82110  0.44980  Biso   1.000  H
  H151     1.0000 0.67890  0.07760  0.19980  Biso   1.000  H
  H152     1.0000 0.32110  0.92240  0.69980  Biso   1.000  H
  H153     1.0000 0.13950  0.69760  0.82550  Biso   1.000  H
  H154     1.0000 0.86050  0.30240  0.32550  Biso   1.000  H
  H155     1.0000 0.80240  0.63950  0.57550  Biso   1.000  H
  H156     1.0000 0.19760  0.36050  0.07550  Biso   1.000  H
  H157     1.0000 0.36050  0.19760  0.92450  Biso   1.000  H
  H158     1.0000 0.63950  0.80240  0.42450  Biso   1.000  H
  H159     1.0000 0.69760  0.13950  0.17450  Biso   1.000  H
  H160     1.0000 0.30240  0.86050  0.67450  Biso   1.000  H
  C337     1.0000 0.12300  0.74820  0.76310  Biso   1.000  C
  C338     1.0000 0.87700  0.25180  0.26310  Biso   1.000  C
  C339     1.0000 0.75180  0.62300  0.51310  Biso   1.000  C
  C340     1.0000 0.24820  0.37700  0.01310  Biso   1.000  C
  C341     1.0000 0.37700  0.24820  0.98690  Biso   1.000  C
  C342     1.0000 0.62300  0.75180  0.48690  Biso   1.000  C
  C343     1.0000 0.74820  0.12300  0.23690  Biso   1.000  C
  C344     1.0000 0.25180  0.87700  0.73690  Biso   1.000  C
  H161     1.0000 0.10000  0.78580  0.76030  Biso   1.000  H
  H162     1.0000 0.90000  0.21420  0.26030  Biso   1.000  H
  H163     1.0000 0.71420  0.60000  0.51030  Biso   1.000  H
  H164     1.0000 0.28580  0.40000  0.01030  Biso   1.000  H
  H165     1.0000 0.40000  0.28580  0.98970  Biso   1.000  H
  H166     1.0000 0.60000  0.71420  0.48970  Biso   1.000  H
  H167     1.0000 0.78580  0.10000  0.23970  Biso   1.000  H
  H168     1.0000 0.21420  0.90000  0.73970  Biso   1.000  H
  H169     1.0000 0.16620  0.75790  0.76380  Biso   1.000  H
  H170     1.0000 0.83380  0.24210  0.26380  Biso   1.000  H
  H171     1.0000 0.74210  0.66620  0.51380  Biso   1.000  H
  H172     1.0000 0.25790  0.33380  0.01380  Biso   1.000  H
  H173     1.0000 0.33380  0.25790  0.98620  Biso   1.000  H
  H174     1.0000 0.66620  0.74210  0.48620  Biso   1.000  H
  H175     1.0000 0.75790  0.16620  0.23620  Biso   1.000  H
  H176     1.0000 0.24210  0.83380  0.73620  Biso   1.000  H
  C345     1.0000 0.10870  0.70600  0.72250  Biso   1.000  C
  C346     1.0000 0.89130  0.29400  0.22250  Biso   1.000  C
  C347     1.0000 0.79400  0.60870  0.47250  Biso   1.000  C
  C348     1.0000 0.20600  0.39130  0.97250  Biso   1.000  C
  C349     1.0000 0.39130  0.20600  0.02750  Biso   1.000  C
  C350     1.0000 0.60870  0.79400  0.52750  Biso   1.000  C
  C351     1.0000 0.70600  0.10870  0.27750  Biso   1.000  C
  C352     1.0000 0.29400  0.89130  0.77750  Biso   1.000  C
  H177     1.0000 0.06620  0.70880  0.71320  Biso   1.000  H
  H178     1.0000 0.93380  0.29120  0.21320  Biso   1.000  H
  H179     1.0000 0.79120  0.56620  0.46320  Biso   1.000  H
  H180     1.0000 0.20880  0.43380  0.96320  Biso   1.000  H
  H181     1.0000 0.43380  0.20880  0.03680  Biso   1.000  H
  H182     1.0000 0.56620  0.79120  0.53680  Biso   1.000  H
  H183     1.0000 0.70880  0.06620  0.28680  Biso   1.000  H
  H184     1.0000 0.29120  0.93380  0.78680  Biso   1.000  H
  H185     1.0000 0.11830  0.66410  0.73070  Biso   1.000  H
  H186     1.0000 0.88170  0.33590  0.23070  Biso   1.000  H
  H187     1.0000 0.83590  0.61830  0.48070  Biso   1.000  H
  H188     1.0000 0.16410  0.38170  0.98070  Biso   1.000  H
  H189     1.0000 0.38170  0.16410  0.01930  Biso   1.000  H
  H190     1.0000 0.61830  0.83590  0.51930  Biso   1.000  H
  H191     1.0000 0.66410  0.11830  0.26930  Biso   1.000  H
  H192     1.0000 0.33590  0.88170  0.76930  Biso   1.000  H
  C353     1.0000 0.15150  0.73030  0.68170  Biso   1.000  C
  C354     1.0000 0.84850  0.26970  0.18170  Biso   1.000  C
  C355     1.0000 0.76970  0.65150  0.43170  Biso   1.000  C
  C356     1.0000 0.23030  0.34850  0.93170  Biso   1.000  C
  C357     1.0000 0.34850  0.23030  0.06830  Biso   1.000  C
  C358     1.0000 0.65150  0.76970  0.56830  Biso   1.000  C
  C359     1.0000 0.73030  0.15150  0.31830  Biso   1.000  C
  C360     1.0000 0.26970  0.84850  0.81830  Biso   1.000  C
  H193     1.0000 0.16970  0.76920  0.69010  Biso   1.000  H
  H194     1.0000 0.83030  0.23080  0.19010  Biso   1.000  H
  H195     1.0000 0.73080  0.66970  0.44010  Biso   1.000  H
  H196     1.0000 0.26920  0.33030  0.94010  Biso   1.000  H
  H197     1.0000 0.33030  0.26920  0.05990  Biso   1.000  H
  H198     1.0000 0.66970  0.73080  0.55990  Biso   1.000  H
  H199     1.0000 0.76920  0.16970  0.30990  Biso   1.000  H
  H200     1.0000 0.23080  0.83030  0.80990  Biso   1.000  H
  H201     1.0000 0.18330  0.70130  0.67380  Biso   1.000  H
  H202     1.0000 0.81670  0.29870  0.17380  Biso   1.000  H
  H203     1.0000 0.79870  0.68330  0.42380  Biso   1.000  H
  H204     1.0000 0.20130  0.31670  0.92380  Biso   1.000  H
  H205     1.0000 0.31670  0.20130  0.07620  Biso   1.000  H
  H206     1.0000 0.68330  0.79870  0.57620  Biso   1.000  H
  H207     1.0000 0.70130  0.18330  0.32620  Biso   1.000  H
  H208     1.0000 0.29870  0.81670  0.82620  Biso   1.000  H
  C361     1.0000 0.10580  0.73640  0.64240  Biso   1.000  C
  C362     1.0000 0.89420  0.26360  0.14240  Biso   1.000  C
  C363     1.0000 0.76360  0.60580  0.39240  Biso   1.000  C
  C364     1.0000 0.23640  0.39420  0.89240  Biso   1.000  C
  C365     1.0000 0.39420  0.23640  0.10760  Biso   1.000  C
  C366     1.0000 0.60580  0.76360  0.60760  Biso   1.000  C
  C367     1.0000 0.73640  0.10580  0.35760  Biso   1.000  C
  C368     1.0000 0.26360  0.89420  0.85760  Biso   1.000  C
  H209     1.0000 0.07650  0.76830  0.64920  Biso   1.000  H
  H210     1.0000 0.92350  0.23170  0.14920  Biso   1.000  H
  H211     1.0000 0.73170  0.57650  0.39920  Biso   1.000  H
  H212     1.0000 0.26830  0.42350  0.89920  Biso   1.000  H
  H213     1.0000 0.42350  0.26830  0.10080  Biso   1.000  H
  H214     1.0000 0.57650  0.73170  0.60080  Biso   1.000  H
  H215     1.0000 0.76830  0.07650  0.35080  Biso   1.000  H
  H216     1.0000 0.23170  0.92350  0.85080  Biso   1.000  H
  H217     1.0000 0.08430  0.69830  0.63690  Biso   1.000  H
  H218     1.0000 0.91570  0.30170  0.13690  Biso   1.000  H
  H219     1.0000 0.80170  0.58430  0.38690  Biso   1.000  H
  H220     1.0000 0.19830  0.41570  0.88690  Biso   1.000  H
  H221     1.0000 0.41570  0.19830  0.11310  Biso   1.000  H
  H222     1.0000 0.58430  0.80170  0.61310  Biso   1.000  H
  H223     1.0000 0.69830  0.08430  0.36310  Biso   1.000  H
  H224     1.0000 0.30170  0.91570  0.86310  Biso   1.000  H
  C369     1.0000 0.28980  0.61100  0.85060  Biso   1.000  C
  C370     1.0000 0.71020  0.38900  0.35060  Biso   1.000  C
  C371     1.0000 0.88900  0.78980  0.60060  Biso   1.000  C
  C372     1.0000 0.11100  0.21020  0.10060  Biso   1.000  C
  C373     1.0000 0.21020  0.11100  0.89940  Biso   1.000  C
  C374     1.0000 0.78980  0.88900  0.39940  Biso   1.000  C
  C375     1.0000 0.61100  0.28980  0.14940  Biso   1.000  C
  C376     1.0000 0.38900  0.71020  0.64940  Biso   1.000  C
  H225     1.0000 0.33260  0.60730  0.85890  Biso   1.000  H
  H226     1.0000 0.66740  0.39270  0.35890  Biso   1.000  H
  H227     1.0000 0.89270  0.83260  0.60890  Biso   1.000  H
  H228     1.0000 0.10730  0.16740  0.10890  Biso   1.000  H
  H229     1.0000 0.16740  0.10730  0.89110  Biso   1.000  H
  H230     1.0000 0.83260  0.89270  0.39110  Biso   1.000  H
  H231     1.0000 0.60730  0.33260  0.14110  Biso   1.000  H
  H232     1.0000 0.39270  0.66740  0.64110  Biso   1.000  H
  H233     1.0000 0.28340  0.65030  0.83540  Biso   1.000  H
  H234     1.0000 0.71660  0.34970  0.33540  Biso   1.000  H
  H235     1.0000 0.84970  0.78340  0.58540  Biso   1.000  H
  H236     1.0000 0.15030  0.21660  0.08540  Biso   1.000  H
  H237     1.0000 0.21660  0.15030  0.91460  Biso   1.000  H
  H238     1.0000 0.78340  0.84970  0.41460  Biso   1.000  H
  H239     1.0000 0.65030  0.28340  0.16460  Biso   1.000  H
  H240     1.0000 0.34970  0.71660  0.66460  Biso   1.000  H
  C377     1.0000 0.27110  0.56000  0.81670  Biso   1.000  C
  C378     1.0000 0.72890  0.44000  0.31670  Biso   1.000  C
  C379     1.0000 0.94000  0.77110  0.56670  Biso   1.000  C
  C380     1.0000 0.06000  0.22890  0.06670  Biso   1.000  C
  C381     1.0000 0.22890  0.06000  0.93330  Biso   1.000  C
  C382     1.0000 0.77110  0.94000  0.43330  Biso   1.000  C
  C383     1.0000 0.56000  0.27110  0.18330  Biso   1.000  C
  C384     1.0000 0.44000  0.72890  0.68330  Biso   1.000  C
  H241     1.0000 0.22750  0.55400  0.82020  Biso   1.000  H
  H242     1.0000 0.77250  0.44600  0.32020  Biso   1.000  H
  H243     1.0000 0.94600  0.72750  0.57020  Biso   1.000  H
  H244     1.0000 0.05400  0.27250  0.07020  Biso   1.000  H
  H245     1.0000 0.27250  0.05400  0.92980  Biso   1.000  H
  H246     1.0000 0.72750  0.94600  0.42980  Biso   1.000  H
  H247     1.0000 0.55400  0.22750  0.17980  Biso   1.000  H
  H248     1.0000 0.44600  0.77250  0.67980  Biso   1.000  H
  H249     1.0000 0.29090  0.52290  0.82760  Biso   1.000  H
  H250     1.0000 0.70910  0.47710  0.32760  Biso   1.000  H
  H251     1.0000 0.97710  0.79090  0.57760  Biso   1.000  H
  H252     1.0000 0.02290  0.20910  0.07760  Biso   1.000  H
  H253     1.0000 0.20910  0.02290  0.92240  Biso   1.000  H
  H254     1.0000 0.79090  0.97710  0.42240  Biso   1.000  H
  H255     1.0000 0.52290  0.29090  0.17240  Biso   1.000  H
  H256     1.0000 0.47710  0.70910  0.67240  Biso   1.000  H
  C385     1.0000 0.28510  0.56780  0.76230  Biso   1.000  C
  C386     1.0000 0.71490  0.43220  0.26230  Biso   1.000  C
  C387     1.0000 0.93220  0.78510  0.51230  Biso   1.000  C
  C388     1.0000 0.06780  0.21490  0.01230  Biso   1.000  C
  C389     1.0000 0.21490  0.06780  0.98770  Biso   1.000  C
  C390     1.0000 0.78510  0.93220  0.48770  Biso   1.000  C
  C391     1.0000 0.56780  0.28510  0.23770  Biso   1.000  C
  C392     1.0000 0.43220  0.71490  0.73770  Biso   1.000  C
  H257     1.0000 0.27080  0.60780  0.75260  Biso   1.000  H
  H258     1.0000 0.72920  0.39220  0.25260  Biso   1.000  H
  H259     1.0000 0.89220  0.77080  0.50260  Biso   1.000  H
  H260     1.0000 0.10780  0.22920  0.00260  Biso   1.000  H
  H261     1.0000 0.22920  0.10780  0.99740  Biso   1.000  H
  H262     1.0000 0.77080  0.89220  0.49740  Biso   1.000  H
  H263     1.0000 0.60780  0.27080  0.24740  Biso   1.000  H
  H264     1.0000 0.39220  0.72920  0.74740  Biso   1.000  H
  H265     1.0000 0.32900  0.56740  0.75830  Biso   1.000  H
  H266     1.0000 0.67100  0.43260  0.25830  Biso   1.000  H
  H267     1.0000 0.93260  0.82900  0.50830  Biso   1.000  H
  H268     1.0000 0.06740  0.17100  0.00830  Biso   1.000  H
  H269     1.0000 0.17100  0.06740  0.99170  Biso   1.000  H
  H270     1.0000 0.82900  0.93260  0.49170  Biso   1.000  H
  H271     1.0000 0.56740  0.32900  0.24170  Biso   1.000  H
  H272     1.0000 0.43260  0.67100  0.74170  Biso   1.000  H
  C393     1.0000 0.25800  0.52080  0.72750  Biso   1.000  C
  C394     1.0000 0.74200  0.47920  0.22750  Biso   1.000  C
  C395     1.0000 0.97920  0.75800  0.47750  Biso   1.000  C
  C396     1.0000 0.02080  0.24200  0.97750  Biso   1.000  C
  C397     1.0000 0.24200  0.02080  0.02250  Biso   1.000  C
  C398     1.0000 0.75800  0.97920  0.52250  Biso   1.000  C
  C399     1.0000 0.52080  0.25800  0.27250  Biso   1.000  C
  C400     1.0000 0.47920  0.74200  0.77250  Biso   1.000  C
  H273     1.0000 0.22080  0.50530  0.74190  Biso   1.000  H
  H274     1.0000 0.77920  0.49470  0.24190  Biso   1.000  H
  H275     1.0000 0.99470  0.72080  0.49190  Biso   1.000  H
  H276     1.0000 0.00530  0.27920  0.99190  Biso   1.000  H
  H277     1.0000 0.27920  0.00530  0.00810  Biso   1.000  H
  H278     1.0000 0.72080  0.99470  0.50810  Biso   1.000  H
  H279     1.0000 0.50530  0.22080  0.25810  Biso   1.000  H
  H280     1.0000 0.49470  0.77920  0.75810  Biso   1.000  H
  H281     1.0000 0.28630  0.48680  0.72580  Biso   1.000  H
  H282     1.0000 0.71370  0.51320  0.22580  Biso   1.000  H
  H283     1.0000 0.01320  0.78630  0.47580  Biso   1.000  H
  H284     1.0000 0.98680  0.21370  0.97580  Biso   1.000  H
  H285     1.0000 0.21370  0.98680  0.02420  Biso   1.000  H
  H286     1.0000 0.78630  0.01320  0.52420  Biso   1.000  H
  H287     1.0000 0.48680  0.28630  0.27420  Biso   1.000  H
  H288     1.0000 0.51320  0.71370  0.77420  Biso   1.000  H
  C401     1.0000 0.24260  0.53970  0.67530  Biso   1.000  C
  C402     1.0000 0.75740  0.46030  0.17530  Biso   1.000  C
  C403     1.0000 0.96030  0.74260  0.42530  Biso   1.000  C
  C404     1.0000 0.03970  0.25740  0.92530  Biso   1.000  C
  C405     1.0000 0.25740  0.03970  0.07470  Biso   1.000  C
  C406     1.0000 0.74260  0.96030  0.57470  Biso   1.000  C
  C407     1.0000 0.53970  0.24260  0.32470  Biso   1.000  C
  C408     1.0000 0.46030  0.75740  0.82470  Biso   1.000  C
  H289     1.0000 0.22320  0.50690  0.65740  Biso   1.000  H
  H290     1.0000 0.77680  0.49310  0.15740  Biso   1.000  H
  H291     1.0000 0.99310  0.72320  0.40740  Biso   1.000  H
  H292     1.0000 0.00690  0.27680  0.90740  Biso   1.000  H
  H293     1.0000 0.27680  0.00690  0.09260  Biso   1.000  H
  H294     1.0000 0.72320  0.99310  0.59260  Biso   1.000  H
  H295     1.0000 0.50690  0.22320  0.34260  Biso   1.000  H
  H296     1.0000 0.49310  0.77680  0.84260  Biso   1.000  H
  H297     1.0000 0.21720  0.57590  0.67410  Biso   1.000  H
  H298     1.0000 0.78280  0.42410  0.17410  Biso   1.000  H
  H299     1.0000 0.92410  0.71720  0.42410  Biso   1.000  H
  H300     1.0000 0.07590  0.28280  0.92410  Biso   1.000  H
  H301     1.0000 0.28280  0.07590  0.07590  Biso   1.000  H
  H302     1.0000 0.71720  0.92410  0.57590  Biso   1.000  H
  H303     1.0000 0.57590  0.21720  0.32590  Biso   1.000  H
  H304     1.0000 0.42410  0.78280  0.82590  Biso   1.000  H
  C409     1.0000 0.30110  0.55100  0.65930  Biso   1.000  C
  C410     1.0000 0.69890  0.44900  0.15930  Biso   1.000  C
  C411     1.0000 0.94900  0.80110  0.40930  Biso   1.000  C
  C412     1.0000 0.05100  0.19890  0.90930  Biso   1.000  C
  C413     1.0000 0.19890  0.05100  0.09070  Biso   1.000  C
  C414     1.0000 0.80110  0.94900  0.59070  Biso   1.000  C
  C415     1.0000 0.55100  0.30110  0.34070  Biso   1.000  C
  C416     1.0000 0.44900  0.69890  0.84070  Biso   1.000  C
  H305     1.0000 0.32670  0.51510  0.65670  Biso   1.000  H
  H306     1.0000 0.67330  0.48490  0.15670  Biso   1.000  H
  H307     1.0000 0.98490  0.82670  0.40670  Biso   1.000  H
  H308     1.0000 0.01510  0.17330  0.90670  Biso   1.000  H
  H309     1.0000 0.17330  0.01510  0.09330  Biso   1.000  H
  H310     1.0000 0.82670  0.98490  0.59330  Biso   1.000  H
  H311     1.0000 0.51510  0.32670  0.34330  Biso   1.000  H
  H312     1.0000 0.48490  0.67330  0.84330  Biso   1.000  H
  H313     1.0000 0.32180  0.58400  0.67580  Biso   1.000  H
  H314     1.0000 0.67820  0.41600  0.17580  Biso   1.000  H
  H315     1.0000 0.91600  0.82180  0.42580  Biso   1.000  H
  H316     1.0000 0.08400  0.17820  0.92580  Biso   1.000  H
  H317     1.0000 0.17820  0.08400  0.07420  Biso   1.000  H
  H318     1.0000 0.82180  0.91600  0.57420  Biso   1.000  H
  H319     1.0000 0.58400  0.32180  0.32420  Biso   1.000  H
  H320     1.0000 0.41600  0.67820  0.82420  Biso   1.000  H
  Cu1      1.0000 0.91010  0.72939  0.06832  Biso   1.000  Cu
  Cu2      1.0000 0.08990  0.27061  0.56832  Biso   1.000  Cu
  Cu3      1.0000 0.77061  0.41010  0.81832  Biso   1.000  Cu
  Cu4      1.0000 0.22939  0.58990  0.31832  Biso   1.000  Cu
  Cu5      1.0000 0.58990  0.22939  0.68168  Biso   1.000  Cu
  Cu6      1.0000 0.41010  0.77061  0.18168  Biso   1.000  Cu
  Cu7      1.0000 0.72939  0.91010  0.93168  Biso   1.000  Cu
  Cu8      1.0000 0.27061  0.08990  0.43168  Biso   1.000  Cu
  Cu9      1.0000 0.04157  0.72923  0.04041  Biso   1.000  Cu
  Cu10     1.0000 0.95843  0.27077  0.54041  Biso   1.000  Cu
  Cu11     1.0000 0.77077  0.54157  0.79041  Biso   1.000  Cu
  Cu12     1.0000 0.22923  0.45843  0.29041  Biso   1.000  Cu
  Cu13     1.0000 0.45843  0.22923  0.70959  Biso   1.000  Cu
  Cu14     1.0000 0.54157  0.77077  0.20959  Biso   1.000  Cu
  Cu15     1.0000 0.72923  0.04157  0.95959  Biso   1.000  Cu
  Cu16     1.0000 0.27077  0.95843  0.45959  Biso   1.000  Cu
  Cu17     1.0000 0.22408  0.59700  0.03759  Biso   1.000  Cu
  Cu18     1.0000 0.77592  0.40300  0.53759  Biso   1.000  Cu
  Cu19     1.0000 0.90300  0.72408  0.78759  Biso   1.000  Cu
  Cu20     1.0000 0.09700  0.27592  0.28759  Biso   1.000  Cu
  Cu21     1.0000 0.27592  0.09700  0.71241  Biso   1.000  Cu
  Cu22     1.0000 0.72408  0.90300  0.21241  Biso   1.000  Cu
  Cu23     1.0000 0.59700  0.22408  0.96241  Biso   1.000  Cu
  Cu24     1.0000 0.40300  0.77592  0.46241  Biso   1.000  Cu
  Cu25     1.0000 0.40508  0.72504  0.04829  Biso   1.000  Cu
  Cu26     1.0000 0.59492  0.27496  0.54829  Biso   1.000  Cu
  Cu27     1.0000 0.77496  0.90508  0.79829  Biso   1.000  Cu
  Cu28     1.0000 0.22504  0.09492  0.29829  Biso   1.000  Cu
  Cu29     1.0000 0.09492  0.22504  0.70171  Biso   1.000  Cu
  Cu30     1.0000 0.90508  0.77496  0.20171  Biso   1.000  Cu
  Cu31     1.0000 0.72504  0.40508  0.95171  Biso   1.000  Cu
  Cu32     1.0000 0.27496  0.59492  0.45171  Biso   1.000  Cu
  Cu33     1.0000 0.53713  0.72386  0.07563  Biso   1.000  Cu
  Cu34     1.0000 0.46287  0.27614  0.57563  Biso   1.000  Cu
  Cu35     1.0000 0.77614  0.03713  0.82563  Biso   1.000  Cu
  Cu36     1.0000 0.22386  0.96287  0.32563  Biso   1.000  Cu
  Cu37     1.0000 0.96287  0.22386  0.67437  Biso   1.000  Cu
  Cu38     1.0000 0.03713  0.77614  0.17437  Biso   1.000  Cu
  Cu39     1.0000 0.72386  0.53713  0.92437  Biso   1.000  Cu
  Cu40     1.0000 0.27614  0.46287  0.42437  Biso   1.000  Cu
  Cu41     1.0000 0.22487  0.85717  0.04949  Biso   1.000  Cu
  Cu42     1.0000 0.77513  0.14283  0.54949  Biso   1.000  Cu
  Cu43     1.0000 0.64283  0.72487  0.79949  Biso   1.000  Cu
  Cu44     1.0000 0.35717  0.27513  0.29949  Biso   1.000  Cu
  Cu45     1.0000 0.27513  0.35717  0.70051  Biso   1.000  Cu
  Cu46     1.0000 0.72487  0.64283  0.20051  Biso   1.000  Cu
  Cu47     1.0000 0.85717  0.22487  0.95051  Biso   1.000  Cu
  Cu48     1.0000 0.14283  0.77513  0.45051  Biso   1.000  Cu
  N1       1.0000 0.97770  0.03970  0.06220  Biso   1.000  N
  N2       1.0000 0.02230  0.96030  0.56220  Biso   1.000  N
  N3       1.0000 0.46030  0.47770  0.81220  Biso   1.000  N
  N4       1.0000 0.53970  0.52230  0.31220  Biso   1.000  N
  N5       1.0000 0.52230  0.53970  0.68780  Biso   1.000  N
  N6       1.0000 0.47770  0.46030  0.18780  Biso   1.000  N
  N7       1.0000 0.03970  0.97770  0.93780  Biso   1.000  N
  N8       1.0000 0.96030  0.02230  0.43780  Biso   1.000  N
  N9       1.0000 0.97670  0.41940  0.05730  Biso   1.000  N
  N10      1.0000 0.02330  0.58060  0.55730  Biso   1.000  N
  N11      1.0000 0.08060  0.47670  0.80730  Biso   1.000  N
  N12      1.0000 0.91940  0.52330  0.30730  Biso   1.000  N
  N13      1.0000 0.52330  0.91940  0.69270  Biso   1.000  N
  N14      1.0000 0.47670  0.08060  0.19270  Biso   1.000  N
  N15      1.0000 0.41940  0.97670  0.94270  Biso   1.000  N
  N16      1.0000 0.58060  0.02330  0.44270  Biso   1.000  N
  N17      1.0000 0.47280  0.03500  0.06880  Biso   1.000  N
  N18      1.0000 0.52720  0.96500  0.56880  Biso   1.000  N
  N19      1.0000 0.46500  0.97280  0.81880  Biso   1.000  N
  N20      1.0000 0.53500  0.02720  0.31880  Biso   1.000  N
  N21      1.0000 0.02720  0.53500  0.68120  Biso   1.000  N
  N22      1.0000 0.97280  0.46500  0.18120  Biso   1.000  N
  N23      1.0000 0.03500  0.47280  0.93120  Biso   1.000  N
  N24      1.0000 0.96500  0.52720  0.43120  Biso   1.000  N
  N25      1.0000 0.46920  0.41370  0.06190  Biso   1.000  N
  N26      1.0000 0.53080  0.58630  0.56190  Biso   1.000  N
  N27      1.0000 0.08630  0.96920  0.81190  Biso   1.000  N
  N28      1.0000 0.91370  0.03080  0.31190  Biso   1.000  N
  N29      1.0000 0.03080  0.91370  0.68810  Biso   1.000  N
  N30      1.0000 0.96920  0.08630  0.18810  Biso   1.000  N
  N31      1.0000 0.41370  0.46920  0.93810  Biso   1.000  N
  N32      1.0000 0.58630  0.53080  0.43810  Biso   1.000  N
  N33      1.0000 0.27160  0.59120  0.53130  Biso   1.000  N
  N34      1.0000 0.72840  0.40880  0.03130  Biso   1.000  N
  N35      1.0000 0.90880  0.77160  0.28130  Biso   1.000  N
  N36      1.0000 0.09120  0.22840  0.78130  Biso   1.000  N
  N37      1.0000 0.22840  0.09120  0.21870  Biso   1.000  N
  N38      1.0000 0.77160  0.90880  0.71870  Biso   1.000  N
  N39      1.0000 0.59120  0.27160  0.46870  Biso   1.000  N
  N40      1.0000 0.40880  0.72840  0.96870  Biso   1.000  N
  N41      1.0000 0.26760  0.57040  0.61040  Biso   1.000  N
  N42      1.0000 0.73240  0.42960  0.11040  Biso   1.000  N
  N43      1.0000 0.92960  0.76760  0.36040  Biso   1.000  N
  N44      1.0000 0.07040  0.23240  0.86040  Biso   1.000  N
  N45      1.0000 0.23240  0.07040  0.13960  Biso   1.000  N
  N46      1.0000 0.76760  0.92960  0.63960  Biso   1.000  N
  N47      1.0000 0.57040  0.26760  0.38960  Biso   1.000  N
  N48      1.0000 0.42960  0.73240  0.88960  Biso   1.000  N
  N49      1.0000 0.26390  0.63480  0.60370  Biso   1.000  N
  N50      1.0000 0.73610  0.36520  0.10370  Biso   1.000  N
  N51      1.0000 0.86520  0.76390  0.35370  Biso   1.000  N
  N52      1.0000 0.13480  0.23610  0.85370  Biso   1.000  N
  N53      1.0000 0.23610  0.13480  0.14630  Biso   1.000  N
  N54      1.0000 0.76390  0.86520  0.64630  Biso   1.000  N
  N55      1.0000 0.63480  0.26390  0.39630  Biso   1.000  N
  N56      1.0000 0.36520  0.73610  0.89630  Biso   1.000  N
  N57      1.0000 0.15540  0.77240  0.52180  Biso   1.000  N
  N58      1.0000 0.84460  0.22760  0.02180  Biso   1.000  N
  N59      1.0000 0.72760  0.65540  0.27180  Biso   1.000  N
  N60      1.0000 0.27240  0.34460  0.77180  Biso   1.000  N
  N61      1.0000 0.34460  0.27240  0.22820  Biso   1.000  N
  N62      1.0000 0.65540  0.72760  0.72820  Biso   1.000  N
  N63      1.0000 0.77240  0.15540  0.47820  Biso   1.000  N
  N64      1.0000 0.22760  0.84460  0.97820  Biso   1.000  N
  N65      1.0000 0.14680  0.75320  0.59890  Biso   1.000  N
  N66      1.0000 0.85320  0.24680  0.09890  Biso   1.000  N
  N67      1.0000 0.74680  0.64680  0.34890  Biso   1.000  N
  N68      1.0000 0.25320  0.35320  0.84890  Biso   1.000  N
  N69      1.0000 0.35320  0.25320  0.15110  Biso   1.000  N
  N70      1.0000 0.64680  0.74680  0.65110  Biso   1.000  N
  N71      1.0000 0.75320  0.14680  0.40110  Biso   1.000  N
  N72      1.0000 0.24680  0.85320  0.90110  Biso   1.000  N
  N73      1.0000 0.18900  0.79530  0.59460  Biso   1.000  N
  N74      1.0000 0.81100  0.20470  0.09460  Biso   1.000  N
  N75      1.0000 0.70470  0.68900  0.34460  Biso   1.000  N
  N76      1.0000 0.29530  0.31100  0.84460  Biso   1.000  N
  N77      1.0000 0.31100  0.29530  0.15540  Biso   1.000  N
  N78      1.0000 0.68900  0.70470  0.65540  Biso   1.000  N
  N79      1.0000 0.79530  0.18900  0.40540  Biso   1.000  N
  N80      1.0000 0.20470  0.81100  0.90540  Biso   1.000  N
  N81      1.0000 0.22440  0.60020  0.96690  Biso   1.000  N
  N82      1.0000 0.77560  0.39980  0.46690  Biso   1.000  N
  N83      1.0000 0.89980  0.72440  0.71690  Biso   1.000  N
  N84      1.0000 0.10020  0.27560  0.21690  Biso   1.000  N
  N85      1.0000 0.27560  0.10020  0.78310  Biso   1.000  N
  N86      1.0000 0.72440  0.89980  0.28310  Biso   1.000  N
  N87      1.0000 0.60020  0.22440  0.03310  Biso   1.000  N
  N88      1.0000 0.39980  0.77560  0.53310  Biso   1.000  N
  N89      1.0000 0.25110  0.60570  0.89520  Biso   1.000  N
  N90      1.0000 0.74890  0.39430  0.39520  Biso   1.000  N
  N91      1.0000 0.89430  0.75110  0.64520  Biso   1.000  N
  N92      1.0000 0.10570  0.24890  0.14520  Biso   1.000  N
  N93      1.0000 0.24890  0.10570  0.85480  Biso   1.000  N
  N94      1.0000 0.75110  0.89430  0.35480  Biso   1.000  N
  N95      1.0000 0.60570  0.25110  0.10480  Biso   1.000  N
  N96      1.0000 0.39430  0.74890  0.60480  Biso   1.000  N
  N97      1.0000 0.19320  0.62460  0.89010  Biso   1.000  N
  N98      1.0000 0.80680  0.37540  0.39010  Biso   1.000  N
  N99      1.0000 0.87540  0.69320  0.64010  Biso   1.000  N
  N100     1.0000 0.12460  0.30680  0.14010  Biso   1.000  N
  N101     1.0000 0.30680  0.12460  0.85990  Biso   1.000  N
  N102     1.0000 0.69320  0.87540  0.35990  Biso   1.000  N
  N103     1.0000 0.62460  0.19320  0.10990  Biso   1.000  N
  N104     1.0000 0.37540  0.80680  0.60990  Biso   1.000  N
  N105     1.0000 0.02910  0.73180  0.95990  Biso   1.000  N
  N106     1.0000 0.97090  0.26820  0.45990  Biso   1.000  N
  N107     1.0000 0.76820  0.52910  0.70990  Biso   1.000  N
  N108     1.0000 0.23180  0.47090  0.20990  Biso   1.000  N
  N109     1.0000 0.47090  0.23180  0.79010  Biso   1.000  N
  N110     1.0000 0.52910  0.76820  0.29010  Biso   1.000  N
  N111     1.0000 0.73180  0.02910  0.04010  Biso   1.000  N
  N112     1.0000 0.26820  0.97090  0.54010  Biso   1.000  N
  N113     1.0000 0.04800  0.74000  0.88490  Biso   1.000  N
  N114     1.0000 0.95200  0.26000  0.38490  Biso   1.000  N
  N115     1.0000 0.76000  0.54800  0.63490  Biso   1.000  N
  N116     1.0000 0.24000  0.45200  0.13490  Biso   1.000  N
  N117     1.0000 0.45200  0.24000  0.86510  Biso   1.000  N
  N118     1.0000 0.54800  0.76000  0.36510  Biso   1.000  N
  N119     1.0000 0.74000  0.04800  0.11510  Biso   1.000  N
  N120     1.0000 0.26000  0.95200  0.61510  Biso   1.000  N
  N121     1.0000 0.02100  0.69070  0.88860  Biso   1.000  N
  N122     1.0000 0.97900  0.30930  0.38860  Biso   1.000  N
  N123     1.0000 0.80930  0.52100  0.63860  Biso   1.000  N
  N124     1.0000 0.19070  0.47900  0.13860  Biso   1.000  N
  N125     1.0000 0.47900  0.19070  0.86140  Biso   1.000  N
  N126     1.0000 0.52100  0.80930  0.36140  Biso   1.000  N
  N127     1.0000 0.69070  0.02100  0.11140  Biso   1.000  N
  N128     1.0000 0.30930  0.97900  0.61140  Biso   1.000  N
  O1       1.0000 0.02410  0.06620  0.05750  Biso   1.000  O
  O2       1.0000 0.97590  0.93380  0.55750  Biso   1.000  O
  O3       1.0000 0.43380  0.52410  0.80750  Biso   1.000  O
  O4       1.0000 0.56620  0.47590  0.30750  Biso   1.000  O
  O5       1.0000 0.47590  0.56620  0.69250  Biso   1.000  O
  O6       1.0000 0.52410  0.43380  0.19250  Biso   1.000  O
  O7       1.0000 0.06620  0.02410  0.94250  Biso   1.000  O
  O8       1.0000 0.93380  0.97590  0.44250  Biso   1.000  O
  O9       1.0000 0.92990  0.06570  0.06960  Biso   1.000  O
  O10      1.0000 0.07010  0.93430  0.56960  Biso   1.000  O
  O11      1.0000 0.43430  0.42990  0.81960  Biso   1.000  O
  O12      1.0000 0.56570  0.57010  0.31960  Biso   1.000  O
  O13      1.0000 0.57010  0.56570  0.68040  Biso   1.000  O
  O14      1.0000 0.42990  0.43430  0.18040  Biso   1.000  O
  O15      1.0000 0.06570  0.92990  0.93040  Biso   1.000  O
  O16      1.0000 0.93430  0.07010  0.43040  Biso   1.000  O
  O17      1.0000 0.82020  0.88570  0.09030  Biso   1.000  O
  O18      1.0000 0.17980  0.11430  0.59030  Biso   1.000  O
  O19      1.0000 0.61430  0.32020  0.84030  Biso   1.000  O
  O20      1.0000 0.38570  0.67980  0.34030  Biso   1.000  O
  O21      1.0000 0.67980  0.38570  0.65970  Biso   1.000  O
  O22      1.0000 0.32020  0.61430  0.15970  Biso   1.000  O
  O23      1.0000 0.88570  0.82020  0.90970  Biso   1.000  O
  O24      1.0000 0.11430  0.17980  0.40970  Biso   1.000  O
  O25      1.0000 0.85750  0.79270  0.09070  Biso   1.000  O
  O26      1.0000 0.14250  0.20730  0.59070  Biso   1.000  O
  O27      1.0000 0.70730  0.35750  0.84070  Biso   1.000  O
  O28      1.0000 0.29270  0.64250  0.34070  Biso   1.000  O
  O29      1.0000 0.64250  0.29270  0.65930  Biso   1.000  O
  O30      1.0000 0.35750  0.70730  0.15930  Biso   1.000  O
  O31      1.0000 0.79270  0.85750  0.90930  Biso   1.000  O
  O32      1.0000 0.20730  0.14250  0.40930  Biso   1.000  O
  O33      1.0000 0.10070  0.79350  0.04060  Biso   1.000  O
  O34      1.0000 0.89930  0.20650  0.54060  Biso   1.000  O
  O35      1.0000 0.70650  0.60070  0.79060  Biso   1.000  O
  O36      1.0000 0.29350  0.39930  0.29060  Biso   1.000  O
  O37      1.0000 0.39930  0.29350  0.70940  Biso   1.000  O
  O38      1.0000 0.60070  0.70650  0.20940  Biso   1.000  O
  O39      1.0000 0.79350  0.10070  0.95940  Biso   1.000  O
  O40      1.0000 0.20650  0.89930  0.45940  Biso   1.000  O
  O41      1.0000 0.13930  0.88490  0.04880  Biso   1.000  O
  O42      1.0000 0.86070  0.11510  0.54880  Biso   1.000  O
  O43      1.0000 0.61510  0.63930  0.79880  Biso   1.000  O
  O44      1.0000 0.38490  0.36070  0.29880  Biso   1.000  O
  O45      1.0000 0.36070  0.38490  0.70120  Biso   1.000  O
  O46      1.0000 0.63930  0.61510  0.20120  Biso   1.000  O
  O47      1.0000 0.88490  0.13930  0.95120  Biso   1.000  O
  O48      1.0000 0.11510  0.86070  0.45120  Biso   1.000  O
  O49      1.0000 0.97810  0.78670  0.06180  Biso   1.000  O
  O50      1.0000 0.02190  0.21330  0.56180  Biso   1.000  O
  O51      1.0000 0.71330  0.47810  0.81180  Biso   1.000  O
  O52      1.0000 0.28670  0.52190  0.31180  Biso   1.000  O
  O53      1.0000 0.52190  0.28670  0.68820  Biso   1.000  O
  O54      1.0000 0.47810  0.71330  0.18820  Biso   1.000  O
  O55      1.0000 0.78670  0.97810  0.93820  Biso   1.000  O
  O56      1.0000 0.21330  0.02190  0.43820  Biso   1.000  O
  O57      1.0000 0.92890  0.39160  0.06510  Biso   1.000  O
  O58      1.0000 0.07110  0.60840  0.56510  Biso   1.000  O
  O59      1.0000 0.10840  0.42890  0.81510  Biso   1.000  O
  O60      1.0000 0.89160  0.57110  0.31510  Biso   1.000  O
  O61      1.0000 0.57110  0.89160  0.68490  Biso   1.000  O
  O62      1.0000 0.42890  0.10840  0.18490  Biso   1.000  O
  O63      1.0000 0.39160  0.92890  0.93490  Biso   1.000  O
  O64      1.0000 0.60840  0.07110  0.43490  Biso   1.000  O
  O65      1.0000 0.02610  0.39190  0.04950  Biso   1.000  O
  O66      1.0000 0.97390  0.60810  0.54950  Biso   1.000  O
  O67      1.0000 0.10810  0.52610  0.79950  Biso   1.000  O
  O68      1.0000 0.89190  0.47390  0.29950  Biso   1.000  O
  O69      1.0000 0.47390  0.89190  0.70050  Biso   1.000  O
  O70      1.0000 0.52610  0.10810  0.20050  Biso   1.000  O
  O71      1.0000 0.39190  0.02610  0.95050  Biso   1.000  O
  O72      1.0000 0.60810  0.97390  0.45050  Biso   1.000  O
  O73      1.0000 0.81670  0.57350  0.08120  Biso   1.000  O
  O74      1.0000 0.18330  0.42650  0.58120  Biso   1.000  O
  O75      1.0000 0.92650  0.31670  0.83120  Biso   1.000  O
  O76      1.0000 0.07350  0.68330  0.33120  Biso   1.000  O
  O77      1.0000 0.68330  0.07350  0.66880  Biso   1.000  O
  O78      1.0000 0.31670  0.92650  0.16880  Biso   1.000  O
  O79      1.0000 0.57350  0.81670  0.91880  Biso   1.000  O
  O80      1.0000 0.42650  0.18330  0.41880  Biso   1.000  O
  O81      1.0000 0.85570  0.66550  0.08400  Biso   1.000  O
  O82      1.0000 0.14430  0.33450  0.58400  Biso   1.000  O
  O83      1.0000 0.83450  0.35570  0.83400  Biso   1.000  O
  O84      1.0000 0.16550  0.64430  0.33400  Biso   1.000  O
  O85      1.0000 0.64430  0.16550  0.66600  Biso   1.000  O
  O86      1.0000 0.35570  0.83450  0.16600  Biso   1.000  O
  O87      1.0000 0.66550  0.85570  0.91600  Biso   1.000  O
  O88      1.0000 0.33450  0.14430  0.41600  Biso   1.000  O
  O89      1.0000 0.13750  0.57130  0.04060  Biso   1.000  O
  O90      1.0000 0.86250  0.42870  0.54060  Biso   1.000  O
  O91      1.0000 0.92870  0.63750  0.79060  Biso   1.000  O
  O92      1.0000 0.07130  0.36250  0.29060  Biso   1.000  O
  O93      1.0000 0.36250  0.07130  0.70940  Biso   1.000  O
  O94      1.0000 0.63750  0.92870  0.20940  Biso   1.000  O
  O95      1.0000 0.57130  0.13750  0.95940  Biso   1.000  O
  O96      1.0000 0.42870  0.86250  0.45940  Biso   1.000  O
  O97      1.0000 0.10190  0.66530  0.03960  Biso   1.000  O
  O98      1.0000 0.89810  0.33470  0.53960  Biso   1.000  O
  O99      1.0000 0.83470  0.60190  0.78960  Biso   1.000  O
  O100     1.0000 0.16530  0.39810  0.28960  Biso   1.000  O
  O101     1.0000 0.39810  0.16530  0.71040  Biso   1.000  O
  O102     1.0000 0.60190  0.83470  0.21040  Biso   1.000  O
  O103     1.0000 0.66530  0.10190  0.96040  Biso   1.000  O
  O104     1.0000 0.33470  0.89810  0.46040  Biso   1.000  O
  O105     1.0000 0.97670  0.67220  0.05690  Biso   1.000  O
  O106     1.0000 0.02330  0.32780  0.55690  Biso   1.000  O
  O107     1.0000 0.82780  0.47670  0.80690  Biso   1.000  O
  O108     1.0000 0.17220  0.52330  0.30690  Biso   1.000  O
  O109     1.0000 0.52330  0.17220  0.69310  Biso   1.000  O
  O110     1.0000 0.47670  0.82780  0.19310  Biso   1.000  O
  O111     1.0000 0.67220  0.97670  0.94310  Biso   1.000  O
  O112     1.0000 0.32780  0.02330  0.44310  Biso   1.000  O
  O113     1.0000 0.42440  0.06100  0.06380  Biso   1.000  O
  O114     1.0000 0.57560  0.93900  0.56380  Biso   1.000  O
  O115     1.0000 0.43900  0.92440  0.81380  Biso   1.000  O
  O116     1.0000 0.56100  0.07560  0.31380  Biso   1.000  O
  O117     1.0000 0.07560  0.56100  0.68620  Biso   1.000  O
  O118     1.0000 0.92440  0.43900  0.18620  Biso   1.000  O
  O119     1.0000 0.06100  0.42440  0.93620  Biso   1.000  O
  O120     1.0000 0.93900  0.57560  0.43620  Biso   1.000  O
  O121     1.0000 0.52050  0.06030  0.07500  Biso   1.000  O
  O122     1.0000 0.47950  0.93970  0.57500  Biso   1.000  O
  O123     1.0000 0.43970  0.02050  0.82500  Biso   1.000  O
  O124     1.0000 0.56030  0.97950  0.32500  Biso   1.000  O
  O125     1.0000 0.97950  0.56030  0.67500  Biso   1.000  O
  O126     1.0000 0.02050  0.43970  0.17500  Biso   1.000  O
  O127     1.0000 0.06030  0.52050  0.92500  Biso   1.000  O
  O128     1.0000 0.93970  0.47950  0.42500  Biso   1.000  O
  O129     1.0000 0.62890  0.87910  0.09540  Biso   1.000  O
  O130     1.0000 0.37110  0.12090  0.59540  Biso   1.000  O
  O131     1.0000 0.62090  0.12890  0.84540  Biso   1.000  O
  O132     1.0000 0.37910  0.87110  0.34540  Biso   1.000  O
  O133     1.0000 0.87110  0.37910  0.65460  Biso   1.000  O
  O134     1.0000 0.12890  0.62090  0.15460  Biso   1.000  O
  O135     1.0000 0.87910  0.62890  0.90460  Biso   1.000  O
  O136     1.0000 0.12090  0.37110  0.40460  Biso   1.000  O
  O137     1.0000 0.58960  0.78520  0.09980  Biso   1.000  O
  O138     1.0000 0.41040  0.21480  0.59980  Biso   1.000  O
  O139     1.0000 0.71480  0.08960  0.84980  Biso   1.000  O
  O140     1.0000 0.28520  0.91040  0.34980  Biso   1.000  O
  O141     1.0000 0.91040  0.28520  0.65020  Biso   1.000  O
  O142     1.0000 0.08960  0.71480  0.15020  Biso   1.000  O
  O143     1.0000 0.78520  0.58960  0.90020  Biso   1.000  O
  O144     1.0000 0.21480  0.41040  0.40020  Biso   1.000  O
  O145     1.0000 0.34560  0.78830  0.05190  Biso   1.000  O
  O146     1.0000 0.65440  0.21170  0.55190  Biso   1.000  O
  O147     1.0000 0.71170  0.84560  0.80190  Biso   1.000  O
  O148     1.0000 0.28830  0.15440  0.30190  Biso   1.000  O
  O149     1.0000 0.15440  0.28830  0.69810  Biso   1.000  O
  O150     1.0000 0.84560  0.71170  0.19810  Biso   1.000  O
  O151     1.0000 0.78830  0.34560  0.94810  Biso   1.000  O
  O152     1.0000 0.21170  0.65440  0.44810  Biso   1.000  O
  O153     1.0000 0.76420  0.72510  0.94080  Biso   1.000  O
  O154     1.0000 0.23580  0.27490  0.44080  Biso   1.000  O
  O155     1.0000 0.77490  0.26420  0.69080  Biso   1.000  O
  O156     1.0000 0.22510  0.73580  0.19080  Biso   1.000  O
  O157     1.0000 0.73580  0.22510  0.80920  Biso   1.000  O
  O158     1.0000 0.26420  0.77490  0.30920  Biso   1.000  O
  O159     1.0000 0.72510  0.76420  0.05920  Biso   1.000  O
  O160     1.0000 0.27490  0.23580  0.55920  Biso   1.000  O
  O161     1.0000 0.31090  0.88200  0.04950  Biso   1.000  O
  O162     1.0000 0.68910  0.11800  0.54950  Biso   1.000  O
  O163     1.0000 0.61800  0.81090  0.79950  Biso   1.000  O
  O164     1.0000 0.38200  0.18910  0.29950  Biso   1.000  O
  O165     1.0000 0.18910  0.38200  0.70050  Biso   1.000  O
  O166     1.0000 0.81090  0.61800  0.20050  Biso   1.000  O
  O167     1.0000 0.88200  0.31090  0.95050  Biso   1.000  O
  O168     1.0000 0.11800  0.68910  0.45050  Biso   1.000  O
  O169     1.0000 0.46910  0.77920  0.06840  Biso   1.000  O
  O170     1.0000 0.53090  0.22080  0.56840  Biso   1.000  O
  O171     1.0000 0.72080  0.96910  0.81840  Biso   1.000  O
  O172     1.0000 0.27920  0.03090  0.31840  Biso   1.000  O
  O173     1.0000 0.03090  0.27920  0.68160  Biso   1.000  O
  O174     1.0000 0.96910  0.72080  0.18160  Biso   1.000  O
  O175     1.0000 0.77920  0.46910  0.93160  Biso   1.000  O
  O176     1.0000 0.22080  0.53090  0.43160  Biso   1.000  O
  O177     1.0000 0.42250  0.38880  0.05560  Biso   1.000  O
  O178     1.0000 0.57750  0.61120  0.55560  Biso   1.000  O
  O179     1.0000 0.11120  0.92250  0.80560  Biso   1.000  O
  O180     1.0000 0.88880  0.07750  0.30560  Biso   1.000  O
  O181     1.0000 0.07750  0.88880  0.69440  Biso   1.000  O
  O182     1.0000 0.92250  0.11120  0.19440  Biso   1.000  O
  O183     1.0000 0.38880  0.42250  0.94440  Biso   1.000  O
  O184     1.0000 0.61120  0.57750  0.44440  Biso   1.000  O
  O185     1.0000 0.51650  0.38710  0.06930  Biso   1.000  O
  O186     1.0000 0.48350  0.61290  0.56930  Biso   1.000  O
  O187     1.0000 0.11290  0.01650  0.81930  Biso   1.000  O
  O188     1.0000 0.88710  0.98350  0.31930  Biso   1.000  O
  O189     1.0000 0.98350  0.88710  0.68070  Biso   1.000  O
  O190     1.0000 0.01650  0.11290  0.18070  Biso   1.000  O
  O191     1.0000 0.38710  0.51650  0.93070  Biso   1.000  O
  O192     1.0000 0.61290  0.48350  0.43070  Biso   1.000  O
  O193     1.0000 0.63050  0.57080  0.08640  Biso   1.000  O
  O194     1.0000 0.36950  0.42920  0.58640  Biso   1.000  O
  O195     1.0000 0.92920  0.13050  0.83640  Biso   1.000  O
  O196     1.0000 0.07080  0.86950  0.33640  Biso   1.000  O
  O197     1.0000 0.86950  0.07080  0.66360  Biso   1.000  O
  O198     1.0000 0.13050  0.92920  0.16360  Biso   1.000  O
  O199     1.0000 0.57080  0.63050  0.91360  Biso   1.000  O
  O200     1.0000 0.42920  0.36950  0.41360  Biso   1.000  O
  O201     1.0000 0.59220  0.65880  0.09200  Biso   1.000  O
  O202     1.0000 0.40780  0.34120  0.59200  Biso   1.000  O
  O203     1.0000 0.84120  0.09220  0.84200  Biso   1.000  O
  O204     1.0000 0.15880  0.90780  0.34200  Biso   1.000  O
  O205     1.0000 0.90780  0.15880  0.65800  Biso   1.000  O
  O206     1.0000 0.09220  0.84120  0.15800  Biso   1.000  O
  O207     1.0000 0.65880  0.59220  0.90800  Biso   1.000  O
  O208     1.0000 0.34120  0.40780  0.40800  Biso   1.000  O
  O209     1.0000 0.34500  0.66030  0.04650  Biso   1.000  O
  O210     1.0000 0.65500  0.33970  0.54650  Biso   1.000  O
  O211     1.0000 0.83970  0.84500  0.79650  Biso   1.000  O
  O212     1.0000 0.16030  0.15500  0.29650  Biso   1.000  O
  O213     1.0000 0.15500  0.16030  0.70350  Biso   1.000  O
  O214     1.0000 0.84500  0.83970  0.20350  Biso   1.000  O
  O215     1.0000 0.66030  0.34500  0.95350  Biso   1.000  O
  O216     1.0000 0.33970  0.65500  0.45350  Biso   1.000  O
  O217     1.0000 0.30830  0.56860  0.04080  Biso   1.000  O
  O218     1.0000 0.69170  0.43140  0.54080  Biso   1.000  O
  O219     1.0000 0.93140  0.80830  0.79080  Biso   1.000  O
  O220     1.0000 0.06860  0.19170  0.29080  Biso   1.000  O
  O221     1.0000 0.19170  0.06860  0.70920  Biso   1.000  O
  O222     1.0000 0.80830  0.93140  0.20920  Biso   1.000  O
  O223     1.0000 0.56860  0.30830  0.95920  Biso   1.000  O
  O224     1.0000 0.43140  0.69170  0.45920  Biso   1.000  O
  O225     1.0000 0.47010  0.66820  0.06290  Biso   1.000  O
  O226     1.0000 0.52990  0.33180  0.56290  Biso   1.000  O
  O227     1.0000 0.83180  0.97010  0.81290  Biso   1.000  O
  O228     1.0000 0.16820  0.02990  0.31290  Biso   1.000  O
  O229     1.0000 0.02990  0.16820  0.68710  Biso   1.000  O
  O230     1.0000 0.97010  0.83180  0.18710  Biso   1.000  O
  O231     1.0000 0.66820  0.47010  0.93710  Biso   1.000  O
  O232     1.0000 0.33180  0.52990  0.43710  Biso   1.000  O
  O233     1.0000 0.22230  0.75000  0.05300  Biso   1.000  O
  O234     1.0000 0.77770  0.25000  0.55300  Biso   1.000  O
  O235     1.0000 0.75000  0.72230  0.80300  Biso   1.000  O
  O236     1.0000 0.25000  0.27770  0.30300  Biso   1.000  O
  O237     1.0000 0.27770  0.25000  0.69700  Biso   1.000  O
  O238     1.0000 0.72230  0.75000  0.19700  Biso   1.000  O
  O239     1.0000 0.75000  0.22230  0.94700  Biso   1.000  O
  O240     1.0000 0.25000  0.77770  0.44700  Biso   1.000  O
  O241     1.0000 0.22300  0.71800  0.03600  Biso   1.000  O
  O242     1.0000 0.77700  0.28200  0.53600  Biso   1.000  O
  O243     1.0000 0.78200  0.72300  0.78600  Biso   1.000  O
  O244     1.0000 0.21800  0.27700  0.28600  Biso   1.000  O
  O245     1.0000 0.27700  0.21800  0.71400  Biso   1.000  O
  O246     1.0000 0.72300  0.78200  0.21400  Biso   1.000  O
  O247     1.0000 0.71800  0.22300  0.96400  Biso   1.000  O
  O248     1.0000 0.28200  0.77700  0.46400  Biso   1.000  O
  O249     1.0000 0.87780  0.73230  0.99060  Biso   1.000  O
  O250     1.0000 0.12220  0.26770  0.49060  Biso   1.000  O
  O251     1.0000 0.76770  0.37780  0.74060  Biso   1.000  O
  O252     1.0000 0.23230  0.62220  0.24060  Biso   1.000  O
  O253     1.0000 0.62220  0.23230  0.75940  Biso   1.000  O
  O254     1.0000 0.37780  0.76770  0.25940  Biso   1.000  O
  O255     1.0000 0.73230  0.87780  0.00940  Biso   1.000  O
  O256     1.0000 0.26770  0.12220  0.50940  Biso   1.000  O
  O257     1.0000 0.57340  0.72650  0.99890  Biso   1.000  O
  O258     1.0000 0.42660  0.27350  0.49890  Biso   1.000  O
  O259     1.0000 0.77350  0.07340  0.74890  Biso   1.000  O
  O260     1.0000 0.22650  0.92660  0.24890  Biso   1.000  O
  O261     1.0000 0.92660  0.22650  0.75110  Biso   1.000  O
  O262     1.0000 0.07340  0.77350  0.25110  Biso   1.000  O
  O263     1.0000 0.72650  0.57340  0.00110  Biso   1.000  O
  O264     1.0000 0.27350  0.42660  0.50110  Biso   1.000  O
  O265     1.0000 0.22570  0.62920  0.10260  Biso   1.000  O
  O266     1.0000 0.77430  0.37080  0.60260  Biso   1.000  O
  O267     1.0000 0.87080  0.72570  0.85260  Biso   1.000  O
  O268     1.0000 0.12920  0.27430  0.35260  Biso   1.000  O
  O269     1.0000 0.27430  0.12920  0.64740  Biso   1.000  O
  O270     1.0000 0.72570  0.87080  0.14740  Biso   1.000  O
  O271     1.0000 0.62920  0.22570  0.89740  Biso   1.000  O
  O272     1.0000 0.37080  0.77430  0.39740  Biso   1.000  O
  O273     1.0000 0.22260  0.86000  0.11860  Biso   1.000  O
  O274     1.0000 0.77740  0.14000  0.61860  Biso   1.000  O
  O275     1.0000 0.64000  0.72260  0.86860  Biso   1.000  O
  O276     1.0000 0.36000  0.27740  0.36860  Biso   1.000  O
  O277     1.0000 0.27740  0.36000  0.63140  Biso   1.000  O
  O278     1.0000 0.72260  0.64000  0.13140  Biso   1.000  O
  O279     1.0000 0.86000  0.22260  0.88140  Biso   1.000  O
  O280     1.0000 0.14000  0.77740  0.38140  Biso   1.000  O
  O281     1.0000 0.22420  0.89700  0.11690  Biso   1.000  O
  O282     1.0000 0.77580  0.10300  0.61690  Biso   1.000  O
  O283     1.0000 0.60300  0.72420  0.86690  Biso   1.000  O
  O284     1.0000 0.39700  0.27580  0.36690  Biso   1.000  O
  O285     1.0000 0.27580  0.39700  0.63310  Biso   1.000  O
  O286     1.0000 0.72420  0.60300  0.13310  Biso   1.000  O
  O287     1.0000 0.89700  0.22420  0.88310  Biso   1.000  O
  O288     1.0000 0.10300  0.77580  0.38310  Biso   1.000  O
  O289     1.0000 0.21550  0.77200  0.08900  Biso   1.000  O
  O290     1.0000 0.78450  0.22800  0.58900  Biso   1.000  O
  O291     1.0000 0.72800  0.71550  0.83900  Biso   1.000  O
  O292     1.0000 0.27200  0.28450  0.33900  Biso   1.000  O
  O293     1.0000 0.28450  0.27200  0.66100  Biso   1.000  O
  O294     1.0000 0.71550  0.72800  0.16100  Biso   1.000  O
  O295     1.0000 0.77200  0.21550  0.91100  Biso   1.000  O
  O296     1.0000 0.22800  0.78450  0.41100  Biso   1.000  O
