data_image0
_cell_length_a       19.387
_cell_length_b       19.387
_cell_length_c       60.831
_cell_angle_alpha    90
_cell_angle_beta     90
_cell_angle_gamma    90

_symmetry_space_group_name_H-M    "P 1"
_symmetry_int_tables_number       1

loop_
  _symmetry_equiv_pos_as_xyz
  'x, y, z'

loop_
  _atom_site_label
  _atom_site_occupancy
  _atom_site_fract_x
  _atom_site_fract_y
  _atom_site_fract_z
  _atom_site_thermal_displace_type
  _atom_site_B_iso_or_equiv
  _atom_site_type_symbol
  Cu1      1.0000 0.00000  0.43246  0.49767  Biso   1.000  Cu
  Cu2      1.0000 0.50000  0.56754  0.99767  Biso   1.000  Cu
  Cu3      1.0000 0.81754  0.75000  0.74767  Biso   1.000  Cu
  Cu4      1.0000 0.68246  0.25000  0.24767  Biso   1.000  Cu
  Cu5      1.0000 0.50000  0.43246  0.00233  Biso   1.000  Cu
  Cu6      1.0000 0.00000  0.56754  0.50233  Biso   1.000  Cu
  Cu7      1.0000 0.68246  0.75000  0.75233  Biso   1.000  Cu
  Cu8      1.0000 0.81754  0.25000  0.25233  Biso   1.000  Cu
  Cu9      1.0000 0.50000  0.93246  0.99767  Biso   1.000  Cu
  Cu10     1.0000 0.00000  0.06754  0.49767  Biso   1.000  Cu
  Cu11     1.0000 0.31754  0.25000  0.24767  Biso   1.000  Cu
  Cu12     1.0000 0.18246  0.75000  0.74767  Biso   1.000  Cu
  Cu13     1.0000 0.00000  0.93246  0.50233  Biso   1.000  Cu
  Cu14     1.0000 0.50000  0.06754  0.00233  Biso   1.000  Cu
  Cu15     1.0000 0.18246  0.25000  0.25233  Biso   1.000  Cu
  Cu16     1.0000 0.31754  0.75000  0.75233  Biso   1.000  Cu
  Cu17     1.0000 0.50000  0.25000  0.60331  Biso   1.000  Cu
  Cu18     1.0000 0.00000  0.75000  0.10331  Biso   1.000  Cu
  Cu19     1.0000 0.00000  0.25000  0.85331  Biso   1.000  Cu
  Cu20     1.0000 0.50000  0.75000  0.35331  Biso   1.000  Cu
  Cu21     1.0000 0.00000  0.25000  0.89669  Biso   1.000  Cu
  Cu22     1.0000 0.50000  0.75000  0.39669  Biso   1.000  Cu
  Cu23     1.0000 0.50000  0.25000  0.64669  Biso   1.000  Cu
  Cu24     1.0000 0.00000  0.75000  0.14669  Biso   1.000  Cu
  O1       1.0000 0.07017  0.55393  0.52481  Biso   1.000  O
  O2       1.0000 0.42983  0.44607  0.02481  Biso   1.000  O
  O3       1.0000 0.69607  0.82017  0.77481  Biso   1.000  O
  O4       1.0000 0.80393  0.17983  0.27481  Biso   1.000  O
  O5       1.0000 0.42983  0.55393  0.97519  Biso   1.000  O
  O6       1.0000 0.07017  0.44607  0.47519  Biso   1.000  O
  O7       1.0000 0.80393  0.82017  0.72519  Biso   1.000  O
  O8       1.0000 0.69607  0.17983  0.22519  Biso   1.000  O
  O9       1.0000 0.57017  0.05393  0.02481  Biso   1.000  O
  O10      1.0000 0.92983  0.94607  0.52481  Biso   1.000  O
  O11      1.0000 0.19607  0.32017  0.27481  Biso   1.000  O
  O12      1.0000 0.30393  0.67983  0.77481  Biso   1.000  O
  O13      1.0000 0.92983  0.05393  0.47519  Biso   1.000  O
  O14      1.0000 0.57017  0.94607  0.97519  Biso   1.000  O
  O15      1.0000 0.30393  0.32017  0.22519  Biso   1.000  O
  O16      1.0000 0.19607  0.67983  0.72519  Biso   1.000  O
  O17      1.0000 0.92983  0.44607  0.47519  Biso   1.000  O
  O18      1.0000 0.57017  0.55393  0.97519  Biso   1.000  O
  O19      1.0000 0.80393  0.67983  0.72519  Biso   1.000  O
  O20      1.0000 0.69607  0.32017  0.22519  Biso   1.000  O
  O21      1.0000 0.57017  0.44607  0.02481  Biso   1.000  O
  O22      1.0000 0.92983  0.55393  0.52481  Biso   1.000  O
  O23      1.0000 0.69607  0.67983  0.77481  Biso   1.000  O
  O24      1.0000 0.80393  0.32017  0.27481  Biso   1.000  O
  O25      1.0000 0.42983  0.94607  0.97519  Biso   1.000  O
  O26      1.0000 0.07017  0.05393  0.47519  Biso   1.000  O
  O27      1.0000 0.30393  0.17983  0.22519  Biso   1.000  O
  O28      1.0000 0.19607  0.82017  0.72519  Biso   1.000  O
  O29      1.0000 0.07017  0.94607  0.52481  Biso   1.000  O
  O30      1.0000 0.42983  0.05393  0.02481  Biso   1.000  O
  O31      1.0000 0.19607  0.17983  0.27481  Biso   1.000  O
  O32      1.0000 0.30393  0.82017  0.77481  Biso   1.000  O
  O33      1.0000 0.07126  0.44070  0.52075  Biso   1.000  O
  O34      1.0000 0.42874  0.55930  0.02075  Biso   1.000  O
  O35      1.0000 0.80930  0.82126  0.77075  Biso   1.000  O
  O36      1.0000 0.69070  0.17874  0.27075  Biso   1.000  O
  O37      1.0000 0.42874  0.44070  0.97925  Biso   1.000  O
  O38      1.0000 0.07126  0.55930  0.47925  Biso   1.000  O
  O39      1.0000 0.69070  0.82126  0.72925  Biso   1.000  O
  O40      1.0000 0.80930  0.17874  0.22925  Biso   1.000  O
  O41      1.0000 0.57126  0.94070  0.02075  Biso   1.000  O
  O42      1.0000 0.92874  0.05930  0.52075  Biso   1.000  O
  O43      1.0000 0.30930  0.32126  0.27075  Biso   1.000  O
  O44      1.0000 0.19070  0.67874  0.77075  Biso   1.000  O
  O45      1.0000 0.92874  0.94070  0.47925  Biso   1.000  O
  O46      1.0000 0.57126  0.05930  0.97925  Biso   1.000  O
  O47      1.0000 0.19070  0.32126  0.22925  Biso   1.000  O
  O48      1.0000 0.30930  0.67874  0.72925  Biso   1.000  O
  O49      1.0000 0.92874  0.55930  0.47925  Biso   1.000  O
  O50      1.0000 0.57126  0.44070  0.97925  Biso   1.000  O
  O51      1.0000 0.69070  0.67874  0.72925  Biso   1.000  O
  O52      1.0000 0.80930  0.32126  0.22925  Biso   1.000  O
  O53      1.0000 0.57126  0.55930  0.02075  Biso   1.000  O
  O54      1.0000 0.92874  0.44070  0.52075  Biso   1.000  O
  O55      1.0000 0.80930  0.67874  0.77075  Biso   1.000  O
  O56      1.0000 0.69070  0.32126  0.27075  Biso   1.000  O
  O57      1.0000 0.42874  0.05930  0.97925  Biso   1.000  O
  O58      1.0000 0.07126  0.94070  0.47925  Biso   1.000  O
  O59      1.0000 0.19070  0.17874  0.22925  Biso   1.000  O
  O60      1.0000 0.30930  0.82126  0.72925  Biso   1.000  O
  O61      1.0000 0.07126  0.05930  0.52075  Biso   1.000  O
  O62      1.0000 0.42874  0.94070  0.02075  Biso   1.000  O
  O63      1.0000 0.30930  0.17874  0.27075  Biso   1.000  O
  O64      1.0000 0.19070  0.82126  0.77075  Biso   1.000  O
  O65      1.0000 0.42981  0.32005  0.60648  Biso   1.000  O
  O66      1.0000 0.07019  0.67995  0.10648  Biso   1.000  O
  O67      1.0000 0.92995  0.17981  0.85648  Biso   1.000  O
  O68      1.0000 0.57005  0.82019  0.35648  Biso   1.000  O
  O69      1.0000 0.07019  0.32005  0.89352  Biso   1.000  O
  O70      1.0000 0.42981  0.67995  0.39352  Biso   1.000  O
  O71      1.0000 0.57005  0.17981  0.64352  Biso   1.000  O
  O72      1.0000 0.92995  0.82019  0.14352  Biso   1.000  O
  O73      1.0000 0.92981  0.82005  0.10648  Biso   1.000  O
  O74      1.0000 0.57019  0.17995  0.60648  Biso   1.000  O
  O75      1.0000 0.42995  0.67981  0.35648  Biso   1.000  O
  O76      1.0000 0.07005  0.32019  0.85648  Biso   1.000  O
  O77      1.0000 0.57019  0.82005  0.39352  Biso   1.000  O
  O78      1.0000 0.92981  0.17995  0.89352  Biso   1.000  O
  O79      1.0000 0.07005  0.67981  0.14352  Biso   1.000  O
  O80      1.0000 0.42995  0.32019  0.64352  Biso   1.000  O
  O81      1.0000 0.57019  0.67995  0.39352  Biso   1.000  O
  O82      1.0000 0.92981  0.32005  0.89352  Biso   1.000  O
  O83      1.0000 0.57005  0.32019  0.64352  Biso   1.000  O
  O84      1.0000 0.92995  0.67981  0.14352  Biso   1.000  O
  O85      1.0000 0.92981  0.67995  0.10648  Biso   1.000  O
  O86      1.0000 0.57019  0.32005  0.60648  Biso   1.000  O
  O87      1.0000 0.92995  0.32019  0.85648  Biso   1.000  O
  O88      1.0000 0.57005  0.67981  0.35648  Biso   1.000  O
  O89      1.0000 0.07019  0.17995  0.89352  Biso   1.000  O
  O90      1.0000 0.42981  0.82005  0.39352  Biso   1.000  O
  O91      1.0000 0.07005  0.82019  0.14352  Biso   1.000  O
  O92      1.0000 0.42995  0.17981  0.64352  Biso   1.000  O
  O93      1.0000 0.42981  0.17995  0.60648  Biso   1.000  O
  O94      1.0000 0.07019  0.82005  0.10648  Biso   1.000  O
  O95      1.0000 0.42995  0.82019  0.35648  Biso   1.000  O
  O96      1.0000 0.07005  0.17981  0.85648  Biso   1.000  O
  O97      1.0000 0.50000  0.25000  0.56721  Biso   1.000  O
  O98      1.0000 0.00000  0.75000  0.06721  Biso   1.000  O
  O99      1.0000 0.00000  0.25000  0.81721  Biso   1.000  O
  O100     1.0000 0.50000  0.75000  0.31721  Biso   1.000  O
  O101     1.0000 0.00000  0.25000  0.93279  Biso   1.000  O
  O102     1.0000 0.50000  0.75000  0.43279  Biso   1.000  O
  O103     1.0000 0.50000  0.25000  0.68279  Biso   1.000  O
  O104     1.0000 0.00000  0.75000  0.18279  Biso   1.000  O
  N1       1.0000 0.00000  0.31890  0.49722  Biso   1.000  N
  N2       1.0000 0.50000  0.68110  0.99722  Biso   1.000  N
  N3       1.0000 0.93110  0.75000  0.74722  Biso   1.000  N
  N4       1.0000 0.56890  0.25000  0.24722  Biso   1.000  N
  N5       1.0000 0.50000  0.31890  0.00278  Biso   1.000  N
  N6       1.0000 0.00000  0.68110  0.50278  Biso   1.000  N
  N7       1.0000 0.56890  0.75000  0.75278  Biso   1.000  N
  N8       1.0000 0.93110  0.25000  0.25278  Biso   1.000  N
  N9       1.0000 0.50000  0.81890  0.99722  Biso   1.000  N
  N10      1.0000 0.00000  0.18110  0.49722  Biso   1.000  N
  N11      1.0000 0.43110  0.25000  0.24722  Biso   1.000  N
  N12      1.0000 0.06890  0.75000  0.74722  Biso   1.000  N
  N13      1.0000 0.00000  0.81890  0.50278  Biso   1.000  N
  N14      1.0000 0.50000  0.18110  0.00278  Biso   1.000  N
  N15      1.0000 0.06890  0.25000  0.25278  Biso   1.000  N
  N16      1.0000 0.43110  0.75000  0.75278  Biso   1.000  N
  C1       1.0000 0.08990  0.49590  0.53032  Biso   1.000  C
  C2       1.0000 0.41010  0.50410  0.03032  Biso   1.000  C
  C3       1.0000 0.75410  0.83990  0.78032  Biso   1.000  C
  C4       1.0000 0.74590  0.16010  0.28032  Biso   1.000  C
  C5       1.0000 0.41010  0.49590  0.96968  Biso   1.000  C
  C6       1.0000 0.08990  0.50410  0.46968  Biso   1.000  C
  C7       1.0000 0.74590  0.83990  0.71968  Biso   1.000  C
  C8       1.0000 0.75410  0.16010  0.21968  Biso   1.000  C
  C9       1.0000 0.58990  0.99590  0.03032  Biso   1.000  C
  C10      1.0000 0.91010  0.00410  0.53032  Biso   1.000  C
  C11      1.0000 0.25410  0.33990  0.28032  Biso   1.000  C
  C12      1.0000 0.24590  0.66010  0.78032  Biso   1.000  C
  C13      1.0000 0.91010  0.99590  0.46968  Biso   1.000  C
  C14      1.0000 0.58990  0.00410  0.96968  Biso   1.000  C
  C15      1.0000 0.24590  0.33990  0.21968  Biso   1.000  C
  C16      1.0000 0.25410  0.66010  0.71968  Biso   1.000  C
  C17      1.0000 0.91010  0.50410  0.46968  Biso   1.000  C
  C18      1.0000 0.58990  0.49590  0.96968  Biso   1.000  C
  C19      1.0000 0.74590  0.66010  0.71968  Biso   1.000  C
  C20      1.0000 0.75410  0.33990  0.21968  Biso   1.000  C
  C21      1.0000 0.58990  0.50410  0.03032  Biso   1.000  C
  C22      1.0000 0.91010  0.49590  0.53032  Biso   1.000  C
  C23      1.0000 0.75410  0.66010  0.78032  Biso   1.000  C
  C24      1.0000 0.74590  0.33990  0.28032  Biso   1.000  C
  C25      1.0000 0.41010  0.00410  0.96968  Biso   1.000  C
  C26      1.0000 0.08990  0.99590  0.46968  Biso   1.000  C
  C27      1.0000 0.24590  0.16010  0.21968  Biso   1.000  C
  C28      1.0000 0.25410  0.83990  0.71968  Biso   1.000  C
  C29      1.0000 0.08990  0.00410  0.53032  Biso   1.000  C
  C30      1.0000 0.41010  0.99590  0.03032  Biso   1.000  C
  C31      1.0000 0.25410  0.16010  0.28032  Biso   1.000  C
  C32      1.0000 0.24590  0.83990  0.78032  Biso   1.000  C
  C33      1.0000 0.13750  0.48630  0.54919  Biso   1.000  C
  C34      1.0000 0.36250  0.51370  0.04919  Biso   1.000  C
  C35      1.0000 0.76370  0.88750  0.79919  Biso   1.000  C
  C36      1.0000 0.73630  0.11250  0.29919  Biso   1.000  C
  C37      1.0000 0.36250  0.48630  0.95081  Biso   1.000  C
  C38      1.0000 0.13750  0.51370  0.45081  Biso   1.000  C
  C39      1.0000 0.73630  0.88750  0.70081  Biso   1.000  C
  C40      1.0000 0.76370  0.11250  0.20081  Biso   1.000  C
  C41      1.0000 0.63750  0.98630  0.04919  Biso   1.000  C
  C42      1.0000 0.86250  0.01370  0.54919  Biso   1.000  C
  C43      1.0000 0.26370  0.38750  0.29919  Biso   1.000  C
  C44      1.0000 0.23630  0.61250  0.79919  Biso   1.000  C
  C45      1.0000 0.86250  0.98630  0.45081  Biso   1.000  C
  C46      1.0000 0.63750  0.01370  0.95081  Biso   1.000  C
  C47      1.0000 0.23630  0.38750  0.20081  Biso   1.000  C
  C48      1.0000 0.26370  0.61250  0.70081  Biso   1.000  C
  C49      1.0000 0.86250  0.51370  0.45081  Biso   1.000  C
  C50      1.0000 0.63750  0.48630  0.95081  Biso   1.000  C
  C51      1.0000 0.73630  0.61250  0.70081  Biso   1.000  C
  C52      1.0000 0.76370  0.38750  0.20081  Biso   1.000  C
  C53      1.0000 0.63750  0.51370  0.04919  Biso   1.000  C
  C54      1.0000 0.86250  0.48630  0.54919  Biso   1.000  C
  C55      1.0000 0.76370  0.61250  0.79919  Biso   1.000  C
  C56      1.0000 0.73630  0.38750  0.29919  Biso   1.000  C
  C57      1.0000 0.36250  0.01370  0.95081  Biso   1.000  C
  C58      1.0000 0.13750  0.98630  0.45081  Biso   1.000  C
  C59      1.0000 0.23630  0.11250  0.20081  Biso   1.000  C
  C60      1.0000 0.26370  0.88750  0.70081  Biso   1.000  C
  C61      1.0000 0.13750  0.01370  0.54919  Biso   1.000  C
  C62      1.0000 0.36250  0.98630  0.04919  Biso   1.000  C
  C63      1.0000 0.26370  0.11250  0.29919  Biso   1.000  C
  C64      1.0000 0.23630  0.88750  0.79919  Biso   1.000  C
  C65      1.0000 0.16080  0.42230  0.55521  Biso   1.000  C
  C66      1.0000 0.33920  0.57770  0.05521  Biso   1.000  C
  C67      1.0000 0.82770  0.91080  0.80521  Biso   1.000  C
  C68      1.0000 0.67230  0.08920  0.30521  Biso   1.000  C
  C69      1.0000 0.33920  0.42230  0.94479  Biso   1.000  C
  C70      1.0000 0.16080  0.57770  0.44479  Biso   1.000  C
  C71      1.0000 0.67230  0.91080  0.69479  Biso   1.000  C
  C72      1.0000 0.82770  0.08920  0.19479  Biso   1.000  C
  C73      1.0000 0.66080  0.92230  0.05521  Biso   1.000  C
  C74      1.0000 0.83920  0.07770  0.55521  Biso   1.000  C
  C75      1.0000 0.32770  0.41080  0.30521  Biso   1.000  C
  C76      1.0000 0.17230  0.58920  0.80521  Biso   1.000  C
  C77      1.0000 0.83920  0.92230  0.44479  Biso   1.000  C
  C78      1.0000 0.66080  0.07770  0.94479  Biso   1.000  C
  C79      1.0000 0.17230  0.41080  0.19479  Biso   1.000  C
  C80      1.0000 0.32770  0.58920  0.69479  Biso   1.000  C
  C81      1.0000 0.83920  0.57770  0.44479  Biso   1.000  C
  C82      1.0000 0.66080  0.42230  0.94479  Biso   1.000  C
  C83      1.0000 0.67230  0.58920  0.69479  Biso   1.000  C
  C84      1.0000 0.82770  0.41080  0.19479  Biso   1.000  C
  C85      1.0000 0.66080  0.57770  0.05521  Biso   1.000  C
  C86      1.0000 0.83920  0.42230  0.55521  Biso   1.000  C
  C87      1.0000 0.82770  0.58920  0.80521  Biso   1.000  C
  C88      1.0000 0.67230  0.41080  0.30521  Biso   1.000  C
  C89      1.0000 0.33920  0.07770  0.94479  Biso   1.000  C
  C90      1.0000 0.16080  0.92230  0.44479  Biso   1.000  C
  C91      1.0000 0.17230  0.08920  0.19479  Biso   1.000  C
  C92      1.0000 0.32770  0.91080  0.69479  Biso   1.000  C
  C93      1.0000 0.16080  0.07770  0.55521  Biso   1.000  C
  C94      1.0000 0.33920  0.92230  0.05521  Biso   1.000  C
  C95      1.0000 0.32770  0.08920  0.30521  Biso   1.000  C
  C96      1.0000 0.17230  0.91080  0.80521  Biso   1.000  C
  H1       1.0000 0.14850  0.38400  0.54690  Biso   1.000  H
  H2       1.0000 0.35150  0.61600  0.04690  Biso   1.000  H
  H3       1.0000 0.86600  0.89850  0.79690  Biso   1.000  H
  H4       1.0000 0.63400  0.10150  0.29690  Biso   1.000  H
  H5       1.0000 0.35150  0.38400  0.95310  Biso   1.000  H
  H6       1.0000 0.14850  0.61600  0.45310  Biso   1.000  H
  H7       1.0000 0.63400  0.89850  0.70310  Biso   1.000  H
  H8       1.0000 0.86600  0.10150  0.20310  Biso   1.000  H
  H9       1.0000 0.64850  0.88400  0.04690  Biso   1.000  H
  H10      1.0000 0.85150  0.11600  0.54690  Biso   1.000  H
  H11      1.0000 0.36600  0.39850  0.29690  Biso   1.000  H
  H12      1.0000 0.13400  0.60150  0.79690  Biso   1.000  H
  H13      1.0000 0.85150  0.88400  0.45310  Biso   1.000  H
  H14      1.0000 0.64850  0.11600  0.95310  Biso   1.000  H
  H15      1.0000 0.13400  0.39850  0.20310  Biso   1.000  H
  H16      1.0000 0.36600  0.60150  0.70310  Biso   1.000  H
  H17      1.0000 0.85150  0.61600  0.45310  Biso   1.000  H
  H18      1.0000 0.64850  0.38400  0.95310  Biso   1.000  H
  H19      1.0000 0.63400  0.60150  0.70310  Biso   1.000  H
  H20      1.0000 0.86600  0.39850  0.20310  Biso   1.000  H
  H21      1.0000 0.64850  0.61600  0.04690  Biso   1.000  H
  H22      1.0000 0.85150  0.38400  0.54690  Biso   1.000  H
  H23      1.0000 0.86600  0.60150  0.79690  Biso   1.000  H
  H24      1.0000 0.63400  0.39850  0.29690  Biso   1.000  H
  H25      1.0000 0.35150  0.11600  0.95310  Biso   1.000  H
  H26      1.0000 0.14850  0.88400  0.45310  Biso   1.000  H
  H27      1.0000 0.13400  0.10150  0.20310  Biso   1.000  H
  H28      1.0000 0.36600  0.89850  0.70310  Biso   1.000  H
  H29      1.0000 0.14850  0.11600  0.54690  Biso   1.000  H
  H30      1.0000 0.35150  0.88400  0.04690  Biso   1.000  H
  H31      1.0000 0.36600  0.10150  0.29690  Biso   1.000  H
  H32      1.0000 0.13400  0.89850  0.79690  Biso   1.000  H
  C97      1.0000 0.15620  0.54170  0.56174  Biso   1.000  C
  C98      1.0000 0.34380  0.45830  0.06174  Biso   1.000  C
  C99      1.0000 0.70830  0.90620  0.81174  Biso   1.000  C
  C100     1.0000 0.79170  0.09380  0.31174  Biso   1.000  C
  C101     1.0000 0.34380  0.54170  0.93826  Biso   1.000  C
  C102     1.0000 0.15620  0.45830  0.43826  Biso   1.000  C
  C103     1.0000 0.79170  0.90620  0.68826  Biso   1.000  C
  C104     1.0000 0.70830  0.09380  0.18826  Biso   1.000  C
  C105     1.0000 0.65620  0.04170  0.06174  Biso   1.000  C
  C106     1.0000 0.84380  0.95830  0.56174  Biso   1.000  C
  C107     1.0000 0.20830  0.40620  0.31174  Biso   1.000  C
  C108     1.0000 0.29170  0.59380  0.81174  Biso   1.000  C
  C109     1.0000 0.84380  0.04170  0.43826  Biso   1.000  C
  C110     1.0000 0.65620  0.95830  0.93826  Biso   1.000  C
  C111     1.0000 0.29170  0.40620  0.18826  Biso   1.000  C
  C112     1.0000 0.20830  0.59380  0.68826  Biso   1.000  C
  C113     1.0000 0.84380  0.45830  0.43826  Biso   1.000  C
  C114     1.0000 0.65620  0.54170  0.93826  Biso   1.000  C
  C115     1.0000 0.79170  0.59380  0.68826  Biso   1.000  C
  C116     1.0000 0.70830  0.40620  0.18826  Biso   1.000  C
  C117     1.0000 0.65620  0.45830  0.06174  Biso   1.000  C
  C118     1.0000 0.84380  0.54170  0.56174  Biso   1.000  C
  C119     1.0000 0.70830  0.59380  0.81174  Biso   1.000  C
  C120     1.0000 0.79170  0.40620  0.31174  Biso   1.000  C
  C121     1.0000 0.34380  0.95830  0.93826  Biso   1.000  C
  C122     1.0000 0.15620  0.04170  0.43826  Biso   1.000  C
  C123     1.0000 0.29170  0.09380  0.18826  Biso   1.000  C
  C124     1.0000 0.20830  0.90620  0.68826  Biso   1.000  C
  C125     1.0000 0.15620  0.95830  0.56174  Biso   1.000  C
  C126     1.0000 0.34380  0.04170  0.06174  Biso   1.000  C
  C127     1.0000 0.20830  0.09380  0.31174  Biso   1.000  C
  C128     1.0000 0.29170  0.90620  0.81174  Biso   1.000  C
  H33      1.0000 0.14110  0.58570  0.55810  Biso   1.000  H
  H34      1.0000 0.35890  0.41430  0.05810  Biso   1.000  H
  H35      1.0000 0.66430  0.89110  0.80810  Biso   1.000  H
  H36      1.0000 0.83570  0.10890  0.30810  Biso   1.000  H
  H37      1.0000 0.35890  0.58570  0.94190  Biso   1.000  H
  H38      1.0000 0.14110  0.41430  0.44190  Biso   1.000  H
  H39      1.0000 0.83570  0.89110  0.69190  Biso   1.000  H
  H40      1.0000 0.66430  0.10890  0.19190  Biso   1.000  H
  H41      1.0000 0.64110  0.08570  0.05810  Biso   1.000  H
  H42      1.0000 0.85890  0.91430  0.55810  Biso   1.000  H
  H43      1.0000 0.16430  0.39110  0.30810  Biso   1.000  H
  H44      1.0000 0.33570  0.60890  0.80810  Biso   1.000  H
  H45      1.0000 0.85890  0.08570  0.44190  Biso   1.000  H
  H46      1.0000 0.64110  0.91430  0.94190  Biso   1.000  H
  H47      1.0000 0.33570  0.39110  0.19190  Biso   1.000  H
  H48      1.0000 0.16430  0.60890  0.69190  Biso   1.000  H
  H49      1.0000 0.85890  0.41430  0.44190  Biso   1.000  H
  H50      1.0000 0.64110  0.58570  0.94190  Biso   1.000  H
  H51      1.0000 0.83570  0.60890  0.69190  Biso   1.000  H
  H52      1.0000 0.66430  0.39110  0.19190  Biso   1.000  H
  H53      1.0000 0.64110  0.41430  0.05810  Biso   1.000  H
  H54      1.0000 0.85890  0.58570  0.55810  Biso   1.000  H
  H55      1.0000 0.66430  0.60890  0.80810  Biso   1.000  H
  H56      1.0000 0.83570  0.39110  0.30810  Biso   1.000  H
  H57      1.0000 0.35890  0.91430  0.94190  Biso   1.000  H
  H58      1.0000 0.14110  0.08570  0.44190  Biso   1.000  H
  H59      1.0000 0.33570  0.10890  0.19190  Biso   1.000  H
  H60      1.0000 0.16430  0.89110  0.69190  Biso   1.000  H
  H61      1.0000 0.14110  0.91430  0.55810  Biso   1.000  H
  H62      1.0000 0.35890  0.08570  0.05810  Biso   1.000  H
  H63      1.0000 0.16430  0.10890  0.30810  Biso   1.000  H
  H64      1.0000 0.33570  0.89110  0.80810  Biso   1.000  H
  C129     1.0000 0.20300  0.41370  0.57372  Biso   1.000  C
  C130     1.0000 0.29700  0.58630  0.07372  Biso   1.000  C
  C131     1.0000 0.83630  0.95300  0.82372  Biso   1.000  C
  C132     1.0000 0.66370  0.04700  0.32372  Biso   1.000  C
  C133     1.0000 0.29700  0.41370  0.92628  Biso   1.000  C
  C134     1.0000 0.20300  0.58630  0.42628  Biso   1.000  C
  C135     1.0000 0.66370  0.95300  0.67628  Biso   1.000  C
  C136     1.0000 0.83630  0.04700  0.17628  Biso   1.000  C
  C137     1.0000 0.70300  0.91370  0.07372  Biso   1.000  C
  C138     1.0000 0.79700  0.08630  0.57372  Biso   1.000  C
  C139     1.0000 0.33630  0.45300  0.32372  Biso   1.000  C
  C140     1.0000 0.16370  0.54700  0.82372  Biso   1.000  C
  C141     1.0000 0.79700  0.91370  0.42628  Biso   1.000  C
  C142     1.0000 0.70300  0.08630  0.92628  Biso   1.000  C
  C143     1.0000 0.16370  0.45300  0.17628  Biso   1.000  C
  C144     1.0000 0.33630  0.54700  0.67628  Biso   1.000  C
  C145     1.0000 0.79700  0.58630  0.42628  Biso   1.000  C
  C146     1.0000 0.70300  0.41370  0.92628  Biso   1.000  C
  C147     1.0000 0.66370  0.54700  0.67628  Biso   1.000  C
  C148     1.0000 0.83630  0.45300  0.17628  Biso   1.000  C
  C149     1.0000 0.70300  0.58630  0.07372  Biso   1.000  C
  C150     1.0000 0.79700  0.41370  0.57372  Biso   1.000  C
  C151     1.0000 0.83630  0.54700  0.82372  Biso   1.000  C
  C152     1.0000 0.66370  0.45300  0.32372  Biso   1.000  C
  C153     1.0000 0.29700  0.08630  0.92628  Biso   1.000  C
  C154     1.0000 0.20300  0.91370  0.42628  Biso   1.000  C
  C155     1.0000 0.16370  0.04700  0.17628  Biso   1.000  C
  C156     1.0000 0.33630  0.95300  0.67628  Biso   1.000  C
  C157     1.0000 0.20300  0.08630  0.57372  Biso   1.000  C
  C158     1.0000 0.29700  0.91370  0.07372  Biso   1.000  C
  C159     1.0000 0.33630  0.04700  0.32372  Biso   1.000  C
  C160     1.0000 0.16370  0.95300  0.82372  Biso   1.000  C
  H65      1.0000 0.21880  0.37000  0.57760  Biso   1.000  H
  H66      1.0000 0.28120  0.63000  0.07760  Biso   1.000  H
  H67      1.0000 0.88000  0.96880  0.82760  Biso   1.000  H
  H68      1.0000 0.62000  0.03120  0.32760  Biso   1.000  H
  H69      1.0000 0.28120  0.37000  0.92240  Biso   1.000  H
  H70      1.0000 0.21880  0.63000  0.42240  Biso   1.000  H
  H71      1.0000 0.62000  0.96880  0.67240  Biso   1.000  H
  H72      1.0000 0.88000  0.03120  0.17240  Biso   1.000  H
  H73      1.0000 0.71880  0.87000  0.07760  Biso   1.000  H
  H74      1.0000 0.78120  0.13000  0.57760  Biso   1.000  H
  H75      1.0000 0.38000  0.46880  0.32760  Biso   1.000  H
  H76      1.0000 0.12000  0.53120  0.82760  Biso   1.000  H
  H77      1.0000 0.78120  0.87000  0.42240  Biso   1.000  H
  H78      1.0000 0.71880  0.13000  0.92240  Biso   1.000  H
  H79      1.0000 0.12000  0.46880  0.17240  Biso   1.000  H
  H80      1.0000 0.38000  0.53120  0.67240  Biso   1.000  H
  H81      1.0000 0.78120  0.63000  0.42240  Biso   1.000  H
  H82      1.0000 0.71880  0.37000  0.92240  Biso   1.000  H
  H83      1.0000 0.62000  0.53120  0.67240  Biso   1.000  H
  H84      1.0000 0.88000  0.46880  0.17240  Biso   1.000  H
  H85      1.0000 0.71880  0.63000  0.07760  Biso   1.000  H
  H86      1.0000 0.78120  0.37000  0.57760  Biso   1.000  H
  H87      1.0000 0.88000  0.53120  0.82760  Biso   1.000  H
  H88      1.0000 0.62000  0.46880  0.32760  Biso   1.000  H
  H89      1.0000 0.28120  0.13000  0.92240  Biso   1.000  H
  H90      1.0000 0.21880  0.87000  0.42240  Biso   1.000  H
  H91      1.0000 0.12000  0.03120  0.17240  Biso   1.000  H
  H92      1.0000 0.38000  0.96880  0.67240  Biso   1.000  H
  H93      1.0000 0.21880  0.13000  0.57760  Biso   1.000  H
  H94      1.0000 0.28120  0.87000  0.07760  Biso   1.000  H
  H95      1.0000 0.38000  0.03120  0.32760  Biso   1.000  H
  H96      1.0000 0.12000  0.96880  0.82760  Biso   1.000  H
  C161     1.0000 0.19790  0.53200  0.57998  Biso   1.000  C
  C162     1.0000 0.30210  0.46800  0.07998  Biso   1.000  C
  C163     1.0000 0.71800  0.94790  0.82998  Biso   1.000  C
  C164     1.0000 0.78200  0.05210  0.32998  Biso   1.000  C
  C165     1.0000 0.30210  0.53200  0.92002  Biso   1.000  C
  C166     1.0000 0.19790  0.46800  0.42002  Biso   1.000  C
  C167     1.0000 0.78200  0.94790  0.67002  Biso   1.000  C
  C168     1.0000 0.71800  0.05210  0.17002  Biso   1.000  C
  C169     1.0000 0.69790  0.03200  0.07998  Biso   1.000  C
  C170     1.0000 0.80210  0.96800  0.57998  Biso   1.000  C
  C171     1.0000 0.21800  0.44790  0.32998  Biso   1.000  C
  C172     1.0000 0.28200  0.55210  0.82998  Biso   1.000  C
  C173     1.0000 0.80210  0.03200  0.42002  Biso   1.000  C
  C174     1.0000 0.69790  0.96800  0.92002  Biso   1.000  C
  C175     1.0000 0.28200  0.44790  0.17002  Biso   1.000  C
  C176     1.0000 0.21800  0.55210  0.67002  Biso   1.000  C
  C177     1.0000 0.80210  0.46800  0.42002  Biso   1.000  C
  C178     1.0000 0.69790  0.53200  0.92002  Biso   1.000  C
  C179     1.0000 0.78200  0.55210  0.67002  Biso   1.000  C
  C180     1.0000 0.71800  0.44790  0.17002  Biso   1.000  C
  C181     1.0000 0.69790  0.46800  0.07998  Biso   1.000  C
  C182     1.0000 0.80210  0.53200  0.57998  Biso   1.000  C
  C183     1.0000 0.71800  0.55210  0.82998  Biso   1.000  C
  C184     1.0000 0.78200  0.44790  0.32998  Biso   1.000  C
  C185     1.0000 0.30210  0.96800  0.92002  Biso   1.000  C
  C186     1.0000 0.19790  0.03200  0.42002  Biso   1.000  C
  C187     1.0000 0.28200  0.05210  0.17002  Biso   1.000  C
  C188     1.0000 0.21800  0.94790  0.67002  Biso   1.000  C
  C189     1.0000 0.19790  0.96800  0.57998  Biso   1.000  C
  C190     1.0000 0.30210  0.03200  0.07998  Biso   1.000  C
  C191     1.0000 0.21800  0.05210  0.32998  Biso   1.000  C
  C192     1.0000 0.28200  0.94790  0.82998  Biso   1.000  C
  H97      1.0000 0.21040  0.57030  0.58830  Biso   1.000  H
  H98      1.0000 0.28960  0.42970  0.08830  Biso   1.000  H
  H99      1.0000 0.67970  0.96040  0.83830  Biso   1.000  H
  H100     1.0000 0.82030  0.03960  0.33830  Biso   1.000  H
  H101     1.0000 0.28960  0.57030  0.91170  Biso   1.000  H
  H102     1.0000 0.21040  0.42970  0.41170  Biso   1.000  H
  H103     1.0000 0.82030  0.96040  0.66170  Biso   1.000  H
  H104     1.0000 0.67970  0.03960  0.16170  Biso   1.000  H
  H105     1.0000 0.71040  0.07030  0.08830  Biso   1.000  H
  H106     1.0000 0.78960  0.92970  0.58830  Biso   1.000  H
  H107     1.0000 0.17970  0.46040  0.33830  Biso   1.000  H
  H108     1.0000 0.32030  0.53960  0.83830  Biso   1.000  H
  H109     1.0000 0.78960  0.07030  0.41170  Biso   1.000  H
  H110     1.0000 0.71040  0.92970  0.91170  Biso   1.000  H
  H111     1.0000 0.32030  0.46040  0.16170  Biso   1.000  H
  H112     1.0000 0.17970  0.53960  0.66170  Biso   1.000  H
  H113     1.0000 0.78960  0.42970  0.41170  Biso   1.000  H
  H114     1.0000 0.71040  0.57030  0.91170  Biso   1.000  H
  H115     1.0000 0.82030  0.53960  0.66170  Biso   1.000  H
  H116     1.0000 0.67970  0.46040  0.16170  Biso   1.000  H
  H117     1.0000 0.71040  0.42970  0.08830  Biso   1.000  H
  H118     1.0000 0.78960  0.57030  0.58830  Biso   1.000  H
  H119     1.0000 0.67970  0.53960  0.83830  Biso   1.000  H
  H120     1.0000 0.82030  0.46040  0.33830  Biso   1.000  H
  H121     1.0000 0.28960  0.92970  0.91170  Biso   1.000  H
  H122     1.0000 0.21040  0.07030  0.41170  Biso   1.000  H
  H123     1.0000 0.32030  0.03960  0.16170  Biso   1.000  H
  H124     1.0000 0.17970  0.96040  0.66170  Biso   1.000  H
  H125     1.0000 0.21040  0.92970  0.58830  Biso   1.000  H
  H126     1.0000 0.28960  0.07030  0.08830  Biso   1.000  H
  H127     1.0000 0.17970  0.03960  0.33830  Biso   1.000  H
  H128     1.0000 0.32030  0.96040  0.83830  Biso   1.000  H
  C193     1.0000 0.22110  0.46990  0.58619  Biso   1.000  C
  C194     1.0000 0.27890  0.53010  0.08619  Biso   1.000  C
  C195     1.0000 0.78010  0.97110  0.83619  Biso   1.000  C
  C196     1.0000 0.71990  0.02890  0.33619  Biso   1.000  C
  C197     1.0000 0.27890  0.46990  0.91381  Biso   1.000  C
  C198     1.0000 0.22110  0.53010  0.41381  Biso   1.000  C
  C199     1.0000 0.71990  0.97110  0.66381  Biso   1.000  C
  C200     1.0000 0.78010  0.02890  0.16381  Biso   1.000  C
  C201     1.0000 0.72110  0.96990  0.08619  Biso   1.000  C
  C202     1.0000 0.77890  0.03010  0.58619  Biso   1.000  C
  C203     1.0000 0.28010  0.47110  0.33619  Biso   1.000  C
  C204     1.0000 0.21990  0.52890  0.83619  Biso   1.000  C
  C205     1.0000 0.77890  0.96990  0.41381  Biso   1.000  C
  C206     1.0000 0.72110  0.03010  0.91381  Biso   1.000  C
  C207     1.0000 0.21990  0.47110  0.16381  Biso   1.000  C
  C208     1.0000 0.28010  0.52890  0.66381  Biso   1.000  C
  C209     1.0000 0.77890  0.53010  0.41381  Biso   1.000  C
  C210     1.0000 0.72110  0.46990  0.91381  Biso   1.000  C
  C211     1.0000 0.71990  0.52890  0.66381  Biso   1.000  C
  C212     1.0000 0.78010  0.47110  0.16381  Biso   1.000  C
  C213     1.0000 0.72110  0.53010  0.08619  Biso   1.000  C
  C214     1.0000 0.77890  0.46990  0.58619  Biso   1.000  C
  C215     1.0000 0.78010  0.52890  0.83619  Biso   1.000  C
  C216     1.0000 0.71990  0.47110  0.33619  Biso   1.000  C
  C217     1.0000 0.27890  0.03010  0.91381  Biso   1.000  C
  C218     1.0000 0.22110  0.96990  0.41381  Biso   1.000  C
  C219     1.0000 0.21990  0.02890  0.16381  Biso   1.000  C
  C220     1.0000 0.28010  0.97110  0.66381  Biso   1.000  C
  C221     1.0000 0.22110  0.03010  0.58619  Biso   1.000  C
  C222     1.0000 0.27890  0.96990  0.08619  Biso   1.000  C
  C223     1.0000 0.28010  0.02890  0.33619  Biso   1.000  C
  C224     1.0000 0.21990  0.97110  0.83619  Biso   1.000  C
  C225     1.0000 0.26500  0.45820  0.60569  Biso   1.000  C
  C226     1.0000 0.23500  0.54180  0.10569  Biso   1.000  C
  C227     1.0000 0.79180  0.01500  0.85569  Biso   1.000  C
  C228     1.0000 0.70820  0.98500  0.35569  Biso   1.000  C
  C229     1.0000 0.23500  0.45820  0.89431  Biso   1.000  C
  C230     1.0000 0.26500  0.54180  0.39431  Biso   1.000  C
  C231     1.0000 0.70820  0.01500  0.64431  Biso   1.000  C
  C232     1.0000 0.79180  0.98500  0.14431  Biso   1.000  C
  C233     1.0000 0.76500  0.95820  0.10569  Biso   1.000  C
  C234     1.0000 0.73500  0.04180  0.60569  Biso   1.000  C
  C235     1.0000 0.29180  0.51500  0.35569  Biso   1.000  C
  C236     1.0000 0.20820  0.48500  0.85569  Biso   1.000  C
  C237     1.0000 0.73500  0.95820  0.39431  Biso   1.000  C
  C238     1.0000 0.76500  0.04180  0.89431  Biso   1.000  C
  C239     1.0000 0.20820  0.51500  0.14431  Biso   1.000  C
  C240     1.0000 0.29180  0.48500  0.64431  Biso   1.000  C
  C241     1.0000 0.73500  0.54180  0.39431  Biso   1.000  C
  C242     1.0000 0.76500  0.45820  0.89431  Biso   1.000  C
  C243     1.0000 0.70820  0.48500  0.64431  Biso   1.000  C
  C244     1.0000 0.79180  0.51500  0.14431  Biso   1.000  C
  C245     1.0000 0.76500  0.54180  0.10569  Biso   1.000  C
  C246     1.0000 0.73500  0.45820  0.60569  Biso   1.000  C
  C247     1.0000 0.79180  0.48500  0.85569  Biso   1.000  C
  C248     1.0000 0.70820  0.51500  0.35569  Biso   1.000  C
  C249     1.0000 0.23500  0.04180  0.89431  Biso   1.000  C
  C250     1.0000 0.26500  0.95820  0.39431  Biso   1.000  C
  C251     1.0000 0.20820  0.98500  0.14431  Biso   1.000  C
  C252     1.0000 0.29180  0.01500  0.64431  Biso   1.000  C
  C253     1.0000 0.26500  0.04180  0.60569  Biso   1.000  C
  C254     1.0000 0.23500  0.95820  0.10569  Biso   1.000  C
  C255     1.0000 0.29180  0.98500  0.35569  Biso   1.000  C
  C256     1.0000 0.20820  0.01500  0.85569  Biso   1.000  C
  C257     1.0000 0.25330  0.49670  0.62500  Biso   1.000  C
  C258     1.0000 0.24670  0.50330  0.12500  Biso   1.000  C
  C259     1.0000 0.75330  0.00330  0.87500  Biso   1.000  C
  C260     1.0000 0.74670  0.99670  0.37500  Biso   1.000  C
  C261     1.0000 0.24670  0.49670  0.87500  Biso   1.000  C
  C262     1.0000 0.25330  0.50330  0.37500  Biso   1.000  C
  C263     1.0000 0.74670  0.00330  0.62500  Biso   1.000  C
  C264     1.0000 0.75330  0.99670  0.12500  Biso   1.000  C
  C265     1.0000 0.74670  0.50330  0.37500  Biso   1.000  C
  C266     1.0000 0.75330  0.49670  0.87500  Biso   1.000  C
  C267     1.0000 0.74670  0.49670  0.62500  Biso   1.000  C
  C268     1.0000 0.75330  0.50330  0.12500  Biso   1.000  C
  C269     1.0000 0.24670  0.00330  0.87500  Biso   1.000  C
  C270     1.0000 0.25330  0.99670  0.37500  Biso   1.000  C
  C271     1.0000 0.24670  0.99670  0.12500  Biso   1.000  C
  C272     1.0000 0.25330  0.00330  0.62500  Biso   1.000  C
  H129     1.0000 0.21930  0.53070  0.62500  Biso   1.000  H
  H130     1.0000 0.28070  0.46930  0.12500  Biso   1.000  H
  H131     1.0000 0.71930  0.96930  0.87500  Biso   1.000  H
  H132     1.0000 0.78070  0.03070  0.37500  Biso   1.000  H
  H133     1.0000 0.28070  0.53070  0.87500  Biso   1.000  H
  H134     1.0000 0.21930  0.46930  0.37500  Biso   1.000  H
  H135     1.0000 0.78070  0.96930  0.62500  Biso   1.000  H
  H136     1.0000 0.71930  0.03070  0.12500  Biso   1.000  H
  H137     1.0000 0.78070  0.46930  0.37500  Biso   1.000  H
  H138     1.0000 0.71930  0.53070  0.87500  Biso   1.000  H
  H139     1.0000 0.78070  0.53070  0.62500  Biso   1.000  H
  H140     1.0000 0.71930  0.46930  0.12500  Biso   1.000  H
  H141     1.0000 0.28070  0.96930  0.87500  Biso   1.000  H
  H142     1.0000 0.21930  0.03070  0.37500  Biso   1.000  H
  H143     1.0000 0.28070  0.03070  0.12500  Biso   1.000  H
  H144     1.0000 0.21930  0.96930  0.62500  Biso   1.000  H
  C273     1.0000 0.31560  0.40930  0.60609  Biso   1.000  C
  C274     1.0000 0.18440  0.59070  0.10609  Biso   1.000  C
  C275     1.0000 0.84070  0.06560  0.85609  Biso   1.000  C
  C276     1.0000 0.65930  0.93440  0.35609  Biso   1.000  C
  C277     1.0000 0.18440  0.40930  0.89391  Biso   1.000  C
  C278     1.0000 0.31560  0.59070  0.39391  Biso   1.000  C
  C279     1.0000 0.65930  0.06560  0.64391  Biso   1.000  C
  C280     1.0000 0.84070  0.93440  0.14391  Biso   1.000  C
  C281     1.0000 0.81560  0.90930  0.10609  Biso   1.000  C
  C282     1.0000 0.68440  0.09070  0.60609  Biso   1.000  C
  C283     1.0000 0.34070  0.56560  0.35609  Biso   1.000  C
  C284     1.0000 0.15930  0.43440  0.85609  Biso   1.000  C
  C285     1.0000 0.68440  0.90930  0.39391  Biso   1.000  C
  C286     1.0000 0.81560  0.09070  0.89391  Biso   1.000  C
  C287     1.0000 0.15930  0.56560  0.14391  Biso   1.000  C
  C288     1.0000 0.34070  0.43440  0.64391  Biso   1.000  C
  C289     1.0000 0.68440  0.59070  0.39391  Biso   1.000  C
  C290     1.0000 0.81560  0.40930  0.89391  Biso   1.000  C
  C291     1.0000 0.65930  0.43440  0.64391  Biso   1.000  C
  C292     1.0000 0.84070  0.56560  0.14391  Biso   1.000  C
  C293     1.0000 0.81560  0.59070  0.10609  Biso   1.000  C
  C294     1.0000 0.68440  0.40930  0.60609  Biso   1.000  C
  C295     1.0000 0.84070  0.43440  0.85609  Biso   1.000  C
  C296     1.0000 0.65930  0.56560  0.35609  Biso   1.000  C
  C297     1.0000 0.18440  0.09070  0.89391  Biso   1.000  C
  C298     1.0000 0.31560  0.90930  0.39391  Biso   1.000  C
  C299     1.0000 0.15930  0.93440  0.14391  Biso   1.000  C
  C300     1.0000 0.34070  0.06560  0.64391  Biso   1.000  C
  C301     1.0000 0.31560  0.09070  0.60609  Biso   1.000  C
  C302     1.0000 0.18440  0.90930  0.10609  Biso   1.000  C
  C303     1.0000 0.34070  0.93440  0.35609  Biso   1.000  C
  C304     1.0000 0.15930  0.06560  0.85609  Biso   1.000  C
  H145     1.0000 0.32490  0.38410  0.59340  Biso   1.000  H
  H146     1.0000 0.17510  0.61590  0.09340  Biso   1.000  H
  H147     1.0000 0.86590  0.07490  0.84340  Biso   1.000  H
  H148     1.0000 0.63410  0.92510  0.34340  Biso   1.000  H
  H149     1.0000 0.17510  0.38410  0.90660  Biso   1.000  H
  H150     1.0000 0.32490  0.61590  0.40660  Biso   1.000  H
  H151     1.0000 0.63410  0.07490  0.65660  Biso   1.000  H
  H152     1.0000 0.86590  0.92510  0.15660  Biso   1.000  H
  H153     1.0000 0.82490  0.88410  0.09340  Biso   1.000  H
  H154     1.0000 0.67510  0.11590  0.59340  Biso   1.000  H
  H155     1.0000 0.36590  0.57490  0.34340  Biso   1.000  H
  H156     1.0000 0.13410  0.42510  0.84340  Biso   1.000  H
  H157     1.0000 0.67510  0.88410  0.40660  Biso   1.000  H
  H158     1.0000 0.82490  0.11590  0.90660  Biso   1.000  H
  H159     1.0000 0.13410  0.57490  0.15660  Biso   1.000  H
  H160     1.0000 0.36590  0.42510  0.65660  Biso   1.000  H
  H161     1.0000 0.67510  0.61590  0.40660  Biso   1.000  H
  H162     1.0000 0.82490  0.38410  0.90660  Biso   1.000  H
  H163     1.0000 0.63410  0.42510  0.65660  Biso   1.000  H
  H164     1.0000 0.86590  0.57490  0.15660  Biso   1.000  H
  H165     1.0000 0.82490  0.61590  0.09340  Biso   1.000  H
  H166     1.0000 0.67510  0.38410  0.59340  Biso   1.000  H
  H167     1.0000 0.86590  0.42510  0.84340  Biso   1.000  H
  H168     1.0000 0.63410  0.57490  0.34340  Biso   1.000  H
  H169     1.0000 0.17510  0.11590  0.90660  Biso   1.000  H
  H170     1.0000 0.32490  0.88410  0.40660  Biso   1.000  H
  H171     1.0000 0.13410  0.92510  0.15660  Biso   1.000  H
  H172     1.0000 0.36590  0.07490  0.65660  Biso   1.000  H
  H173     1.0000 0.32490  0.11590  0.59340  Biso   1.000  H
  H174     1.0000 0.17510  0.88410  0.09340  Biso   1.000  H
  H175     1.0000 0.36590  0.92510  0.34340  Biso   1.000  H
  H176     1.0000 0.13410  0.07490  0.84340  Biso   1.000  H
  C305     1.0000 0.35350  0.39650  0.62500  Biso   1.000  C
  C306     1.0000 0.14650  0.60350  0.12500  Biso   1.000  C
  C307     1.0000 0.85350  0.10350  0.87500  Biso   1.000  C
  C308     1.0000 0.64650  0.89650  0.37500  Biso   1.000  C
  C309     1.0000 0.14650  0.39650  0.87500  Biso   1.000  C
  C310     1.0000 0.35350  0.60350  0.37500  Biso   1.000  C
  C311     1.0000 0.64650  0.10350  0.62500  Biso   1.000  C
  C312     1.0000 0.85350  0.89650  0.12500  Biso   1.000  C
  C313     1.0000 0.64650  0.60350  0.37500  Biso   1.000  C
  C314     1.0000 0.85350  0.39650  0.87500  Biso   1.000  C
  C315     1.0000 0.64650  0.39650  0.62500  Biso   1.000  C
  C316     1.0000 0.85350  0.60350  0.12500  Biso   1.000  C
  C317     1.0000 0.14650  0.10350  0.87500  Biso   1.000  C
  C318     1.0000 0.35350  0.89650  0.37500  Biso   1.000  C
  C319     1.0000 0.14650  0.89650  0.12500  Biso   1.000  C
  C320     1.0000 0.35350  0.10350  0.62500  Biso   1.000  C
  C321     1.0000 0.40780  0.34220  0.62500  Biso   1.000  C
  C322     1.0000 0.09220  0.65780  0.12500  Biso   1.000  C
  C323     1.0000 0.90780  0.15780  0.87500  Biso   1.000  C
  C324     1.0000 0.59220  0.84220  0.37500  Biso   1.000  C
  C325     1.0000 0.09220  0.34220  0.87500  Biso   1.000  C
  C326     1.0000 0.40780  0.65780  0.37500  Biso   1.000  C
  C327     1.0000 0.59220  0.15780  0.62500  Biso   1.000  C
  C328     1.0000 0.90780  0.84220  0.12500  Biso   1.000  C
  C329     1.0000 0.59220  0.65780  0.37500  Biso   1.000  C
  C330     1.0000 0.90780  0.34220  0.87500  Biso   1.000  C
  C331     1.0000 0.59220  0.34220  0.62500  Biso   1.000  C
  C332     1.0000 0.90780  0.65780  0.12500  Biso   1.000  C
  C333     1.0000 0.09220  0.15780  0.87500  Biso   1.000  C
  C334     1.0000 0.40780  0.84220  0.37500  Biso   1.000  C
  C335     1.0000 0.09220  0.84220  0.12500  Biso   1.000  C
  C336     1.0000 0.40780  0.15780  0.62500  Biso   1.000  C
  C337     1.0000 0.00000  0.28700  0.51660  Biso   1.000  C
  C338     1.0000 0.50000  0.71300  0.01660  Biso   1.000  C
  C339     1.0000 0.96300  0.75000  0.76660  Biso   1.000  C
  C340     1.0000 0.53700  0.25000  0.26660  Biso   1.000  C
  C341     1.0000 0.50000  0.28700  0.98340  Biso   1.000  C
  C342     1.0000 0.00000  0.71300  0.48340  Biso   1.000  C
  C343     1.0000 0.53700  0.75000  0.73340  Biso   1.000  C
  C344     1.0000 0.96300  0.25000  0.23340  Biso   1.000  C
  C345     1.0000 0.50000  0.78700  0.01660  Biso   1.000  C
  C346     1.0000 0.00000  0.21300  0.51660  Biso   1.000  C
  C347     1.0000 0.46300  0.25000  0.26660  Biso   1.000  C
  C348     1.0000 0.03700  0.75000  0.76660  Biso   1.000  C
  C349     1.0000 0.00000  0.78700  0.48340  Biso   1.000  C
  C350     1.0000 0.50000  0.21300  0.98340  Biso   1.000  C
  C351     1.0000 0.03700  0.25000  0.23340  Biso   1.000  C
  C352     1.0000 0.46300  0.75000  0.73340  Biso   1.000  C
  H177     1.0000 0.00000  0.31190  0.52970  Biso   1.000  H
  H178     1.0000 0.50000  0.68810  0.02970  Biso   1.000  H
  H179     1.0000 0.93810  0.75000  0.77970  Biso   1.000  H
  H180     1.0000 0.56190  0.25000  0.27970  Biso   1.000  H
  H181     1.0000 0.50000  0.31190  0.97030  Biso   1.000  H
  H182     1.0000 0.00000  0.68810  0.47030  Biso   1.000  H
  H183     1.0000 0.56190  0.75000  0.72030  Biso   1.000  H
  H184     1.0000 0.93810  0.25000  0.22030  Biso   1.000  H
  H185     1.0000 0.50000  0.81190  0.02970  Biso   1.000  H
  H186     1.0000 0.00000  0.18810  0.52970  Biso   1.000  H
  H187     1.0000 0.43810  0.25000  0.27970  Biso   1.000  H
  H188     1.0000 0.06190  0.75000  0.77970  Biso   1.000  H
  H189     1.0000 0.00000  0.81190  0.47030  Biso   1.000  H
  H190     1.0000 0.50000  0.18810  0.97030  Biso   1.000  H
  H191     1.0000 0.06190  0.25000  0.22030  Biso   1.000  H
  H192     1.0000 0.43810  0.75000  0.72030  Biso   1.000  H
  C353     1.0000 0.00000  0.28910  0.47610  Biso   1.000  C
  C354     1.0000 0.50000  0.71090  0.97610  Biso   1.000  C
  C355     1.0000 0.96090  0.75000  0.72610  Biso   1.000  C
  C356     1.0000 0.53910  0.25000  0.22610  Biso   1.000  C
  C357     1.0000 0.50000  0.28910  0.02390  Biso   1.000  C
  C358     1.0000 0.00000  0.71090  0.52390  Biso   1.000  C
  C359     1.0000 0.53910  0.75000  0.77390  Biso   1.000  C
  C360     1.0000 0.96090  0.25000  0.27390  Biso   1.000  C
  C361     1.0000 0.50000  0.78910  0.97610  Biso   1.000  C
  C362     1.0000 0.00000  0.21090  0.47610  Biso   1.000  C
  C363     1.0000 0.46090  0.25000  0.22610  Biso   1.000  C
  C364     1.0000 0.03910  0.75000  0.72610  Biso   1.000  C
  C365     1.0000 0.00000  0.78910  0.52390  Biso   1.000  C
  C366     1.0000 0.50000  0.21090  0.02390  Biso   1.000  C
  C367     1.0000 0.03910  0.25000  0.27390  Biso   1.000  C
  C368     1.0000 0.46090  0.75000  0.77390  Biso   1.000  C
  H193     1.0000 0.00000  0.31520  0.46330  Biso   1.000  H
  H194     1.0000 0.50000  0.68480  0.96330  Biso   1.000  H
  H195     1.0000 0.93480  0.75000  0.71330  Biso   1.000  H
  H196     1.0000 0.56520  0.25000  0.21330  Biso   1.000  H
  H197     1.0000 0.50000  0.31520  0.03670  Biso   1.000  H
  H198     1.0000 0.00000  0.68480  0.53670  Biso   1.000  H
  H199     1.0000 0.56520  0.75000  0.78670  Biso   1.000  H
  H200     1.0000 0.93480  0.25000  0.28670  Biso   1.000  H
  H201     1.0000 0.50000  0.81520  0.96330  Biso   1.000  H
  H202     1.0000 0.00000  0.18480  0.46330  Biso   1.000  H
  H203     1.0000 0.43480  0.25000  0.21330  Biso   1.000  H
  H204     1.0000 0.06520  0.75000  0.71330  Biso   1.000  H
  H205     1.0000 0.00000  0.81520  0.53670  Biso   1.000  H
  H206     1.0000 0.50000  0.18480  0.03670  Biso   1.000  H
  H207     1.0000 0.06520  0.25000  0.28670  Biso   1.000  H
  H208     1.0000 0.43480  0.75000  0.78670  Biso   1.000  H
  H209     1.0000 0.47060  0.27930  0.55960  Biso   1.000  H
  H210     1.0000 0.02940  0.72070  0.05960  Biso   1.000  H
  H211     1.0000 0.97070  0.22060  0.80960  Biso   1.000  H
  H212     1.0000 0.52930  0.77940  0.30960  Biso   1.000  H
  H213     1.0000 0.02940  0.27930  0.94040  Biso   1.000  H
  H214     1.0000 0.47060  0.72070  0.44040  Biso   1.000  H
  H215     1.0000 0.52930  0.22060  0.69040  Biso   1.000  H
  H216     1.0000 0.97070  0.77940  0.19040  Biso   1.000  H
  H217     1.0000 0.97060  0.77930  0.05960  Biso   1.000  H
  H218     1.0000 0.52940  0.22070  0.55960  Biso   1.000  H
  H219     1.0000 0.47070  0.72060  0.30960  Biso   1.000  H
  H220     1.0000 0.02930  0.27940  0.80960  Biso   1.000  H
  H221     1.0000 0.52940  0.77930  0.44040  Biso   1.000  H
  H222     1.0000 0.97060  0.22070  0.94040  Biso   1.000  H
  H223     1.0000 0.02930  0.72060  0.19040  Biso   1.000  H
  H224     1.0000 0.47070  0.27940  0.69040  Biso   1.000  H
  H225     1.0000 0.52940  0.72070  0.44040  Biso   1.000  H
  H226     1.0000 0.97060  0.27930  0.94040  Biso   1.000  H
  H227     1.0000 0.52930  0.27940  0.69040  Biso   1.000  H
  H228     1.0000 0.97070  0.72060  0.19040  Biso   1.000  H
  H229     1.0000 0.97060  0.72070  0.05960  Biso   1.000  H
  H230     1.0000 0.52940  0.27930  0.55960  Biso   1.000  H
  H231     1.0000 0.97070  0.27940  0.80960  Biso   1.000  H
  H232     1.0000 0.52930  0.72060  0.30960  Biso   1.000  H
  H233     1.0000 0.02940  0.22070  0.94040  Biso   1.000  H
  H234     1.0000 0.47060  0.77930  0.44040  Biso   1.000  H
  H235     1.0000 0.02930  0.77940  0.19040  Biso   1.000  H
  H236     1.0000 0.47070  0.22060  0.69040  Biso   1.000  H
  H237     1.0000 0.47060  0.22070  0.55960  Biso   1.000  H
  H238     1.0000 0.02940  0.77930  0.05960  Biso   1.000  H
  H239     1.0000 0.47070  0.77940  0.30960  Biso   1.000  H
  H240     1.0000 0.02930  0.22060  0.80960  Biso   1.000  H
  C369     1.0000 0.05940  0.28590  0.49183  Biso   1.000  C
  C370     1.0000 0.44060  0.71410  0.99183  Biso   1.000  C
  C371     1.0000 0.96410  0.80940  0.74183  Biso   1.000  C
  C372     1.0000 0.53590  0.19060  0.24183  Biso   1.000  C
  C373     1.0000 0.44060  0.28590  0.00817  Biso   1.000  C
  C374     1.0000 0.05940  0.71410  0.50817  Biso   1.000  C
  C375     1.0000 0.53590  0.80940  0.75817  Biso   1.000  C
  C376     1.0000 0.96410  0.19060  0.25817  Biso   1.000  C
  C377     1.0000 0.55940  0.78590  0.99183  Biso   1.000  C
  C378     1.0000 0.94060  0.21410  0.49183  Biso   1.000  C
  C379     1.0000 0.46410  0.30940  0.24183  Biso   1.000  C
  C380     1.0000 0.03590  0.69060  0.74183  Biso   1.000  C
  C381     1.0000 0.94060  0.78590  0.50817  Biso   1.000  C
  C382     1.0000 0.55940  0.21410  0.00817  Biso   1.000  C
  C383     1.0000 0.03590  0.30940  0.25817  Biso   1.000  C
  C384     1.0000 0.46410  0.69060  0.75817  Biso   1.000  C
  C385     1.0000 0.94060  0.71410  0.50817  Biso   1.000  C
  C386     1.0000 0.55940  0.28590  0.00817  Biso   1.000  C
  C387     1.0000 0.53590  0.69060  0.75817  Biso   1.000  C
  C388     1.0000 0.96410  0.30940  0.25817  Biso   1.000  C
  C389     1.0000 0.55940  0.71410  0.99183  Biso   1.000  C
  C390     1.0000 0.94060  0.28590  0.49183  Biso   1.000  C
  C391     1.0000 0.96410  0.69060  0.74183  Biso   1.000  C
  C392     1.0000 0.53590  0.30940  0.24183  Biso   1.000  C
  C393     1.0000 0.44060  0.21410  0.00817  Biso   1.000  C
  C394     1.0000 0.05940  0.78590  0.50817  Biso   1.000  C
  C395     1.0000 0.03590  0.19060  0.25817  Biso   1.000  C
  C396     1.0000 0.46410  0.80940  0.75817  Biso   1.000  C
  C397     1.0000 0.05940  0.21410  0.49183  Biso   1.000  C
  C398     1.0000 0.44060  0.78590  0.99183  Biso   1.000  C
  C399     1.0000 0.46410  0.19060  0.24183  Biso   1.000  C
  C400     1.0000 0.03590  0.80940  0.74183  Biso   1.000  C
  H241     1.0000 0.09890  0.31060  0.48820  Biso   1.000  H
  H242     1.0000 0.40110  0.68940  0.98820  Biso   1.000  H
  H243     1.0000 0.93940  0.84890  0.73820  Biso   1.000  H
  H244     1.0000 0.56060  0.15110  0.23820  Biso   1.000  H
  H245     1.0000 0.40110  0.31060  0.01180  Biso   1.000  H
  H246     1.0000 0.09890  0.68940  0.51180  Biso   1.000  H
  H247     1.0000 0.56060  0.84890  0.76180  Biso   1.000  H
  H248     1.0000 0.93940  0.15110  0.26180  Biso   1.000  H
  H249     1.0000 0.59890  0.81060  0.98820  Biso   1.000  H
  H250     1.0000 0.90110  0.18940  0.48820  Biso   1.000  H
  H251     1.0000 0.43940  0.34890  0.23820  Biso   1.000  H
  H252     1.0000 0.06060  0.65110  0.73820  Biso   1.000  H
  H253     1.0000 0.90110  0.81060  0.51180  Biso   1.000  H
  H254     1.0000 0.59890  0.18940  0.01180  Biso   1.000  H
  H255     1.0000 0.06060  0.34890  0.26180  Biso   1.000  H
  H256     1.0000 0.43940  0.65110  0.76180  Biso   1.000  H
  H257     1.0000 0.90110  0.68940  0.51180  Biso   1.000  H
  H258     1.0000 0.59890  0.31060  0.01180  Biso   1.000  H
  H259     1.0000 0.56060  0.65110  0.76180  Biso   1.000  H
  H260     1.0000 0.93940  0.34890  0.26180  Biso   1.000  H
  H261     1.0000 0.59890  0.68940  0.98820  Biso   1.000  H
  H262     1.0000 0.90110  0.31060  0.48820  Biso   1.000  H
  H263     1.0000 0.93940  0.65110  0.73820  Biso   1.000  H
  H264     1.0000 0.56060  0.34890  0.23820  Biso   1.000  H
  H265     1.0000 0.40110  0.18940  0.01180  Biso   1.000  H
  H266     1.0000 0.09890  0.81060  0.51180  Biso   1.000  H
  H267     1.0000 0.06060  0.15110  0.26180  Biso   1.000  H
  H268     1.0000 0.43940  0.84890  0.76180  Biso   1.000  H
  H269     1.0000 0.09890  0.18940  0.48820  Biso   1.000  H
  H270     1.0000 0.40110  0.81060  0.98820  Biso   1.000  H
  H271     1.0000 0.43940  0.15110  0.23820  Biso   1.000  H
  H272     1.0000 0.06060  0.84890  0.73820  Biso   1.000  H
