data_image0
_cell_length_a       19.511
_cell_length_b       19.511
_cell_length_c       60.34
_cell_angle_alpha    90
_cell_angle_beta     90
_cell_angle_gamma    90

_symmetry_space_group_name_H-M    "P 1"
_symmetry_int_tables_number       1

loop_
  _symmetry_equiv_pos_as_xyz
  'x, y, z'

loop_
  _atom_site_label
  _atom_site_occupancy
  _atom_site_fract_x
  _atom_site_fract_y
  _atom_site_fract_z
  _atom_site_thermal_displace_type
  _atom_site_B_iso_or_equiv
  _atom_site_type_symbol
  Cu1      1.0000 0.31676  0.25000  0.24729  Biso   1.000  Cu
  Cu2      1.0000 0.68324  0.25000  0.24729  Biso   1.000  Cu
  Cu3      1.0000 0.31676  0.75000  0.75271  Biso   1.000  Cu
  Cu4      1.0000 0.68324  0.75000  0.75271  Biso   1.000  Cu
  Cu5      1.0000 0.00000  0.93324  0.50271  Biso   1.000  Cu
  Cu6      1.0000 0.50000  0.06676  0.00271  Biso   1.000  Cu
  Cu7      1.0000 0.50000  0.93324  0.99729  Biso   1.000  Cu
  Cu8      1.0000 0.00000  0.06676  0.49729  Biso   1.000  Cu
  Cu9      1.0000 0.81676  0.75000  0.74729  Biso   1.000  Cu
  Cu10     1.0000 0.18324  0.75000  0.74729  Biso   1.000  Cu
  Cu11     1.0000 0.81676  0.25000  0.25271  Biso   1.000  Cu
  Cu12     1.0000 0.18324  0.25000  0.25271  Biso   1.000  Cu
  Cu13     1.0000 0.50000  0.43324  0.00271  Biso   1.000  Cu
  Cu14     1.0000 0.00000  0.56676  0.50271  Biso   1.000  Cu
  Cu15     1.0000 0.00000  0.43324  0.49729  Biso   1.000  Cu
  Cu16     1.0000 0.50000  0.56676  0.99729  Biso   1.000  Cu
  Cu17     1.0000 0.50000  0.75000  0.35318  Biso   1.000  Cu
  Cu18     1.0000 0.50000  0.25000  0.64682  Biso   1.000  Cu
  Cu19     1.0000 0.50000  0.75000  0.39682  Biso   1.000  Cu
  Cu20     1.0000 0.00000  0.25000  0.89682  Biso   1.000  Cu
  Cu21     1.0000 0.00000  0.75000  0.10318  Biso   1.000  Cu
  Cu22     1.0000 0.50000  0.25000  0.60318  Biso   1.000  Cu
  Cu23     1.0000 0.00000  0.25000  0.85318  Biso   1.000  Cu
  Cu24     1.0000 0.00000  0.75000  0.14682  Biso   1.000  Cu
  O1       1.0000 0.19877  0.31970  0.27526  Biso   1.000  O
  O2       1.0000 0.80123  0.18030  0.27526  Biso   1.000  O
  O3       1.0000 0.19877  0.68030  0.72474  Biso   1.000  O
  O4       1.0000 0.80123  0.81970  0.72474  Biso   1.000  O
  O5       1.0000 0.93030  0.05123  0.47474  Biso   1.000  O
  O6       1.0000 0.56970  0.94877  0.97474  Biso   1.000  O
  O7       1.0000 0.56970  0.05123  0.02526  Biso   1.000  O
  O8       1.0000 0.93030  0.94877  0.52526  Biso   1.000  O
  O9       1.0000 0.69877  0.81970  0.77526  Biso   1.000  O
  O10      1.0000 0.30123  0.68030  0.77526  Biso   1.000  O
  O11      1.0000 0.69877  0.18030  0.22474  Biso   1.000  O
  O12      1.0000 0.30123  0.31970  0.22474  Biso   1.000  O
  O13      1.0000 0.43030  0.55123  0.97474  Biso   1.000  O
  O14      1.0000 0.06970  0.44877  0.47474  Biso   1.000  O
  O15      1.0000 0.06970  0.55123  0.52526  Biso   1.000  O
  O16      1.0000 0.43030  0.44877  0.02526  Biso   1.000  O
  O17      1.0000 0.80123  0.68030  0.72474  Biso   1.000  O
  O18      1.0000 0.19877  0.81970  0.72474  Biso   1.000  O
  O19      1.0000 0.80123  0.31970  0.27526  Biso   1.000  O
  O20      1.0000 0.19877  0.18030  0.27526  Biso   1.000  O
  O21      1.0000 0.56970  0.44877  0.02526  Biso   1.000  O
  O22      1.0000 0.93030  0.55123  0.52526  Biso   1.000  O
  O23      1.0000 0.93030  0.44877  0.47474  Biso   1.000  O
  O24      1.0000 0.56970  0.55123  0.97474  Biso   1.000  O
  O25      1.0000 0.30123  0.18030  0.22474  Biso   1.000  O
  O26      1.0000 0.69877  0.31970  0.22474  Biso   1.000  O
  O27      1.0000 0.30123  0.81970  0.77526  Biso   1.000  O
  O28      1.0000 0.69877  0.68030  0.77526  Biso   1.000  O
  O29      1.0000 0.06970  0.94877  0.52526  Biso   1.000  O
  O30      1.0000 0.43030  0.05123  0.02526  Biso   1.000  O
  O31      1.0000 0.43030  0.94877  0.97474  Biso   1.000  O
  O32      1.0000 0.06970  0.05123  0.47474  Biso   1.000  O
  O33      1.0000 0.31233  0.31980  0.27048  Biso   1.000  O
  O34      1.0000 0.68767  0.18020  0.27048  Biso   1.000  O
  O35      1.0000 0.31233  0.68020  0.72952  Biso   1.000  O
  O36      1.0000 0.68767  0.81980  0.72952  Biso   1.000  O
  O37      1.0000 0.93020  0.93767  0.47952  Biso   1.000  O
  O38      1.0000 0.56980  0.06233  0.97952  Biso   1.000  O
  O39      1.0000 0.56980  0.93767  0.02048  Biso   1.000  O
  O40      1.0000 0.93020  0.06233  0.52048  Biso   1.000  O
  O41      1.0000 0.81233  0.81980  0.77048  Biso   1.000  O
  O42      1.0000 0.18767  0.68020  0.77048  Biso   1.000  O
  O43      1.0000 0.81233  0.18020  0.22952  Biso   1.000  O
  O44      1.0000 0.18767  0.31980  0.22952  Biso   1.000  O
  O45      1.0000 0.43020  0.43767  0.97952  Biso   1.000  O
  O46      1.0000 0.06980  0.56233  0.47952  Biso   1.000  O
  O47      1.0000 0.06980  0.43767  0.52048  Biso   1.000  O
  O48      1.0000 0.43020  0.56233  0.02048  Biso   1.000  O
  O49      1.0000 0.68767  0.68020  0.72952  Biso   1.000  O
  O50      1.0000 0.31233  0.81980  0.72952  Biso   1.000  O
  O51      1.0000 0.68767  0.31980  0.27048  Biso   1.000  O
  O52      1.0000 0.31233  0.18020  0.27048  Biso   1.000  O
  O53      1.0000 0.56980  0.56233  0.02048  Biso   1.000  O
  O54      1.0000 0.93020  0.43767  0.52048  Biso   1.000  O
  O55      1.0000 0.93020  0.56233  0.47952  Biso   1.000  O
  O56      1.0000 0.56980  0.43767  0.97952  Biso   1.000  O
  O57      1.0000 0.18767  0.18020  0.22952  Biso   1.000  O
  O58      1.0000 0.81233  0.31980  0.22952  Biso   1.000  O
  O59      1.0000 0.18767  0.81980  0.77048  Biso   1.000  O
  O60      1.0000 0.81233  0.68020  0.77048  Biso   1.000  O
  O61      1.0000 0.06980  0.06233  0.52048  Biso   1.000  O
  O62      1.0000 0.43020  0.93767  0.02048  Biso   1.000  O
  O63      1.0000 0.43020  0.06233  0.97952  Biso   1.000  O
  O64      1.0000 0.06980  0.93767  0.47952  Biso   1.000  O
  O65      1.0000 0.43020  0.67990  0.35658  Biso   1.000  O
  O66      1.0000 0.56980  0.82010  0.35658  Biso   1.000  O
  O67      1.0000 0.43020  0.32010  0.64342  Biso   1.000  O
  O68      1.0000 0.56980  0.17990  0.64342  Biso   1.000  O
  O69      1.0000 0.57010  0.81980  0.39342  Biso   1.000  O
  O70      1.0000 0.92990  0.18020  0.89342  Biso   1.000  O
  O71      1.0000 0.92990  0.81980  0.10658  Biso   1.000  O
  O72      1.0000 0.57010  0.18020  0.60658  Biso   1.000  O
  O73      1.0000 0.93020  0.17990  0.85658  Biso   1.000  O
  O74      1.0000 0.06980  0.32010  0.85658  Biso   1.000  O
  O75      1.0000 0.93020  0.82010  0.14342  Biso   1.000  O
  O76      1.0000 0.06980  0.67990  0.14342  Biso   1.000  O
  O77      1.0000 0.07010  0.31980  0.89342  Biso   1.000  O
  O78      1.0000 0.42990  0.68020  0.39342  Biso   1.000  O
  O79      1.0000 0.42990  0.31980  0.60658  Biso   1.000  O
  O80      1.0000 0.07010  0.68020  0.10658  Biso   1.000  O
  O81      1.0000 0.56980  0.32010  0.64342  Biso   1.000  O
  O82      1.0000 0.43020  0.17990  0.64342  Biso   1.000  O
  O83      1.0000 0.56980  0.67990  0.35658  Biso   1.000  O
  O84      1.0000 0.43020  0.82010  0.35658  Biso   1.000  O
  O85      1.0000 0.92990  0.68020  0.10658  Biso   1.000  O
  O86      1.0000 0.57010  0.31980  0.60658  Biso   1.000  O
  O87      1.0000 0.57010  0.68020  0.39342  Biso   1.000  O
  O88      1.0000 0.92990  0.31980  0.89342  Biso   1.000  O
  O89      1.0000 0.06980  0.82010  0.14342  Biso   1.000  O
  O90      1.0000 0.93020  0.67990  0.14342  Biso   1.000  O
  O91      1.0000 0.06980  0.17990  0.85658  Biso   1.000  O
  O92      1.0000 0.93020  0.32010  0.85658  Biso   1.000  O
  O93      1.0000 0.42990  0.18020  0.60658  Biso   1.000  O
  O94      1.0000 0.07010  0.81980  0.10658  Biso   1.000  O
  O95      1.0000 0.07010  0.18020  0.89342  Biso   1.000  O
  O96      1.0000 0.42990  0.81980  0.39342  Biso   1.000  O
  O97      1.0000 0.50000  0.75000  0.31777  Biso   1.000  O
  O98      1.0000 0.50000  0.25000  0.68223  Biso   1.000  O
  O99      1.0000 0.50000  0.75000  0.43223  Biso   1.000  O
  O100     1.0000 0.00000  0.25000  0.93223  Biso   1.000  O
  O101     1.0000 0.00000  0.75000  0.06777  Biso   1.000  O
  O102     1.0000 0.50000  0.25000  0.56777  Biso   1.000  O
  O103     1.0000 0.00000  0.25000  0.81777  Biso   1.000  O
  O104     1.0000 0.00000  0.75000  0.18223  Biso   1.000  O
  H1       1.0000 0.47340  0.72320  0.31070  Biso   1.000  H
  H2       1.0000 0.52660  0.77680  0.31070  Biso   1.000  H
  H3       1.0000 0.47340  0.27680  0.68930  Biso   1.000  H
  H4       1.0000 0.52660  0.22320  0.68930  Biso   1.000  H
  H5       1.0000 0.52680  0.77660  0.43930  Biso   1.000  H
  H6       1.0000 0.97320  0.22340  0.93930  Biso   1.000  H
  H7       1.0000 0.97320  0.77660  0.06070  Biso   1.000  H
  H8       1.0000 0.52680  0.22340  0.56070  Biso   1.000  H
  H9       1.0000 0.97340  0.22320  0.81070  Biso   1.000  H
  H10      1.0000 0.02660  0.27680  0.81070  Biso   1.000  H
  H11      1.0000 0.97340  0.77680  0.18930  Biso   1.000  H
  H12      1.0000 0.02660  0.72320  0.18930  Biso   1.000  H
  H13      1.0000 0.02680  0.27660  0.93930  Biso   1.000  H
  H14      1.0000 0.47320  0.72340  0.43930  Biso   1.000  H
  H15      1.0000 0.47320  0.27660  0.56070  Biso   1.000  H
  H16      1.0000 0.02680  0.72340  0.06070  Biso   1.000  H
  H17      1.0000 0.52660  0.27680  0.68930  Biso   1.000  H
  H18      1.0000 0.47340  0.22320  0.68930  Biso   1.000  H
  H19      1.0000 0.52660  0.72320  0.31070  Biso   1.000  H
  H20      1.0000 0.47340  0.77680  0.31070  Biso   1.000  H
  H21      1.0000 0.97320  0.72340  0.06070  Biso   1.000  H
  H22      1.0000 0.52680  0.27660  0.56070  Biso   1.000  H
  H23      1.0000 0.52680  0.72340  0.43930  Biso   1.000  H
  H24      1.0000 0.97320  0.27660  0.93930  Biso   1.000  H
  H25      1.0000 0.02660  0.77680  0.18930  Biso   1.000  H
  H26      1.0000 0.97340  0.72320  0.18930  Biso   1.000  H
  H27      1.0000 0.02660  0.22320  0.81070  Biso   1.000  H
  H28      1.0000 0.97340  0.27680  0.81070  Biso   1.000  H
  H29      1.0000 0.47320  0.22340  0.56070  Biso   1.000  H
  H30      1.0000 0.02680  0.77660  0.06070  Biso   1.000  H
  H31      1.0000 0.02680  0.22340  0.93930  Biso   1.000  H
  H32      1.0000 0.47320  0.77660  0.43930  Biso   1.000  H
  N1       1.0000 0.43070  0.25000  0.24492  Biso   1.000  N
  N2       1.0000 0.56930  0.25000  0.24492  Biso   1.000  N
  N3       1.0000 0.43070  0.75000  0.75508  Biso   1.000  N
  N4       1.0000 0.56930  0.75000  0.75508  Biso   1.000  N
  N5       1.0000 0.00000  0.81930  0.50508  Biso   1.000  N
  N6       1.0000 0.50000  0.18070  0.00508  Biso   1.000  N
  N7       1.0000 0.50000  0.81930  0.99492  Biso   1.000  N
  N8       1.0000 0.00000  0.18070  0.49492  Biso   1.000  N
  N9       1.0000 0.93070  0.75000  0.74492  Biso   1.000  N
  N10      1.0000 0.06930  0.75000  0.74492  Biso   1.000  N
  N11      1.0000 0.93070  0.25000  0.25508  Biso   1.000  N
  N12      1.0000 0.06930  0.25000  0.25508  Biso   1.000  N
  N13      1.0000 0.50000  0.31930  0.00508  Biso   1.000  N
  N14      1.0000 0.00000  0.68070  0.50508  Biso   1.000  N
  N15      1.0000 0.00000  0.31930  0.49492  Biso   1.000  N
  N16      1.0000 0.50000  0.68070  0.99492  Biso   1.000  N
  C1       1.0000 0.25810  0.33890  0.28013  Biso   1.000  C
  C2       1.0000 0.74190  0.16110  0.28013  Biso   1.000  C
  C3       1.0000 0.25810  0.66110  0.71987  Biso   1.000  C
  C4       1.0000 0.74190  0.83890  0.71987  Biso   1.000  C
  C5       1.0000 0.91110  0.99190  0.46987  Biso   1.000  C
  C6       1.0000 0.58890  0.00810  0.96987  Biso   1.000  C
  C7       1.0000 0.58890  0.99190  0.03013  Biso   1.000  C
  C8       1.0000 0.91110  0.00810  0.53013  Biso   1.000  C
  C9       1.0000 0.75810  0.83890  0.78013  Biso   1.000  C
  C10      1.0000 0.24190  0.66110  0.78013  Biso   1.000  C
  C11      1.0000 0.75810  0.16110  0.21987  Biso   1.000  C
  C12      1.0000 0.24190  0.33890  0.21987  Biso   1.000  C
  C13      1.0000 0.41110  0.49190  0.96987  Biso   1.000  C
  C14      1.0000 0.08890  0.50810  0.46987  Biso   1.000  C
  C15      1.0000 0.08890  0.49190  0.53013  Biso   1.000  C
  C16      1.0000 0.41110  0.50810  0.03013  Biso   1.000  C
  C17      1.0000 0.74190  0.66110  0.71987  Biso   1.000  C
  C18      1.0000 0.25810  0.83890  0.71987  Biso   1.000  C
  C19      1.0000 0.74190  0.33890  0.28013  Biso   1.000  C
  C20      1.0000 0.25810  0.16110  0.28013  Biso   1.000  C
  C21      1.0000 0.58890  0.50810  0.03013  Biso   1.000  C
  C22      1.0000 0.91110  0.49190  0.53013  Biso   1.000  C
  C23      1.0000 0.91110  0.50810  0.46987  Biso   1.000  C
  C24      1.0000 0.58890  0.49190  0.96987  Biso   1.000  C
  C25      1.0000 0.24190  0.16110  0.21987  Biso   1.000  C
  C26      1.0000 0.75810  0.33890  0.21987  Biso   1.000  C
  C27      1.0000 0.24190  0.83890  0.78013  Biso   1.000  C
  C28      1.0000 0.75810  0.66110  0.78013  Biso   1.000  C
  C29      1.0000 0.08890  0.00810  0.53013  Biso   1.000  C
  C30      1.0000 0.41110  0.99190  0.03013  Biso   1.000  C
  C31      1.0000 0.41110  0.00810  0.96987  Biso   1.000  C
  C32      1.0000 0.08890  0.99190  0.46987  Biso   1.000  C
  C33      1.0000 0.26690  0.38640  0.29925  Biso   1.000  C
  C34      1.0000 0.73310  0.11360  0.29925  Biso   1.000  C
  C35      1.0000 0.26690  0.61360  0.70075  Biso   1.000  C
  C36      1.0000 0.73310  0.88640  0.70075  Biso   1.000  C
  C37      1.0000 0.86360  0.98310  0.45075  Biso   1.000  C
  C38      1.0000 0.63640  0.01690  0.95075  Biso   1.000  C
  C39      1.0000 0.63640  0.98310  0.04925  Biso   1.000  C
  C40      1.0000 0.86360  0.01690  0.54925  Biso   1.000  C
  C41      1.0000 0.76690  0.88640  0.79925  Biso   1.000  C
  C42      1.0000 0.23310  0.61360  0.79925  Biso   1.000  C
  C43      1.0000 0.76690  0.11360  0.20075  Biso   1.000  C
  C44      1.0000 0.23310  0.38640  0.20075  Biso   1.000  C
  C45      1.0000 0.36360  0.48310  0.95075  Biso   1.000  C
  C46      1.0000 0.13640  0.51690  0.45075  Biso   1.000  C
  C47      1.0000 0.13640  0.48310  0.54925  Biso   1.000  C
  C48      1.0000 0.36360  0.51690  0.04925  Biso   1.000  C
  C49      1.0000 0.73310  0.61360  0.70075  Biso   1.000  C
  C50      1.0000 0.26690  0.88640  0.70075  Biso   1.000  C
  C51      1.0000 0.73310  0.38640  0.29925  Biso   1.000  C
  C52      1.0000 0.26690  0.11360  0.29925  Biso   1.000  C
  C53      1.0000 0.63640  0.51690  0.04925  Biso   1.000  C
  C54      1.0000 0.86360  0.48310  0.54925  Biso   1.000  C
  C55      1.0000 0.86360  0.51690  0.45075  Biso   1.000  C
  C56      1.0000 0.63640  0.48310  0.95075  Biso   1.000  C
  C57      1.0000 0.23310  0.11360  0.20075  Biso   1.000  C
  C58      1.0000 0.76690  0.38640  0.20075  Biso   1.000  C
  C59      1.0000 0.23310  0.88640  0.79925  Biso   1.000  C
  C60      1.0000 0.76690  0.61360  0.79925  Biso   1.000  C
  C61      1.0000 0.13640  0.01690  0.54925  Biso   1.000  C
  C62      1.0000 0.36360  0.98310  0.04925  Biso   1.000  C
  C63      1.0000 0.36360  0.01690  0.95075  Biso   1.000  C
  C64      1.0000 0.13640  0.98310  0.45075  Biso   1.000  C
  C65      1.0000 0.33150  0.40950  0.30546  Biso   1.000  C
  C66      1.0000 0.66850  0.09050  0.30546  Biso   1.000  C
  C67      1.0000 0.33150  0.59050  0.69454  Biso   1.000  C
  C68      1.0000 0.66850  0.90950  0.69454  Biso   1.000  C
  C69      1.0000 0.84050  0.91850  0.44454  Biso   1.000  C
  C70      1.0000 0.65950  0.08150  0.94454  Biso   1.000  C
  C71      1.0000 0.65950  0.91850  0.05546  Biso   1.000  C
  C72      1.0000 0.84050  0.08150  0.55546  Biso   1.000  C
  C73      1.0000 0.83150  0.90950  0.80546  Biso   1.000  C
  C74      1.0000 0.16850  0.59050  0.80546  Biso   1.000  C
  C75      1.0000 0.83150  0.09050  0.19454  Biso   1.000  C
  C76      1.0000 0.16850  0.40950  0.19454  Biso   1.000  C
  C77      1.0000 0.34050  0.41850  0.94454  Biso   1.000  C
  C78      1.0000 0.15950  0.58150  0.44454  Biso   1.000  C
  C79      1.0000 0.15950  0.41850  0.55546  Biso   1.000  C
  C80      1.0000 0.34050  0.58150  0.05546  Biso   1.000  C
  C81      1.0000 0.66850  0.59050  0.69454  Biso   1.000  C
  C82      1.0000 0.33150  0.90950  0.69454  Biso   1.000  C
  C83      1.0000 0.66850  0.40950  0.30546  Biso   1.000  C
  C84      1.0000 0.33150  0.09050  0.30546  Biso   1.000  C
  C85      1.0000 0.65950  0.58150  0.05546  Biso   1.000  C
  C86      1.0000 0.84050  0.41850  0.55546  Biso   1.000  C
  C87      1.0000 0.84050  0.58150  0.44454  Biso   1.000  C
  C88      1.0000 0.65950  0.41850  0.94454  Biso   1.000  C
  C89      1.0000 0.16850  0.09050  0.19454  Biso   1.000  C
  C90      1.0000 0.83150  0.40950  0.19454  Biso   1.000  C
  C91      1.0000 0.16850  0.90950  0.80546  Biso   1.000  C
  C92      1.0000 0.83150  0.59050  0.80546  Biso   1.000  C
  C93      1.0000 0.15950  0.08150  0.55546  Biso   1.000  C
  C94      1.0000 0.34050  0.91850  0.05546  Biso   1.000  C
  C95      1.0000 0.34050  0.08150  0.94454  Biso   1.000  C
  C96      1.0000 0.15950  0.91850  0.44454  Biso   1.000  C
  H33      1.0000 0.36950  0.39660  0.29710  Biso   1.000  H
  H34      1.0000 0.63050  0.10340  0.29710  Biso   1.000  H
  H35      1.0000 0.36950  0.60340  0.70290  Biso   1.000  H
  H36      1.0000 0.63050  0.89660  0.70290  Biso   1.000  H
  H37      1.0000 0.85340  0.88050  0.45290  Biso   1.000  H
  H38      1.0000 0.64660  0.11950  0.95290  Biso   1.000  H
  H39      1.0000 0.64660  0.88050  0.04710  Biso   1.000  H
  H40      1.0000 0.85340  0.11950  0.54710  Biso   1.000  H
  H41      1.0000 0.86950  0.89660  0.79710  Biso   1.000  H
  H42      1.0000 0.13050  0.60340  0.79710  Biso   1.000  H
  H43      1.0000 0.86950  0.10340  0.20290  Biso   1.000  H
  H44      1.0000 0.13050  0.39660  0.20290  Biso   1.000  H
  H45      1.0000 0.35340  0.38050  0.95290  Biso   1.000  H
  H46      1.0000 0.14660  0.61950  0.45290  Biso   1.000  H
  H47      1.0000 0.14660  0.38050  0.54710  Biso   1.000  H
  H48      1.0000 0.35340  0.61950  0.04710  Biso   1.000  H
  H49      1.0000 0.63050  0.60340  0.70290  Biso   1.000  H
  H50      1.0000 0.36950  0.89660  0.70290  Biso   1.000  H
  H51      1.0000 0.63050  0.39660  0.29710  Biso   1.000  H
  H52      1.0000 0.36950  0.10340  0.29710  Biso   1.000  H
  H53      1.0000 0.64660  0.61950  0.04710  Biso   1.000  H
  H54      1.0000 0.85340  0.38050  0.54710  Biso   1.000  H
  H55      1.0000 0.85340  0.61950  0.45290  Biso   1.000  H
  H56      1.0000 0.64660  0.38050  0.95290  Biso   1.000  H
  H57      1.0000 0.13050  0.10340  0.20290  Biso   1.000  H
  H58      1.0000 0.86950  0.39660  0.20290  Biso   1.000  H
  H59      1.0000 0.13050  0.89660  0.79710  Biso   1.000  H
  H60      1.0000 0.86950  0.60340  0.79710  Biso   1.000  H
  H61      1.0000 0.14660  0.11950  0.54710  Biso   1.000  H
  H62      1.0000 0.35340  0.88050  0.04710  Biso   1.000  H
  H63      1.0000 0.35340  0.11950  0.95290  Biso   1.000  H
  H64      1.0000 0.14660  0.88050  0.45290  Biso   1.000  H
  C97      1.0000 0.21130  0.40730  0.31139  Biso   1.000  C
  C98      1.0000 0.78870  0.09270  0.31139  Biso   1.000  C
  C99      1.0000 0.21130  0.59270  0.68861  Biso   1.000  C
  C100     1.0000 0.78870  0.90730  0.68861  Biso   1.000  C
  C101     1.0000 0.84270  0.03870  0.43861  Biso   1.000  C
  C102     1.0000 0.65730  0.96130  0.93861  Biso   1.000  C
  C103     1.0000 0.65730  0.03870  0.06139  Biso   1.000  C
  C104     1.0000 0.84270  0.96130  0.56139  Biso   1.000  C
  C105     1.0000 0.71130  0.90730  0.81139  Biso   1.000  C
  C106     1.0000 0.28870  0.59270  0.81139  Biso   1.000  C
  C107     1.0000 0.71130  0.09270  0.18861  Biso   1.000  C
  C108     1.0000 0.28870  0.40730  0.18861  Biso   1.000  C
  C109     1.0000 0.34270  0.53870  0.93861  Biso   1.000  C
  C110     1.0000 0.15730  0.46130  0.43861  Biso   1.000  C
  C111     1.0000 0.15730  0.53870  0.56139  Biso   1.000  C
  C112     1.0000 0.34270  0.46130  0.06139  Biso   1.000  C
  C113     1.0000 0.78870  0.59270  0.68861  Biso   1.000  C
  C114     1.0000 0.21130  0.90730  0.68861  Biso   1.000  C
  C115     1.0000 0.78870  0.40730  0.31139  Biso   1.000  C
  C116     1.0000 0.21130  0.09270  0.31139  Biso   1.000  C
  C117     1.0000 0.65730  0.46130  0.06139  Biso   1.000  C
  C118     1.0000 0.84270  0.53870  0.56139  Biso   1.000  C
  C119     1.0000 0.84270  0.46130  0.43861  Biso   1.000  C
  C120     1.0000 0.65730  0.53870  0.93861  Biso   1.000  C
  C121     1.0000 0.28870  0.09270  0.18861  Biso   1.000  C
  C122     1.0000 0.71130  0.40730  0.18861  Biso   1.000  C
  C123     1.0000 0.28870  0.90730  0.81139  Biso   1.000  C
  C124     1.0000 0.71130  0.59270  0.81139  Biso   1.000  C
  C125     1.0000 0.15730  0.96130  0.56139  Biso   1.000  C
  C126     1.0000 0.34270  0.03870  0.06139  Biso   1.000  C
  C127     1.0000 0.34270  0.96130  0.93861  Biso   1.000  C
  C128     1.0000 0.15730  0.03870  0.43861  Biso   1.000  C
  H65      1.0000 0.16730  0.39390  0.30730  Biso   1.000  H
  H66      1.0000 0.83270  0.10610  0.30730  Biso   1.000  H
  H67      1.0000 0.16730  0.60610  0.69270  Biso   1.000  H
  H68      1.0000 0.83270  0.89390  0.69270  Biso   1.000  H
  H69      1.0000 0.85610  0.08270  0.44270  Biso   1.000  H
  H70      1.0000 0.64390  0.91730  0.94270  Biso   1.000  H
  H71      1.0000 0.64390  0.08270  0.05730  Biso   1.000  H
  H72      1.0000 0.85610  0.91730  0.55730  Biso   1.000  H
  H73      1.0000 0.66730  0.89390  0.80730  Biso   1.000  H
  H74      1.0000 0.33270  0.60610  0.80730  Biso   1.000  H
  H75      1.0000 0.66730  0.10610  0.19270  Biso   1.000  H
  H76      1.0000 0.33270  0.39390  0.19270  Biso   1.000  H
  H77      1.0000 0.35610  0.58270  0.94270  Biso   1.000  H
  H78      1.0000 0.14390  0.41730  0.44270  Biso   1.000  H
  H79      1.0000 0.14390  0.58270  0.55730  Biso   1.000  H
  H80      1.0000 0.35610  0.41730  0.05730  Biso   1.000  H
  H81      1.0000 0.83270  0.60610  0.69270  Biso   1.000  H
  H82      1.0000 0.16730  0.89390  0.69270  Biso   1.000  H
  H83      1.0000 0.83270  0.39390  0.30730  Biso   1.000  H
  H84      1.0000 0.16730  0.10610  0.30730  Biso   1.000  H
  H85      1.0000 0.64390  0.41730  0.05730  Biso   1.000  H
  H86      1.0000 0.85610  0.58270  0.55730  Biso   1.000  H
  H87      1.0000 0.85610  0.41730  0.44270  Biso   1.000  H
  H88      1.0000 0.64390  0.58270  0.94270  Biso   1.000  H
  H89      1.0000 0.33270  0.10610  0.19270  Biso   1.000  H
  H90      1.0000 0.66730  0.39390  0.19270  Biso   1.000  H
  H91      1.0000 0.33270  0.89390  0.80730  Biso   1.000  H
  H92      1.0000 0.66730  0.60610  0.80730  Biso   1.000  H
  H93      1.0000 0.14390  0.91730  0.55730  Biso   1.000  H
  H94      1.0000 0.35610  0.08270  0.05730  Biso   1.000  H
  H95      1.0000 0.35610  0.91730  0.94270  Biso   1.000  H
  H96      1.0000 0.14390  0.08270  0.44270  Biso   1.000  H
  C129     1.0000 0.34070  0.45100  0.32357  Biso   1.000  C
  C130     1.0000 0.65930  0.04900  0.32357  Biso   1.000  C
  C131     1.0000 0.34070  0.54900  0.67643  Biso   1.000  C
  C132     1.0000 0.65930  0.95100  0.67643  Biso   1.000  C
  C133     1.0000 0.79900  0.90930  0.42643  Biso   1.000  C
  C134     1.0000 0.70100  0.09070  0.92643  Biso   1.000  C
  C135     1.0000 0.70100  0.90930  0.07357  Biso   1.000  C
  C136     1.0000 0.79900  0.09070  0.57357  Biso   1.000  C
  C137     1.0000 0.84070  0.95100  0.82357  Biso   1.000  C
  C138     1.0000 0.15930  0.54900  0.82357  Biso   1.000  C
  C139     1.0000 0.84070  0.04900  0.17643  Biso   1.000  C
  C140     1.0000 0.15930  0.45100  0.17643  Biso   1.000  C
  C141     1.0000 0.29900  0.40930  0.92643  Biso   1.000  C
  C142     1.0000 0.20100  0.59070  0.42643  Biso   1.000  C
  C143     1.0000 0.20100  0.40930  0.57357  Biso   1.000  C
  C144     1.0000 0.29900  0.59070  0.07357  Biso   1.000  C
  C145     1.0000 0.65930  0.54900  0.67643  Biso   1.000  C
  C146     1.0000 0.34070  0.95100  0.67643  Biso   1.000  C
  C147     1.0000 0.65930  0.45100  0.32357  Biso   1.000  C
  C148     1.0000 0.34070  0.04900  0.32357  Biso   1.000  C
  C149     1.0000 0.70100  0.59070  0.07357  Biso   1.000  C
  C150     1.0000 0.79900  0.40930  0.57357  Biso   1.000  C
  C151     1.0000 0.79900  0.59070  0.42643  Biso   1.000  C
  C152     1.0000 0.70100  0.40930  0.92643  Biso   1.000  C
  C153     1.0000 0.15930  0.04900  0.17643  Biso   1.000  C
  C154     1.0000 0.84070  0.45100  0.17643  Biso   1.000  C
  C155     1.0000 0.15930  0.95100  0.82357  Biso   1.000  C
  C156     1.0000 0.84070  0.54900  0.82357  Biso   1.000  C
  C157     1.0000 0.20100  0.09070  0.57357  Biso   1.000  C
  C158     1.0000 0.29900  0.90930  0.07357  Biso   1.000  C
  C159     1.0000 0.29900  0.09070  0.92643  Biso   1.000  C
  C160     1.0000 0.20100  0.90930  0.42643  Biso   1.000  C
  H97      1.0000 0.38440  0.46530  0.32750  Biso   1.000  H
  H98      1.0000 0.61560  0.03470  0.32750  Biso   1.000  H
  H99      1.0000 0.38440  0.53470  0.67250  Biso   1.000  H
  H100     1.0000 0.61560  0.96530  0.67250  Biso   1.000  H
  H101     1.0000 0.78470  0.86560  0.42250  Biso   1.000  H
  H102     1.0000 0.71530  0.13440  0.92250  Biso   1.000  H
  H103     1.0000 0.71530  0.86560  0.07750  Biso   1.000  H
  H104     1.0000 0.78470  0.13440  0.57750  Biso   1.000  H
  H105     1.0000 0.88440  0.96530  0.82750  Biso   1.000  H
  H106     1.0000 0.11560  0.53470  0.82750  Biso   1.000  H
  H107     1.0000 0.88440  0.03470  0.17250  Biso   1.000  H
  H108     1.0000 0.11560  0.46530  0.17250  Biso   1.000  H
  H109     1.0000 0.28470  0.36560  0.92250  Biso   1.000  H
  H110     1.0000 0.21530  0.63440  0.42250  Biso   1.000  H
  H111     1.0000 0.21530  0.36560  0.57750  Biso   1.000  H
  H112     1.0000 0.28470  0.63440  0.07750  Biso   1.000  H
  H113     1.0000 0.61560  0.53470  0.67250  Biso   1.000  H
  H114     1.0000 0.38440  0.96530  0.67250  Biso   1.000  H
  H115     1.0000 0.61560  0.46530  0.32750  Biso   1.000  H
  H116     1.0000 0.38440  0.03470  0.32750  Biso   1.000  H
  H117     1.0000 0.71530  0.63440  0.07750  Biso   1.000  H
  H118     1.0000 0.78470  0.36560  0.57750  Biso   1.000  H
  H119     1.0000 0.78470  0.63440  0.42250  Biso   1.000  H
  H120     1.0000 0.71530  0.36560  0.92250  Biso   1.000  H
  H121     1.0000 0.11560  0.03470  0.17250  Biso   1.000  H
  H122     1.0000 0.88440  0.46530  0.17250  Biso   1.000  H
  H123     1.0000 0.11560  0.96530  0.82750  Biso   1.000  H
  H124     1.0000 0.88440  0.53470  0.82750  Biso   1.000  H
  H125     1.0000 0.21530  0.13440  0.57750  Biso   1.000  H
  H126     1.0000 0.28470  0.86560  0.07750  Biso   1.000  H
  H127     1.0000 0.28470  0.13440  0.92250  Biso   1.000  H
  H128     1.0000 0.21530  0.86560  0.42250  Biso   1.000  H
  C161     1.0000 0.22080  0.44810  0.32955  Biso   1.000  C
  C162     1.0000 0.77920  0.05190  0.32955  Biso   1.000  C
  C163     1.0000 0.22080  0.55190  0.67045  Biso   1.000  C
  C164     1.0000 0.77920  0.94810  0.67045  Biso   1.000  C
  C165     1.0000 0.80190  0.02920  0.42045  Biso   1.000  C
  C166     1.0000 0.69810  0.97080  0.92045  Biso   1.000  C
  C167     1.0000 0.69810  0.02920  0.07955  Biso   1.000  C
  C168     1.0000 0.80190  0.97080  0.57955  Biso   1.000  C
  C169     1.0000 0.72080  0.94810  0.82955  Biso   1.000  C
  C170     1.0000 0.27920  0.55190  0.82955  Biso   1.000  C
  C171     1.0000 0.72080  0.05190  0.17045  Biso   1.000  C
  C172     1.0000 0.27920  0.44810  0.17045  Biso   1.000  C
  C173     1.0000 0.30190  0.52920  0.92045  Biso   1.000  C
  C174     1.0000 0.19810  0.47080  0.42045  Biso   1.000  C
  C175     1.0000 0.19810  0.52920  0.57955  Biso   1.000  C
  C176     1.0000 0.30190  0.47080  0.07955  Biso   1.000  C
  C177     1.0000 0.77920  0.55190  0.67045  Biso   1.000  C
  C178     1.0000 0.22080  0.94810  0.67045  Biso   1.000  C
  C179     1.0000 0.77920  0.44810  0.32955  Biso   1.000  C
  C180     1.0000 0.22080  0.05190  0.32955  Biso   1.000  C
  C181     1.0000 0.69810  0.47080  0.07955  Biso   1.000  C
  C182     1.0000 0.80190  0.52920  0.57955  Biso   1.000  C
  C183     1.0000 0.80190  0.47080  0.42045  Biso   1.000  C
  C184     1.0000 0.69810  0.52920  0.92045  Biso   1.000  C
  C185     1.0000 0.27920  0.05190  0.17045  Biso   1.000  C
  C186     1.0000 0.72080  0.44810  0.17045  Biso   1.000  C
  C187     1.0000 0.27920  0.94810  0.82955  Biso   1.000  C
  C188     1.0000 0.72080  0.55190  0.82955  Biso   1.000  C
  C189     1.0000 0.19810  0.97080  0.57955  Biso   1.000  C
  C190     1.0000 0.30190  0.02920  0.07955  Biso   1.000  C
  C191     1.0000 0.30190  0.97080  0.92045  Biso   1.000  C
  C192     1.0000 0.19810  0.02920  0.42045  Biso   1.000  C
  H129     1.0000 0.18280  0.46060  0.33790  Biso   1.000  H
  H130     1.0000 0.81720  0.03940  0.33790  Biso   1.000  H
  H131     1.0000 0.18280  0.53940  0.66210  Biso   1.000  H
  H132     1.0000 0.81720  0.96060  0.66210  Biso   1.000  H
  H133     1.0000 0.78940  0.06720  0.41210  Biso   1.000  H
  H134     1.0000 0.71060  0.93280  0.91210  Biso   1.000  H
  H135     1.0000 0.71060  0.06720  0.08790  Biso   1.000  H
  H136     1.0000 0.78940  0.93280  0.58790  Biso   1.000  H
  H137     1.0000 0.68280  0.96060  0.83790  Biso   1.000  H
  H138     1.0000 0.31720  0.53940  0.83790  Biso   1.000  H
  H139     1.0000 0.68280  0.03940  0.16210  Biso   1.000  H
  H140     1.0000 0.31720  0.46060  0.16210  Biso   1.000  H
  H141     1.0000 0.28940  0.56720  0.91210  Biso   1.000  H
  H142     1.0000 0.21060  0.43280  0.41210  Biso   1.000  H
  H143     1.0000 0.21060  0.56720  0.58790  Biso   1.000  H
  H144     1.0000 0.28940  0.43280  0.08790  Biso   1.000  H
  H145     1.0000 0.81720  0.53940  0.66210  Biso   1.000  H
  H146     1.0000 0.18280  0.96060  0.66210  Biso   1.000  H
  H147     1.0000 0.81720  0.46060  0.33790  Biso   1.000  H
  H148     1.0000 0.18280  0.03940  0.33790  Biso   1.000  H
  H149     1.0000 0.71060  0.43280  0.08790  Biso   1.000  H
  H150     1.0000 0.78940  0.56720  0.58790  Biso   1.000  H
  H151     1.0000 0.78940  0.43280  0.41210  Biso   1.000  H
  H152     1.0000 0.71060  0.56720  0.91210  Biso   1.000  H
  H153     1.0000 0.31720  0.03940  0.16210  Biso   1.000  H
  H154     1.0000 0.68280  0.46060  0.16210  Biso   1.000  H
  H155     1.0000 0.31720  0.96060  0.83790  Biso   1.000  H
  H156     1.0000 0.68280  0.53940  0.83790  Biso   1.000  H
  H157     1.0000 0.21060  0.93280  0.58790  Biso   1.000  H
  H158     1.0000 0.28940  0.06720  0.08790  Biso   1.000  H
  H159     1.0000 0.28940  0.93280  0.91210  Biso   1.000  H
  H160     1.0000 0.21060  0.06720  0.41210  Biso   1.000  H
  C193     1.0000 0.28450  0.47140  0.33592  Biso   1.000  C
  C194     1.0000 0.71550  0.02860  0.33592  Biso   1.000  C
  C195     1.0000 0.28450  0.52860  0.66408  Biso   1.000  C
  C196     1.0000 0.71550  0.97140  0.66408  Biso   1.000  C
  C197     1.0000 0.77860  0.96550  0.41408  Biso   1.000  C
  C198     1.0000 0.72140  0.03450  0.91408  Biso   1.000  C
  C199     1.0000 0.72140  0.96550  0.08592  Biso   1.000  C
  C200     1.0000 0.77860  0.03450  0.58592  Biso   1.000  C
  C201     1.0000 0.78450  0.97140  0.83592  Biso   1.000  C
  C202     1.0000 0.21550  0.52860  0.83592  Biso   1.000  C
  C203     1.0000 0.78450  0.02860  0.16408  Biso   1.000  C
  C204     1.0000 0.21550  0.47140  0.16408  Biso   1.000  C
  C205     1.0000 0.27860  0.46550  0.91408  Biso   1.000  C
  C206     1.0000 0.22140  0.53450  0.41408  Biso   1.000  C
  C207     1.0000 0.22140  0.46550  0.58592  Biso   1.000  C
  C208     1.0000 0.27860  0.53450  0.08592  Biso   1.000  C
  C209     1.0000 0.71550  0.52860  0.66408  Biso   1.000  C
  C210     1.0000 0.28450  0.97140  0.66408  Biso   1.000  C
  C211     1.0000 0.71550  0.47140  0.33592  Biso   1.000  C
  C212     1.0000 0.28450  0.02860  0.33592  Biso   1.000  C
  C213     1.0000 0.72140  0.53450  0.08592  Biso   1.000  C
  C214     1.0000 0.77860  0.46550  0.58592  Biso   1.000  C
  C215     1.0000 0.77860  0.53450  0.41408  Biso   1.000  C
  C216     1.0000 0.72140  0.46550  0.91408  Biso   1.000  C
  C217     1.0000 0.21550  0.02860  0.16408  Biso   1.000  C
  C218     1.0000 0.78450  0.47140  0.16408  Biso   1.000  C
  C219     1.0000 0.21550  0.97140  0.83592  Biso   1.000  C
  C220     1.0000 0.78450  0.52860  0.83592  Biso   1.000  C
  C221     1.0000 0.22140  0.03450  0.58592  Biso   1.000  C
  C222     1.0000 0.27860  0.96550  0.08592  Biso   1.000  C
  C223     1.0000 0.27860  0.03450  0.91408  Biso   1.000  C
  C224     1.0000 0.22140  0.96550  0.41408  Biso   1.000  C
  C225     1.0000 0.29570  0.51420  0.35625  Biso   1.000  C
  C226     1.0000 0.70430  0.98580  0.35625  Biso   1.000  C
  C227     1.0000 0.29570  0.48580  0.64375  Biso   1.000  C
  C228     1.0000 0.70430  0.01420  0.64375  Biso   1.000  C
  C229     1.0000 0.73580  0.95430  0.39375  Biso   1.000  C
  C230     1.0000 0.76420  0.04570  0.89375  Biso   1.000  C
  C231     1.0000 0.76420  0.95430  0.10625  Biso   1.000  C
  C232     1.0000 0.73580  0.04570  0.60625  Biso   1.000  C
  C233     1.0000 0.79570  0.01420  0.85625  Biso   1.000  C
  C234     1.0000 0.20430  0.48580  0.85625  Biso   1.000  C
  C235     1.0000 0.79570  0.98580  0.14375  Biso   1.000  C
  C236     1.0000 0.20430  0.51420  0.14375  Biso   1.000  C
  C237     1.0000 0.23580  0.45430  0.89375  Biso   1.000  C
  C238     1.0000 0.26420  0.54570  0.39375  Biso   1.000  C
  C239     1.0000 0.26420  0.45430  0.60625  Biso   1.000  C
  C240     1.0000 0.23580  0.54570  0.10625  Biso   1.000  C
  C241     1.0000 0.70430  0.48580  0.64375  Biso   1.000  C
  C242     1.0000 0.29570  0.01420  0.64375  Biso   1.000  C
  C243     1.0000 0.70430  0.51420  0.35625  Biso   1.000  C
  C244     1.0000 0.29570  0.98580  0.35625  Biso   1.000  C
  C245     1.0000 0.76420  0.54570  0.10625  Biso   1.000  C
  C246     1.0000 0.73580  0.45430  0.60625  Biso   1.000  C
  C247     1.0000 0.73580  0.54570  0.39375  Biso   1.000  C
  C248     1.0000 0.76420  0.45430  0.89375  Biso   1.000  C
  C249     1.0000 0.20430  0.98580  0.14375  Biso   1.000  C
  C250     1.0000 0.79570  0.51420  0.14375  Biso   1.000  C
  C251     1.0000 0.20430  0.01420  0.85625  Biso   1.000  C
  C252     1.0000 0.79570  0.48580  0.85625  Biso   1.000  C
  C253     1.0000 0.26420  0.04570  0.60625  Biso   1.000  C
  C254     1.0000 0.23580  0.95430  0.10625  Biso   1.000  C
  C255     1.0000 0.23580  0.04570  0.89375  Biso   1.000  C
  C256     1.0000 0.26420  0.95430  0.39375  Biso   1.000  C
  C257     1.0000 0.25510  0.50510  0.37500  Biso   1.000  C
  C258     1.0000 0.74490  0.99490  0.37500  Biso   1.000  C
  C259     1.0000 0.25510  0.49490  0.62500  Biso   1.000  C
  C260     1.0000 0.74490  0.00510  0.62500  Biso   1.000  C
  C261     1.0000 0.75510  0.00510  0.87500  Biso   1.000  C
  C262     1.0000 0.75510  0.99490  0.12500  Biso   1.000  C
  C263     1.0000 0.24490  0.49490  0.87500  Biso   1.000  C
  C264     1.0000 0.24490  0.50510  0.12500  Biso   1.000  C
  C265     1.0000 0.74490  0.49490  0.62500  Biso   1.000  C
  C266     1.0000 0.25510  0.00510  0.62500  Biso   1.000  C
  C267     1.0000 0.74490  0.50510  0.37500  Biso   1.000  C
  C268     1.0000 0.25510  0.99490  0.37500  Biso   1.000  C
  C269     1.0000 0.75510  0.50510  0.12500  Biso   1.000  C
  C270     1.0000 0.75510  0.49490  0.87500  Biso   1.000  C
  C271     1.0000 0.24490  0.99490  0.12500  Biso   1.000  C
  C272     1.0000 0.24490  0.00510  0.87500  Biso   1.000  C
  H161     1.0000 0.22140  0.47140  0.37500  Biso   1.000  H
  H162     1.0000 0.77860  0.02860  0.37500  Biso   1.000  H
  H163     1.0000 0.22140  0.52860  0.62500  Biso   1.000  H
  H164     1.0000 0.77860  0.97140  0.62500  Biso   1.000  H
  H165     1.0000 0.72140  0.97140  0.87500  Biso   1.000  H
  H166     1.0000 0.72140  0.02860  0.12500  Biso   1.000  H
  H167     1.0000 0.27860  0.52860  0.87500  Biso   1.000  H
  H168     1.0000 0.27860  0.47140  0.12500  Biso   1.000  H
  H169     1.0000 0.77860  0.52860  0.62500  Biso   1.000  H
  H170     1.0000 0.22140  0.97140  0.62500  Biso   1.000  H
  H171     1.0000 0.77860  0.47140  0.37500  Biso   1.000  H
  H172     1.0000 0.22140  0.02860  0.37500  Biso   1.000  H
  H173     1.0000 0.72140  0.47140  0.12500  Biso   1.000  H
  H174     1.0000 0.72140  0.52860  0.87500  Biso   1.000  H
  H175     1.0000 0.27860  0.02860  0.12500  Biso   1.000  H
  H176     1.0000 0.27860  0.97140  0.87500  Biso   1.000  H
  C273     1.0000 0.34430  0.56660  0.35628  Biso   1.000  C
  C274     1.0000 0.65570  0.93340  0.35628  Biso   1.000  C
  C275     1.0000 0.34430  0.43340  0.64372  Biso   1.000  C
  C276     1.0000 0.65570  0.06660  0.64372  Biso   1.000  C
  C277     1.0000 0.68340  0.90570  0.39372  Biso   1.000  C
  C278     1.0000 0.81660  0.09430  0.89372  Biso   1.000  C
  C279     1.0000 0.81660  0.90570  0.10628  Biso   1.000  C
  C280     1.0000 0.68340  0.09430  0.60628  Biso   1.000  C
  C281     1.0000 0.84430  0.06660  0.85628  Biso   1.000  C
  C282     1.0000 0.15570  0.43340  0.85628  Biso   1.000  C
  C283     1.0000 0.84430  0.93340  0.14372  Biso   1.000  C
  C284     1.0000 0.15570  0.56660  0.14372  Biso   1.000  C
  C285     1.0000 0.18340  0.40570  0.89372  Biso   1.000  C
  C286     1.0000 0.31660  0.59430  0.39372  Biso   1.000  C
  C287     1.0000 0.31660  0.40570  0.60628  Biso   1.000  C
  C288     1.0000 0.18340  0.59430  0.10628  Biso   1.000  C
  C289     1.0000 0.65570  0.43340  0.64372  Biso   1.000  C
  C290     1.0000 0.34430  0.06660  0.64372  Biso   1.000  C
  C291     1.0000 0.65570  0.56660  0.35628  Biso   1.000  C
  C292     1.0000 0.34430  0.93340  0.35628  Biso   1.000  C
  C293     1.0000 0.81660  0.59430  0.10628  Biso   1.000  C
  C294     1.0000 0.68340  0.40570  0.60628  Biso   1.000  C
  C295     1.0000 0.68340  0.59430  0.39372  Biso   1.000  C
  C296     1.0000 0.81660  0.40570  0.89372  Biso   1.000  C
  C297     1.0000 0.15570  0.93340  0.14372  Biso   1.000  C
  C298     1.0000 0.84430  0.56660  0.14372  Biso   1.000  C
  C299     1.0000 0.15570  0.06660  0.85628  Biso   1.000  C
  C300     1.0000 0.84430  0.43340  0.85628  Biso   1.000  C
  C301     1.0000 0.31660  0.09430  0.60628  Biso   1.000  C
  C302     1.0000 0.18340  0.90570  0.10628  Biso   1.000  C
  C303     1.0000 0.18340  0.09430  0.89372  Biso   1.000  C
  C304     1.0000 0.31660  0.90570  0.39372  Biso   1.000  C
  H177     1.0000 0.36930  0.57530  0.34350  Biso   1.000  H
  H178     1.0000 0.63070  0.92470  0.34350  Biso   1.000  H
  H179     1.0000 0.36930  0.42470  0.65650  Biso   1.000  H
  H180     1.0000 0.63070  0.07530  0.65650  Biso   1.000  H
  H181     1.0000 0.67470  0.88070  0.40650  Biso   1.000  H
  H182     1.0000 0.82530  0.11930  0.90650  Biso   1.000  H
  H183     1.0000 0.82530  0.88070  0.09350  Biso   1.000  H
  H184     1.0000 0.67470  0.11930  0.59350  Biso   1.000  H
  H185     1.0000 0.86930  0.07530  0.84350  Biso   1.000  H
  H186     1.0000 0.13070  0.42470  0.84350  Biso   1.000  H
  H187     1.0000 0.86930  0.92470  0.15650  Biso   1.000  H
  H188     1.0000 0.13070  0.57530  0.15650  Biso   1.000  H
  H189     1.0000 0.17470  0.38070  0.90650  Biso   1.000  H
  H190     1.0000 0.32530  0.61930  0.40650  Biso   1.000  H
  H191     1.0000 0.32530  0.38070  0.59350  Biso   1.000  H
  H192     1.0000 0.17470  0.61930  0.09350  Biso   1.000  H
  H193     1.0000 0.63070  0.42470  0.65650  Biso   1.000  H
  H194     1.0000 0.36930  0.07530  0.65650  Biso   1.000  H
  H195     1.0000 0.63070  0.57530  0.34350  Biso   1.000  H
  H196     1.0000 0.36930  0.92470  0.34350  Biso   1.000  H
  H197     1.0000 0.82530  0.61930  0.09350  Biso   1.000  H
  H198     1.0000 0.67470  0.38070  0.59350  Biso   1.000  H
  H199     1.0000 0.67470  0.61930  0.40650  Biso   1.000  H
  H200     1.0000 0.82530  0.38070  0.90650  Biso   1.000  H
  H201     1.0000 0.13070  0.92470  0.15650  Biso   1.000  H
  H202     1.0000 0.86930  0.57530  0.15650  Biso   1.000  H
  H203     1.0000 0.13070  0.07530  0.84350  Biso   1.000  H
  H204     1.0000 0.86930  0.42470  0.84350  Biso   1.000  H
  H205     1.0000 0.32530  0.11930  0.59350  Biso   1.000  H
  H206     1.0000 0.17470  0.88070  0.09350  Biso   1.000  H
  H207     1.0000 0.17470  0.11930  0.90650  Biso   1.000  H
  H208     1.0000 0.32530  0.88070  0.40650  Biso   1.000  H
  C305     1.0000 0.35620  0.60620  0.37500  Biso   1.000  C
  C306     1.0000 0.64380  0.89380  0.37500  Biso   1.000  C
  C307     1.0000 0.35620  0.39380  0.62500  Biso   1.000  C
  C308     1.0000 0.64380  0.10620  0.62500  Biso   1.000  C
  C309     1.0000 0.85620  0.10620  0.87500  Biso   1.000  C
  C310     1.0000 0.85620  0.89380  0.12500  Biso   1.000  C
  C311     1.0000 0.14380  0.39380  0.87500  Biso   1.000  C
  C312     1.0000 0.14380  0.60620  0.12500  Biso   1.000  C
  C313     1.0000 0.64380  0.39380  0.62500  Biso   1.000  C
  C314     1.0000 0.35620  0.10620  0.62500  Biso   1.000  C
  C315     1.0000 0.64380  0.60620  0.37500  Biso   1.000  C
  C316     1.0000 0.35620  0.89380  0.37500  Biso   1.000  C
  C317     1.0000 0.85620  0.60620  0.12500  Biso   1.000  C
  C318     1.0000 0.85620  0.39380  0.87500  Biso   1.000  C
  C319     1.0000 0.14380  0.89380  0.12500  Biso   1.000  C
  C320     1.0000 0.14380  0.10620  0.87500  Biso   1.000  C
  C321     1.0000 0.40970  0.65970  0.37500  Biso   1.000  C
  C322     1.0000 0.59030  0.84030  0.37500  Biso   1.000  C
  C323     1.0000 0.40970  0.34030  0.62500  Biso   1.000  C
  C324     1.0000 0.59030  0.15970  0.62500  Biso   1.000  C
  C325     1.0000 0.90970  0.15970  0.87500  Biso   1.000  C
  C326     1.0000 0.90970  0.84030  0.12500  Biso   1.000  C
  C327     1.0000 0.09030  0.34030  0.87500  Biso   1.000  C
  C328     1.0000 0.09030  0.65970  0.12500  Biso   1.000  C
  C329     1.0000 0.59030  0.34030  0.62500  Biso   1.000  C
  C330     1.0000 0.40970  0.15970  0.62500  Biso   1.000  C
  C331     1.0000 0.59030  0.65970  0.37500  Biso   1.000  C
  C332     1.0000 0.40970  0.84030  0.37500  Biso   1.000  C
  C333     1.0000 0.90970  0.65970  0.12500  Biso   1.000  C
  C334     1.0000 0.90970  0.34030  0.87500  Biso   1.000  C
  C335     1.0000 0.09030  0.84030  0.12500  Biso   1.000  C
  C336     1.0000 0.09030  0.15970  0.87500  Biso   1.000  C
  C337     1.0000 0.46490  0.25000  0.26610  Biso   1.000  C
  C338     1.0000 0.53510  0.25000  0.26610  Biso   1.000  C
  C339     1.0000 0.46490  0.75000  0.73390  Biso   1.000  C
  C340     1.0000 0.53510  0.75000  0.73390  Biso   1.000  C
  C341     1.0000 0.00000  0.78510  0.48390  Biso   1.000  C
  C342     1.0000 0.50000  0.21490  0.98390  Biso   1.000  C
  C343     1.0000 0.50000  0.78510  0.01610  Biso   1.000  C
  C344     1.0000 0.00000  0.21490  0.51610  Biso   1.000  C
  C345     1.0000 0.96490  0.75000  0.76610  Biso   1.000  C
  C346     1.0000 0.03510  0.75000  0.76610  Biso   1.000  C
  C347     1.0000 0.96490  0.25000  0.23390  Biso   1.000  C
  C348     1.0000 0.03510  0.25000  0.23390  Biso   1.000  C
  C349     1.0000 0.50000  0.28510  0.98390  Biso   1.000  C
  C350     1.0000 0.00000  0.71490  0.48390  Biso   1.000  C
  C351     1.0000 0.00000  0.28510  0.51610  Biso   1.000  C
  C352     1.0000 0.50000  0.71490  0.01610  Biso   1.000  C
  C353     1.0000 0.46560  0.25000  0.22680  Biso   1.000  C
  C354     1.0000 0.53440  0.25000  0.22680  Biso   1.000  C
  C355     1.0000 0.46560  0.75000  0.77320  Biso   1.000  C
  C356     1.0000 0.53440  0.75000  0.77320  Biso   1.000  C
  C357     1.0000 0.00000  0.78440  0.52320  Biso   1.000  C
  C358     1.0000 0.50000  0.21560  0.02320  Biso   1.000  C
  C359     1.0000 0.50000  0.78440  0.97680  Biso   1.000  C
  C360     1.0000 0.00000  0.21560  0.47680  Biso   1.000  C
  C361     1.0000 0.96560  0.75000  0.72680  Biso   1.000  C
  C362     1.0000 0.03440  0.75000  0.72680  Biso   1.000  C
  C363     1.0000 0.96560  0.25000  0.27320  Biso   1.000  C
  C364     1.0000 0.03440  0.25000  0.27320  Biso   1.000  C
  C365     1.0000 0.50000  0.28440  0.02320  Biso   1.000  C
  C366     1.0000 0.00000  0.71560  0.52320  Biso   1.000  C
  C367     1.0000 0.00000  0.28440  0.47680  Biso   1.000  C
  C368     1.0000 0.50000  0.71560  0.97680  Biso   1.000  C
  C369     1.0000 0.44530  0.25000  0.20270  Biso   1.000  C
  C370     1.0000 0.55470  0.25000  0.20270  Biso   1.000  C
  C371     1.0000 0.44530  0.75000  0.79730  Biso   1.000  C
  C372     1.0000 0.55470  0.75000  0.79730  Biso   1.000  C
  C373     1.0000 0.00000  0.80470  0.54730  Biso   1.000  C
  C374     1.0000 0.50000  0.19530  0.04730  Biso   1.000  C
  C375     1.0000 0.50000  0.80470  0.95270  Biso   1.000  C
  C376     1.0000 0.00000  0.19530  0.45270  Biso   1.000  C
  C377     1.0000 0.94530  0.75000  0.70270  Biso   1.000  C
  C378     1.0000 0.05470  0.75000  0.70270  Biso   1.000  C
  C379     1.0000 0.94530  0.25000  0.29730  Biso   1.000  C
  C380     1.0000 0.05470  0.25000  0.29730  Biso   1.000  C
  C381     1.0000 0.50000  0.30470  0.04730  Biso   1.000  C
  C382     1.0000 0.00000  0.69530  0.54730  Biso   1.000  C
  C383     1.0000 0.00000  0.30470  0.45270  Biso   1.000  C
  C384     1.0000 0.50000  0.69530  0.95270  Biso   1.000  C
  H209     1.0000 0.48030  0.25000  0.19150  Biso   1.000  H
  H210     1.0000 0.51970  0.25000  0.19150  Biso   1.000  H
  H211     1.0000 0.48030  0.75000  0.80850  Biso   1.000  H
  H212     1.0000 0.51970  0.75000  0.80850  Biso   1.000  H
  H213     1.0000 0.00000  0.76970  0.55850  Biso   1.000  H
  H214     1.0000 0.50000  0.23030  0.05850  Biso   1.000  H
  H215     1.0000 0.50000  0.76970  0.94150  Biso   1.000  H
  H216     1.0000 0.00000  0.23030  0.44150  Biso   1.000  H
  H217     1.0000 0.98030  0.75000  0.69150  Biso   1.000  H
  H218     1.0000 0.01970  0.75000  0.69150  Biso   1.000  H
  H219     1.0000 0.98030  0.25000  0.30850  Biso   1.000  H
  H220     1.0000 0.01970  0.25000  0.30850  Biso   1.000  H
  H221     1.0000 0.50000  0.26970  0.05850  Biso   1.000  H
  H222     1.0000 0.00000  0.73030  0.55850  Biso   1.000  H
  H223     1.0000 0.00000  0.26970  0.44150  Biso   1.000  H
  H224     1.0000 0.50000  0.73030  0.94150  Biso   1.000  H
  H225     1.0000 0.41730  0.20980  0.20100  Biso   1.000  H
  H226     1.0000 0.58270  0.29020  0.20100  Biso   1.000  H
  H227     1.0000 0.41730  0.79020  0.79900  Biso   1.000  H
  H228     1.0000 0.58270  0.70980  0.79900  Biso   1.000  H
  H229     1.0000 0.04020  0.83270  0.54900  Biso   1.000  H
  H230     1.0000 0.45980  0.16730  0.04900  Biso   1.000  H
  H231     1.0000 0.45980  0.83270  0.95100  Biso   1.000  H
  H232     1.0000 0.04020  0.16730  0.45100  Biso   1.000  H
  H233     1.0000 0.91730  0.70980  0.70100  Biso   1.000  H
  H234     1.0000 0.08270  0.79020  0.70100  Biso   1.000  H
  H235     1.0000 0.91730  0.29020  0.29900  Biso   1.000  H
  H236     1.0000 0.08270  0.20980  0.29900  Biso   1.000  H
  H237     1.0000 0.54020  0.33270  0.04900  Biso   1.000  H
  H238     1.0000 0.95980  0.66730  0.54900  Biso   1.000  H
  H239     1.0000 0.95980  0.33270  0.45100  Biso   1.000  H
  H240     1.0000 0.54020  0.66730  0.95100  Biso   1.000  H
  H241     1.0000 0.58270  0.79020  0.79900  Biso   1.000  H
  H242     1.0000 0.41730  0.70980  0.79900  Biso   1.000  H
  H243     1.0000 0.58270  0.20980  0.20100  Biso   1.000  H
  H244     1.0000 0.41730  0.29020  0.20100  Biso   1.000  H
  H245     1.0000 0.45980  0.66730  0.95100  Biso   1.000  H
  H246     1.0000 0.04020  0.33270  0.45100  Biso   1.000  H
  H247     1.0000 0.04020  0.66730  0.54900  Biso   1.000  H
  H248     1.0000 0.45980  0.33270  0.04900  Biso   1.000  H
  H249     1.0000 0.08270  0.29020  0.29900  Biso   1.000  H
  H250     1.0000 0.91730  0.20980  0.29900  Biso   1.000  H
  H251     1.0000 0.08270  0.70980  0.70100  Biso   1.000  H
  H252     1.0000 0.91730  0.79020  0.70100  Biso   1.000  H
  H253     1.0000 0.95980  0.16730  0.45100  Biso   1.000  H
  H254     1.0000 0.54020  0.83270  0.95100  Biso   1.000  H
  H255     1.0000 0.54020  0.16730  0.04900  Biso   1.000  H
  H256     1.0000 0.95980  0.83270  0.54900  Biso   1.000  H
  C385     1.0000 0.45130  0.25000  0.29100  Biso   1.000  C
  C386     1.0000 0.54870  0.25000  0.29100  Biso   1.000  C
  C387     1.0000 0.45130  0.75000  0.70900  Biso   1.000  C
  C388     1.0000 0.54870  0.75000  0.70900  Biso   1.000  C
  C389     1.0000 0.00000  0.79870  0.45900  Biso   1.000  C
  C390     1.0000 0.50000  0.20130  0.95900  Biso   1.000  C
  C391     1.0000 0.50000  0.79870  0.04100  Biso   1.000  C
  C392     1.0000 0.00000  0.20130  0.54100  Biso   1.000  C
  C393     1.0000 0.95130  0.75000  0.79100  Biso   1.000  C
  C394     1.0000 0.04870  0.75000  0.79100  Biso   1.000  C
  C395     1.0000 0.95130  0.25000  0.20900  Biso   1.000  C
  C396     1.0000 0.04870  0.25000  0.20900  Biso   1.000  C
  C397     1.0000 0.50000  0.29870  0.95900  Biso   1.000  C
  C398     1.0000 0.00000  0.70130  0.45900  Biso   1.000  C
  C399     1.0000 0.00000  0.29870  0.54100  Biso   1.000  C
  C400     1.0000 0.50000  0.70130  0.04100  Biso   1.000  C
  H257     1.0000 0.43930  0.25000  0.27970  Biso   1.000  H
  H258     1.0000 0.56070  0.25000  0.27970  Biso   1.000  H
  H259     1.0000 0.43930  0.75000  0.72030  Biso   1.000  H
  H260     1.0000 0.56070  0.75000  0.72030  Biso   1.000  H
  H261     1.0000 0.00000  0.81070  0.47030  Biso   1.000  H
  H262     1.0000 0.50000  0.18930  0.97030  Biso   1.000  H
  H263     1.0000 0.50000  0.81070  0.02970  Biso   1.000  H
  H264     1.0000 0.00000  0.18930  0.52970  Biso   1.000  H
  H265     1.0000 0.93930  0.75000  0.77970  Biso   1.000  H
  H266     1.0000 0.06070  0.75000  0.77970  Biso   1.000  H
  H267     1.0000 0.93930  0.25000  0.22030  Biso   1.000  H
  H268     1.0000 0.06070  0.25000  0.22030  Biso   1.000  H
  H269     1.0000 0.50000  0.31070  0.97030  Biso   1.000  H
  H270     1.0000 0.00000  0.68930  0.47030  Biso   1.000  H
  H271     1.0000 0.00000  0.31070  0.52970  Biso   1.000  H
  H272     1.0000 0.50000  0.68930  0.02970  Biso   1.000  H
  C401     1.0000 0.46500  0.30890  0.24384  Biso   1.000  C
  C402     1.0000 0.53500  0.19110  0.24384  Biso   1.000  C
  C403     1.0000 0.46500  0.69110  0.75616  Biso   1.000  C
  C404     1.0000 0.53500  0.80890  0.75616  Biso   1.000  C
  C405     1.0000 0.94110  0.78500  0.50616  Biso   1.000  C
  C406     1.0000 0.55890  0.21500  0.00616  Biso   1.000  C
  C407     1.0000 0.55890  0.78500  0.99384  Biso   1.000  C
  C408     1.0000 0.94110  0.21500  0.49384  Biso   1.000  C
  C409     1.0000 0.96500  0.80890  0.74384  Biso   1.000  C
  C410     1.0000 0.03500  0.69110  0.74384  Biso   1.000  C
  C411     1.0000 0.96500  0.19110  0.25616  Biso   1.000  C
  C412     1.0000 0.03500  0.30890  0.25616  Biso   1.000  C
  C413     1.0000 0.44110  0.28500  0.00616  Biso   1.000  C
  C414     1.0000 0.05890  0.71500  0.50616  Biso   1.000  C
  C415     1.0000 0.05890  0.28500  0.49384  Biso   1.000  C
  C416     1.0000 0.44110  0.71500  0.99384  Biso   1.000  C
  C417     1.0000 0.53500  0.69110  0.75616  Biso   1.000  C
  C418     1.0000 0.46500  0.80890  0.75616  Biso   1.000  C
  C419     1.0000 0.53500  0.30890  0.24384  Biso   1.000  C
  C420     1.0000 0.46500  0.19110  0.24384  Biso   1.000  C
  C421     1.0000 0.55890  0.71500  0.99384  Biso   1.000  C
  C422     1.0000 0.94110  0.28500  0.49384  Biso   1.000  C
  C423     1.0000 0.94110  0.71500  0.50616  Biso   1.000  C
  C424     1.0000 0.55890  0.28500  0.00616  Biso   1.000  C
  C425     1.0000 0.03500  0.19110  0.25616  Biso   1.000  C
  C426     1.0000 0.96500  0.30890  0.25616  Biso   1.000  C
  C427     1.0000 0.03500  0.80890  0.74384  Biso   1.000  C
  C428     1.0000 0.96500  0.69110  0.74384  Biso   1.000  C
  C429     1.0000 0.05890  0.21500  0.49384  Biso   1.000  C
  C430     1.0000 0.44110  0.78500  0.99384  Biso   1.000  C
  C431     1.0000 0.44110  0.21500  0.00616  Biso   1.000  C
  C432     1.0000 0.05890  0.78500  0.50616  Biso   1.000  C
  H273     1.0000 0.44050  0.35160  0.24320  Biso   1.000  H
  H274     1.0000 0.55950  0.14840  0.24320  Biso   1.000  H
  H275     1.0000 0.44050  0.64840  0.75680  Biso   1.000  H
  H276     1.0000 0.55950  0.85160  0.75680  Biso   1.000  H
  H277     1.0000 0.89840  0.80950  0.50680  Biso   1.000  H
  H278     1.0000 0.60160  0.19050  0.00680  Biso   1.000  H
  H279     1.0000 0.60160  0.80950  0.99320  Biso   1.000  H
  H280     1.0000 0.89840  0.19050  0.49320  Biso   1.000  H
  H281     1.0000 0.94050  0.85160  0.74320  Biso   1.000  H
  H282     1.0000 0.05950  0.64840  0.74320  Biso   1.000  H
  H283     1.0000 0.94050  0.14840  0.25680  Biso   1.000  H
  H284     1.0000 0.05950  0.35160  0.25680  Biso   1.000  H
  H285     1.0000 0.39840  0.30950  0.00680  Biso   1.000  H
  H286     1.0000 0.10160  0.69050  0.50680  Biso   1.000  H
  H287     1.0000 0.10160  0.30950  0.49320  Biso   1.000  H
  H288     1.0000 0.39840  0.69050  0.99320  Biso   1.000  H
  H289     1.0000 0.55950  0.64840  0.75680  Biso   1.000  H
  H290     1.0000 0.44050  0.85160  0.75680  Biso   1.000  H
  H291     1.0000 0.55950  0.35160  0.24320  Biso   1.000  H
  H292     1.0000 0.44050  0.14840  0.24320  Biso   1.000  H
  H293     1.0000 0.60160  0.69050  0.99320  Biso   1.000  H
  H294     1.0000 0.89840  0.30950  0.49320  Biso   1.000  H
  H295     1.0000 0.89840  0.69050  0.50680  Biso   1.000  H
  H296     1.0000 0.60160  0.30950  0.00680  Biso   1.000  H
  H297     1.0000 0.05950  0.14840  0.25680  Biso   1.000  H
  H298     1.0000 0.94050  0.35160  0.25680  Biso   1.000  H
  H299     1.0000 0.05950  0.85160  0.74320  Biso   1.000  H
  H300     1.0000 0.94050  0.64840  0.74320  Biso   1.000  H
  H301     1.0000 0.10160  0.19050  0.49320  Biso   1.000  H
  H302     1.0000 0.39840  0.80950  0.99320  Biso   1.000  H
  H303     1.0000 0.39840  0.19050  0.00680  Biso   1.000  H
  H304     1.0000 0.10160  0.80950  0.50680  Biso   1.000  H
  C433     1.0000 0.44180  0.38370  0.24490  Biso   1.000  C
  C434     1.0000 0.55820  0.11630  0.24490  Biso   1.000  C
  C435     1.0000 0.44180  0.61630  0.75510  Biso   1.000  C
  C436     1.0000 0.55820  0.88370  0.75510  Biso   1.000  C
  C437     1.0000 0.86630  0.80820  0.50510  Biso   1.000  C
  C438     1.0000 0.63370  0.19180  0.00510  Biso   1.000  C
  C439     1.0000 0.63370  0.80820  0.99490  Biso   1.000  C
  C440     1.0000 0.86630  0.19180  0.49490  Biso   1.000  C
  C441     1.0000 0.94180  0.88370  0.74490  Biso   1.000  C
  C442     1.0000 0.05820  0.61630  0.74490  Biso   1.000  C
  C443     1.0000 0.94180  0.11630  0.25510  Biso   1.000  C
  C444     1.0000 0.05820  0.38370  0.25510  Biso   1.000  C
  C445     1.0000 0.36630  0.30820  0.00510  Biso   1.000  C
  C446     1.0000 0.13370  0.69180  0.50510  Biso   1.000  C
  C447     1.0000 0.13370  0.30820  0.49490  Biso   1.000  C
  C448     1.0000 0.36630  0.69180  0.99490  Biso   1.000  C
  C449     1.0000 0.55820  0.61630  0.75510  Biso   1.000  C
  C450     1.0000 0.44180  0.88370  0.75510  Biso   1.000  C
  C451     1.0000 0.55820  0.38370  0.24490  Biso   1.000  C
  C452     1.0000 0.44180  0.11630  0.24490  Biso   1.000  C
  C453     1.0000 0.63370  0.69180  0.99490  Biso   1.000  C
  C454     1.0000 0.86630  0.30820  0.49490  Biso   1.000  C
  C455     1.0000 0.86630  0.69180  0.50510  Biso   1.000  C
  C456     1.0000 0.63370  0.30820  0.00510  Biso   1.000  C
  C457     1.0000 0.05820  0.11630  0.25510  Biso   1.000  C
  C458     1.0000 0.94180  0.38370  0.25510  Biso   1.000  C
  C459     1.0000 0.05820  0.88370  0.74490  Biso   1.000  C
  C460     1.0000 0.94180  0.61630  0.74490  Biso   1.000  C
  C461     1.0000 0.13370  0.19180  0.49490  Biso   1.000  C
  C462     1.0000 0.36630  0.80820  0.99490  Biso   1.000  C
  C463     1.0000 0.36630  0.19180  0.00510  Biso   1.000  C
  C464     1.0000 0.13370  0.80820  0.50510  Biso   1.000  C
  H305     1.0000 0.47980  0.41480  0.24400  Biso   1.000  H
  H306     1.0000 0.52020  0.08520  0.24400  Biso   1.000  H
  H307     1.0000 0.47980  0.58520  0.75600  Biso   1.000  H
  H308     1.0000 0.52020  0.91480  0.75600  Biso   1.000  H
  H309     1.0000 0.83520  0.77020  0.50600  Biso   1.000  H
  H310     1.0000 0.66480  0.22980  0.00600  Biso   1.000  H
  H311     1.0000 0.66480  0.77020  0.99400  Biso   1.000  H
  H312     1.0000 0.83520  0.22980  0.49400  Biso   1.000  H
  H313     1.0000 0.97980  0.91480  0.74400  Biso   1.000  H
  H314     1.0000 0.02020  0.58520  0.74400  Biso   1.000  H
  H315     1.0000 0.97980  0.08520  0.25600  Biso   1.000  H
  H316     1.0000 0.02020  0.41480  0.25600  Biso   1.000  H
  H317     1.0000 0.33520  0.27020  0.00600  Biso   1.000  H
  H318     1.0000 0.16480  0.72980  0.50600  Biso   1.000  H
  H319     1.0000 0.16480  0.27020  0.49400  Biso   1.000  H
  H320     1.0000 0.33520  0.72980  0.99400  Biso   1.000  H
  H321     1.0000 0.52020  0.58520  0.75600  Biso   1.000  H
  H322     1.0000 0.47980  0.91480  0.75600  Biso   1.000  H
  H323     1.0000 0.52020  0.41480  0.24400  Biso   1.000  H
  H324     1.0000 0.47980  0.08520  0.24400  Biso   1.000  H
  H325     1.0000 0.66480  0.72980  0.99400  Biso   1.000  H
  H326     1.0000 0.83520  0.27020  0.49400  Biso   1.000  H
  H327     1.0000 0.83520  0.72980  0.50600  Biso   1.000  H
  H328     1.0000 0.66480  0.27020  0.00600  Biso   1.000  H
  H329     1.0000 0.02020  0.08520  0.25600  Biso   1.000  H
  H330     1.0000 0.97980  0.41480  0.25600  Biso   1.000  H
  H331     1.0000 0.02020  0.91480  0.74400  Biso   1.000  H
  H332     1.0000 0.97980  0.58520  0.74400  Biso   1.000  H
  H333     1.0000 0.16480  0.22980  0.49400  Biso   1.000  H
  H334     1.0000 0.33520  0.77020  0.99400  Biso   1.000  H
  H335     1.0000 0.33520  0.22980  0.00600  Biso   1.000  H
  H336     1.0000 0.16480  0.77020  0.50600  Biso   1.000  H
  H337     1.0000 0.41170  0.39090  0.23250  Biso   1.000  H
  H338     1.0000 0.58830  0.10910  0.23250  Biso   1.000  H
  H339     1.0000 0.41170  0.60910  0.76750  Biso   1.000  H
  H340     1.0000 0.58830  0.89090  0.76750  Biso   1.000  H
  H341     1.0000 0.85910  0.83830  0.51750  Biso   1.000  H
  H342     1.0000 0.64090  0.16170  0.01750  Biso   1.000  H
  H343     1.0000 0.64090  0.83830  0.98250  Biso   1.000  H
  H344     1.0000 0.85910  0.16170  0.48250  Biso   1.000  H
  H345     1.0000 0.91170  0.89090  0.73250  Biso   1.000  H
  H346     1.0000 0.08830  0.60910  0.73250  Biso   1.000  H
  H347     1.0000 0.91170  0.10910  0.26750  Biso   1.000  H
  H348     1.0000 0.08830  0.39090  0.26750  Biso   1.000  H
  H349     1.0000 0.35910  0.33830  0.01750  Biso   1.000  H
  H350     1.0000 0.14090  0.66170  0.51750  Biso   1.000  H
  H351     1.0000 0.14090  0.33830  0.48250  Biso   1.000  H
  H352     1.0000 0.35910  0.66170  0.98250  Biso   1.000  H
  H353     1.0000 0.58830  0.60910  0.76750  Biso   1.000  H
  H354     1.0000 0.41170  0.89090  0.76750  Biso   1.000  H
  H355     1.0000 0.58830  0.39090  0.23250  Biso   1.000  H
  H356     1.0000 0.41170  0.10910  0.23250  Biso   1.000  H
  H357     1.0000 0.64090  0.66170  0.98250  Biso   1.000  H
  H358     1.0000 0.85910  0.33830  0.48250  Biso   1.000  H
  H359     1.0000 0.85910  0.66170  0.51750  Biso   1.000  H
  H360     1.0000 0.64090  0.33830  0.01750  Biso   1.000  H
  H361     1.0000 0.08830  0.10910  0.26750  Biso   1.000  H
  H362     1.0000 0.91170  0.39090  0.26750  Biso   1.000  H
  H363     1.0000 0.08830  0.89090  0.73250  Biso   1.000  H
  H364     1.0000 0.91170  0.60910  0.73250  Biso   1.000  H
  H365     1.0000 0.14090  0.16170  0.48250  Biso   1.000  H
  H366     1.0000 0.35910  0.83830  0.98250  Biso   1.000  H
  H367     1.0000 0.35910  0.16170  0.01750  Biso   1.000  H
  H368     1.0000 0.14090  0.83830  0.51750  Biso   1.000  H
  H369     1.0000 0.41720  0.39160  0.25840  Biso   1.000  H
  H370     1.0000 0.58280  0.10840  0.25840  Biso   1.000  H
  H371     1.0000 0.41720  0.60840  0.74160  Biso   1.000  H
  H372     1.0000 0.58280  0.89160  0.74160  Biso   1.000  H
  H373     1.0000 0.85840  0.83280  0.49160  Biso   1.000  H
  H374     1.0000 0.64160  0.16720  0.99160  Biso   1.000  H
  H375     1.0000 0.64160  0.83280  0.00840  Biso   1.000  H
  H376     1.0000 0.85840  0.16720  0.50840  Biso   1.000  H
  H377     1.0000 0.91720  0.89160  0.75840  Biso   1.000  H
  H378     1.0000 0.08280  0.60840  0.75840  Biso   1.000  H
  H379     1.0000 0.91720  0.10840  0.24160  Biso   1.000  H
  H380     1.0000 0.08280  0.39160  0.24160  Biso   1.000  H
  H381     1.0000 0.35840  0.33280  0.99160  Biso   1.000  H
  H382     1.0000 0.14160  0.66720  0.49160  Biso   1.000  H
  H383     1.0000 0.14160  0.33280  0.50840  Biso   1.000  H
  H384     1.0000 0.35840  0.66720  0.00840  Biso   1.000  H
  H385     1.0000 0.58280  0.60840  0.74160  Biso   1.000  H
  H386     1.0000 0.41720  0.89160  0.74160  Biso   1.000  H
  H387     1.0000 0.58280  0.39160  0.25840  Biso   1.000  H
  H388     1.0000 0.41720  0.10840  0.25840  Biso   1.000  H
  H389     1.0000 0.64160  0.66720  0.00840  Biso   1.000  H
  H390     1.0000 0.85840  0.33280  0.50840  Biso   1.000  H
  H391     1.0000 0.85840  0.66720  0.49160  Biso   1.000  H
  H392     1.0000 0.64160  0.33280  0.99160  Biso   1.000  H
  H393     1.0000 0.08280  0.10840  0.24160  Biso   1.000  H
  H394     1.0000 0.91720  0.39160  0.24160  Biso   1.000  H
  H395     1.0000 0.08280  0.89160  0.75840  Biso   1.000  H
  H396     1.0000 0.91720  0.60840  0.75840  Biso   1.000  H
  H397     1.0000 0.14160  0.16720  0.50840  Biso   1.000  H
  H398     1.0000 0.35840  0.83280  0.00840  Biso   1.000  H
  H399     1.0000 0.35840  0.16720  0.99160  Biso   1.000  H
  H400     1.0000 0.14160  0.83280  0.49160  Biso   1.000  H
  H401     1.0000 0.44200  0.25000  0.21280  Biso   1.000  H
  H402     1.0000 0.55800  0.25000  0.21280  Biso   1.000  H
  H403     1.0000 0.44200  0.75000  0.78720  Biso   1.000  H
  H404     1.0000 0.55800  0.75000  0.78720  Biso   1.000  H
  H405     1.0000 0.00000  0.80800  0.53720  Biso   1.000  H
  H406     1.0000 0.50000  0.19200  0.03720  Biso   1.000  H
  H407     1.0000 0.50000  0.80800  0.96280  Biso   1.000  H
  H408     1.0000 0.00000  0.19200  0.46280  Biso   1.000  H
  H409     1.0000 0.94200  0.75000  0.71280  Biso   1.000  H
  H410     1.0000 0.05800  0.75000  0.71280  Biso   1.000  H
  H411     1.0000 0.94200  0.25000  0.28720  Biso   1.000  H
  H412     1.0000 0.05800  0.25000  0.28720  Biso   1.000  H
  H413     1.0000 0.50000  0.30800  0.03720  Biso   1.000  H
  H414     1.0000 0.00000  0.69200  0.53720  Biso   1.000  H
  H415     1.0000 0.00000  0.30800  0.46280  Biso   1.000  H
  H416     1.0000 0.50000  0.69200  0.96280  Biso   1.000  H
  H417     1.0000 0.50000  0.25000  0.29920  Biso   1.000  H
  H418     1.0000 0.50000  0.75000  0.70080  Biso   1.000  H
  H419     1.0000 0.00000  0.75000  0.45080  Biso   1.000  H
  H420     1.0000 0.50000  0.25000  0.95080  Biso   1.000  H
  H421     1.0000 0.50000  0.75000  0.04920  Biso   1.000  H
  H422     1.0000 0.00000  0.25000  0.54920  Biso   1.000  H
  H423     1.0000 0.00000  0.75000  0.79920  Biso   1.000  H
  H424     1.0000 0.00000  0.25000  0.20080  Biso   1.000  H
  H425     1.0000 0.42530  0.29020  0.29460  Biso   1.000  H
  H426     1.0000 0.57470  0.20980  0.29460  Biso   1.000  H
  H427     1.0000 0.42530  0.70980  0.70540  Biso   1.000  H
  H428     1.0000 0.57470  0.79020  0.70540  Biso   1.000  H
  H429     1.0000 0.95980  0.82470  0.45540  Biso   1.000  H
  H430     1.0000 0.54020  0.17530  0.95540  Biso   1.000  H
  H431     1.0000 0.54020  0.82470  0.04460  Biso   1.000  H
  H432     1.0000 0.95980  0.17530  0.54460  Biso   1.000  H
  H433     1.0000 0.92530  0.79020  0.79460  Biso   1.000  H
  H434     1.0000 0.07470  0.70980  0.79460  Biso   1.000  H
  H435     1.0000 0.92530  0.20980  0.20540  Biso   1.000  H
  H436     1.0000 0.07470  0.29020  0.20540  Biso   1.000  H
  H437     1.0000 0.45980  0.32470  0.95540  Biso   1.000  H
  H438     1.0000 0.04020  0.67530  0.45540  Biso   1.000  H
  H439     1.0000 0.04020  0.32470  0.54460  Biso   1.000  H
  H440     1.0000 0.45980  0.67530  0.04460  Biso   1.000  H
  H441     1.0000 0.57470  0.70980  0.70540  Biso   1.000  H
  H442     1.0000 0.42530  0.79020  0.70540  Biso   1.000  H
  H443     1.0000 0.57470  0.29020  0.29460  Biso   1.000  H
  H444     1.0000 0.42530  0.20980  0.29460  Biso   1.000  H
  H445     1.0000 0.54020  0.67530  0.04460  Biso   1.000  H
  H446     1.0000 0.95980  0.32470  0.54460  Biso   1.000  H
  H447     1.0000 0.95980  0.67530  0.45540  Biso   1.000  H
  H448     1.0000 0.54020  0.32470  0.95540  Biso   1.000  H
  H449     1.0000 0.07470  0.20980  0.20540  Biso   1.000  H
  H450     1.0000 0.92530  0.29020  0.20540  Biso   1.000  H
  H451     1.0000 0.07470  0.79020  0.79460  Biso   1.000  H
  H452     1.0000 0.92530  0.70980  0.79460  Biso   1.000  H
  H453     1.0000 0.04020  0.17530  0.54460  Biso   1.000  H
  H454     1.0000 0.45980  0.82470  0.04460  Biso   1.000  H
  H455     1.0000 0.45980  0.17530  0.95540  Biso   1.000  H
  H456     1.0000 0.04020  0.82470  0.45540  Biso   1.000  H
