data_image0
_cell_length_a       19.73
_cell_length_b       19.73
_cell_length_c       60.06
_cell_angle_alpha    90
_cell_angle_beta     90
_cell_angle_gamma    90

_symmetry_space_group_name_H-M    "P 1"
_symmetry_int_tables_number       1

loop_
  _symmetry_equiv_pos_as_xyz
  'x, y, z'

loop_
  _atom_site_label
  _atom_site_occupancy
  _atom_site_fract_x
  _atom_site_fract_y
  _atom_site_fract_z
  _atom_site_thermal_displace_type
  _atom_site_B_iso_or_equiv
  _atom_site_type_symbol
  Cu1      1.0000 0.50000  0.56611  0.49679  Biso   1.000  Cu
  Cu2      1.0000 0.00000  0.43389  0.99679  Biso   1.000  Cu
  Cu3      1.0000 0.68389  0.25000  0.74679  Biso   1.000  Cu
  Cu4      1.0000 0.81611  0.75000  0.24679  Biso   1.000  Cu
  Cu5      1.0000 0.00000  0.56611  0.00321  Biso   1.000  Cu
  Cu6      1.0000 0.50000  0.43389  0.50321  Biso   1.000  Cu
  Cu7      1.0000 0.81611  0.25000  0.75321  Biso   1.000  Cu
  Cu8      1.0000 0.68389  0.75000  0.25321  Biso   1.000  Cu
  Cu9      1.0000 0.00000  0.06611  0.99679  Biso   1.000  Cu
  Cu10     1.0000 0.50000  0.93389  0.49679  Biso   1.000  Cu
  Cu11     1.0000 0.18389  0.75000  0.24679  Biso   1.000  Cu
  Cu12     1.0000 0.31611  0.25000  0.74679  Biso   1.000  Cu
  Cu13     1.0000 0.50000  0.06611  0.50321  Biso   1.000  Cu
  Cu14     1.0000 0.00000  0.93389  0.00321  Biso   1.000  Cu
  Cu15     1.0000 0.31611  0.75000  0.25321  Biso   1.000  Cu
  Cu16     1.0000 0.18389  0.25000  0.75321  Biso   1.000  Cu
  Cu17     1.0000 0.00000  0.75000  0.60305  Biso   1.000  Cu
  Cu18     1.0000 0.50000  0.25000  0.10305  Biso   1.000  Cu
  Cu19     1.0000 0.50000  0.75000  0.85305  Biso   1.000  Cu
  Cu20     1.0000 0.00000  0.25000  0.35305  Biso   1.000  Cu
  Cu21     1.0000 0.50000  0.75000  0.89695  Biso   1.000  Cu
  Cu22     1.0000 0.00000  0.25000  0.39695  Biso   1.000  Cu
  Cu23     1.0000 0.00000  0.75000  0.64695  Biso   1.000  Cu
  Cu24     1.0000 0.50000  0.25000  0.14695  Biso   1.000  Cu
  O1       1.0000 0.56887  0.56744  0.52051  Biso   1.000  O
  O2       1.0000 0.93113  0.43256  0.02051  Biso   1.000  O
  O3       1.0000 0.68256  0.31887  0.77051  Biso   1.000  O
  O4       1.0000 0.81744  0.68113  0.27051  Biso   1.000  O
  O5       1.0000 0.93113  0.56744  0.97949  Biso   1.000  O
  O6       1.0000 0.56887  0.43256  0.47949  Biso   1.000  O
  O7       1.0000 0.81744  0.31887  0.72949  Biso   1.000  O
  O8       1.0000 0.68256  0.68113  0.22949  Biso   1.000  O
  O9       1.0000 0.06887  0.06744  0.02051  Biso   1.000  O
  O10      1.0000 0.43113  0.93256  0.52051  Biso   1.000  O
  O11      1.0000 0.18256  0.81887  0.27051  Biso   1.000  O
  O12      1.0000 0.31744  0.18113  0.77051  Biso   1.000  O
  O13      1.0000 0.43113  0.06744  0.47949  Biso   1.000  O
  O14      1.0000 0.06887  0.93256  0.97949  Biso   1.000  O
  O15      1.0000 0.31744  0.81887  0.22949  Biso   1.000  O
  O16      1.0000 0.18256  0.18113  0.72949  Biso   1.000  O
  O17      1.0000 0.43113  0.43256  0.47949  Biso   1.000  O
  O18      1.0000 0.06887  0.56744  0.97949  Biso   1.000  O
  O19      1.0000 0.81744  0.18113  0.72949  Biso   1.000  O
  O20      1.0000 0.68256  0.81887  0.22949  Biso   1.000  O
  O21      1.0000 0.06887  0.43256  0.02051  Biso   1.000  O
  O22      1.0000 0.43113  0.56744  0.52051  Biso   1.000  O
  O23      1.0000 0.68256  0.18113  0.77051  Biso   1.000  O
  O24      1.0000 0.81744  0.81887  0.27051  Biso   1.000  O
  O25      1.0000 0.93113  0.93256  0.97949  Biso   1.000  O
  O26      1.0000 0.56887  0.06744  0.47949  Biso   1.000  O
  O27      1.0000 0.31744  0.68113  0.22949  Biso   1.000  O
  O28      1.0000 0.18256  0.31887  0.72949  Biso   1.000  O
  O29      1.0000 0.56887  0.93256  0.52051  Biso   1.000  O
  O30      1.0000 0.93113  0.06744  0.02051  Biso   1.000  O
  O31      1.0000 0.18256  0.68113  0.27051  Biso   1.000  O
  O32      1.0000 0.31744  0.31887  0.77051  Biso   1.000  O
  O33      1.0000 0.56903  0.45535  0.52552  Biso   1.000  O
  O34      1.0000 0.93097  0.54465  0.02552  Biso   1.000  O
  O35      1.0000 0.79465  0.31903  0.77552  Biso   1.000  O
  O36      1.0000 0.70535  0.68097  0.27552  Biso   1.000  O
  O37      1.0000 0.93097  0.45535  0.97448  Biso   1.000  O
  O38      1.0000 0.56903  0.54465  0.47448  Biso   1.000  O
  O39      1.0000 0.70535  0.31903  0.72448  Biso   1.000  O
  O40      1.0000 0.79465  0.68097  0.22448  Biso   1.000  O
  O41      1.0000 0.06903  0.95535  0.02552  Biso   1.000  O
  O42      1.0000 0.43097  0.04465  0.52552  Biso   1.000  O
  O43      1.0000 0.29465  0.81903  0.27552  Biso   1.000  O
  O44      1.0000 0.20535  0.18097  0.77552  Biso   1.000  O
  O45      1.0000 0.43097  0.95535  0.47448  Biso   1.000  O
  O46      1.0000 0.06903  0.04465  0.97448  Biso   1.000  O
  O47      1.0000 0.20535  0.81903  0.22448  Biso   1.000  O
  O48      1.0000 0.29465  0.18097  0.72448  Biso   1.000  O
  O49      1.0000 0.43097  0.54465  0.47448  Biso   1.000  O
  O50      1.0000 0.06903  0.45535  0.97448  Biso   1.000  O
  O51      1.0000 0.70535  0.18097  0.72448  Biso   1.000  O
  O52      1.0000 0.79465  0.81903  0.22448  Biso   1.000  O
  O53      1.0000 0.06903  0.54465  0.02552  Biso   1.000  O
  O54      1.0000 0.43097  0.45535  0.52552  Biso   1.000  O
  O55      1.0000 0.79465  0.18097  0.77552  Biso   1.000  O
  O56      1.0000 0.70535  0.81903  0.27552  Biso   1.000  O
  O57      1.0000 0.93097  0.04465  0.97448  Biso   1.000  O
  O58      1.0000 0.56903  0.95535  0.47448  Biso   1.000  O
  O59      1.0000 0.20535  0.68097  0.22448  Biso   1.000  O
  O60      1.0000 0.29465  0.31903  0.72448  Biso   1.000  O
  O61      1.0000 0.56903  0.04465  0.52552  Biso   1.000  O
  O62      1.0000 0.93097  0.95535  0.02552  Biso   1.000  O
  O63      1.0000 0.29465  0.68097  0.27552  Biso   1.000  O
  O64      1.0000 0.20535  0.31903  0.77552  Biso   1.000  O
  O65      1.0000 0.92988  0.68036  0.60656  Biso   1.000  O
  O66      1.0000 0.57012  0.31964  0.10656  Biso   1.000  O
  O67      1.0000 0.56964  0.67988  0.85656  Biso   1.000  O
  O68      1.0000 0.93036  0.32012  0.35656  Biso   1.000  O
  O69      1.0000 0.57012  0.68036  0.89344  Biso   1.000  O
  O70      1.0000 0.92988  0.31964  0.39344  Biso   1.000  O
  O71      1.0000 0.93036  0.67988  0.64344  Biso   1.000  O
  O72      1.0000 0.56964  0.32012  0.14344  Biso   1.000  O
  O73      1.0000 0.42988  0.18036  0.10656  Biso   1.000  O
  O74      1.0000 0.07012  0.81964  0.60656  Biso   1.000  O
  O75      1.0000 0.06964  0.17988  0.35656  Biso   1.000  O
  O76      1.0000 0.43036  0.82012  0.85656  Biso   1.000  O
  O77      1.0000 0.07012  0.18036  0.39344  Biso   1.000  O
  O78      1.0000 0.42988  0.81964  0.89344  Biso   1.000  O
  O79      1.0000 0.43036  0.17988  0.14344  Biso   1.000  O
  O80      1.0000 0.06964  0.82012  0.64344  Biso   1.000  O
  O81      1.0000 0.07012  0.31964  0.39344  Biso   1.000  O
  O82      1.0000 0.42988  0.68036  0.89344  Biso   1.000  O
  O83      1.0000 0.93036  0.82012  0.64344  Biso   1.000  O
  O84      1.0000 0.56964  0.17988  0.14344  Biso   1.000  O
  O85      1.0000 0.42988  0.31964  0.10656  Biso   1.000  O
  O86      1.0000 0.07012  0.68036  0.60656  Biso   1.000  O
  O87      1.0000 0.56964  0.82012  0.85656  Biso   1.000  O
  O88      1.0000 0.93036  0.17988  0.35656  Biso   1.000  O
  O89      1.0000 0.57012  0.81964  0.89344  Biso   1.000  O
  O90      1.0000 0.92988  0.18036  0.39344  Biso   1.000  O
  O91      1.0000 0.43036  0.32012  0.14344  Biso   1.000  O
  O92      1.0000 0.06964  0.67988  0.64344  Biso   1.000  O
  O93      1.0000 0.92988  0.81964  0.60656  Biso   1.000  O
  O94      1.0000 0.57012  0.18036  0.10656  Biso   1.000  O
  O95      1.0000 0.06964  0.32012  0.35656  Biso   1.000  O
  O96      1.0000 0.43036  0.67988  0.85656  Biso   1.000  O
  O97      1.0000 0.00000  0.75000  0.56634  Biso   1.000  O
  O98      1.0000 0.50000  0.25000  0.06634  Biso   1.000  O
  O99      1.0000 0.50000  0.75000  0.81634  Biso   1.000  O
  O100     1.0000 0.00000  0.25000  0.31634  Biso   1.000  O
  O101     1.0000 0.50000  0.75000  0.93366  Biso   1.000  O
  O102     1.0000 0.00000  0.25000  0.43366  Biso   1.000  O
  O103     1.0000 0.00000  0.75000  0.68366  Biso   1.000  O
  O104     1.0000 0.50000  0.25000  0.18366  Biso   1.000  O
  H1       1.0000 0.02900  0.77880  0.55860  Biso   1.000  H
  H2       1.0000 0.47100  0.22120  0.05860  Biso   1.000  H
  H3       1.0000 0.47120  0.77900  0.80860  Biso   1.000  H
  H4       1.0000 0.02880  0.22100  0.30860  Biso   1.000  H
  H5       1.0000 0.47100  0.77880  0.94140  Biso   1.000  H
  H6       1.0000 0.02900  0.22120  0.44140  Biso   1.000  H
  H7       1.0000 0.02880  0.77900  0.69140  Biso   1.000  H
  H8       1.0000 0.47120  0.22100  0.19140  Biso   1.000  H
  H9       1.0000 0.52900  0.27880  0.05860  Biso   1.000  H
  H10      1.0000 0.97100  0.72120  0.55860  Biso   1.000  H
  H11      1.0000 0.97120  0.27900  0.30860  Biso   1.000  H
  H12      1.0000 0.52880  0.72100  0.80860  Biso   1.000  H
  H13      1.0000 0.97100  0.27880  0.44140  Biso   1.000  H
  H14      1.0000 0.52900  0.72120  0.94140  Biso   1.000  H
  H15      1.0000 0.52880  0.27900  0.19140  Biso   1.000  H
  H16      1.0000 0.97120  0.72100  0.69140  Biso   1.000  H
  H17      1.0000 0.97100  0.22120  0.44140  Biso   1.000  H
  H18      1.0000 0.52900  0.77880  0.94140  Biso   1.000  H
  H19      1.0000 0.02880  0.72100  0.69140  Biso   1.000  H
  H20      1.0000 0.47120  0.27900  0.19140  Biso   1.000  H
  H21      1.0000 0.52900  0.22120  0.05860  Biso   1.000  H
  H22      1.0000 0.97100  0.77880  0.55860  Biso   1.000  H
  H23      1.0000 0.47120  0.72100  0.80860  Biso   1.000  H
  H24      1.0000 0.02880  0.27900  0.30860  Biso   1.000  H
  H25      1.0000 0.47100  0.72120  0.94140  Biso   1.000  H
  H26      1.0000 0.02900  0.27880  0.44140  Biso   1.000  H
  H27      1.0000 0.52880  0.22100  0.19140  Biso   1.000  H
  H28      1.0000 0.97120  0.77900  0.69140  Biso   1.000  H
  H29      1.0000 0.02900  0.72120  0.55860  Biso   1.000  H
  H30      1.0000 0.47100  0.27880  0.05860  Biso   1.000  H
  H31      1.0000 0.97120  0.22100  0.30860  Biso   1.000  H
  H32      1.0000 0.52880  0.77900  0.80860  Biso   1.000  H
  N1       1.0000 0.50000  0.67810  0.49240  Biso   1.000  N
  N2       1.0000 0.00000  0.32190  0.99240  Biso   1.000  N
  N3       1.0000 0.57190  0.25000  0.74240  Biso   1.000  N
  N4       1.0000 0.92810  0.75000  0.24240  Biso   1.000  N
  N5       1.0000 0.00000  0.67810  0.00760  Biso   1.000  N
  N6       1.0000 0.50000  0.32190  0.50760  Biso   1.000  N
  N7       1.0000 0.92810  0.25000  0.75760  Biso   1.000  N
  N8       1.0000 0.57190  0.75000  0.25760  Biso   1.000  N
  N9       1.0000 0.00000  0.17810  0.99240  Biso   1.000  N
  N10      1.0000 0.50000  0.82190  0.49240  Biso   1.000  N
  N11      1.0000 0.07190  0.75000  0.24240  Biso   1.000  N
  N12      1.0000 0.42810  0.25000  0.74240  Biso   1.000  N
  N13      1.0000 0.50000  0.17810  0.50760  Biso   1.000  N
  N14      1.0000 0.00000  0.82190  0.00760  Biso   1.000  N
  N15      1.0000 0.42810  0.75000  0.25760  Biso   1.000  N
  N16      1.0000 0.07190  0.25000  0.75760  Biso   1.000  N
  C1       1.0000 0.58831  0.51523  0.53028  Biso   1.000  C
  C2       1.0000 0.91169  0.48477  0.03028  Biso   1.000  C
  C3       1.0000 0.73477  0.33831  0.78028  Biso   1.000  C
  C4       1.0000 0.76523  0.66169  0.28028  Biso   1.000  C
  C5       1.0000 0.91169  0.51523  0.96972  Biso   1.000  C
  C6       1.0000 0.58831  0.48477  0.46972  Biso   1.000  C
  C7       1.0000 0.76523  0.33831  0.71972  Biso   1.000  C
  C8       1.0000 0.73477  0.66169  0.21972  Biso   1.000  C
  C9       1.0000 0.08831  0.01523  0.03028  Biso   1.000  C
  C10      1.0000 0.41169  0.98477  0.53028  Biso   1.000  C
  C11      1.0000 0.23477  0.83831  0.28028  Biso   1.000  C
  C12      1.0000 0.26523  0.16169  0.78028  Biso   1.000  C
  C13      1.0000 0.41169  0.01523  0.46972  Biso   1.000  C
  C14      1.0000 0.08831  0.98477  0.96972  Biso   1.000  C
  C15      1.0000 0.26523  0.83831  0.21972  Biso   1.000  C
  C16      1.0000 0.23477  0.16169  0.71972  Biso   1.000  C
  C17      1.0000 0.41169  0.48477  0.46972  Biso   1.000  C
  C18      1.0000 0.08831  0.51523  0.96972  Biso   1.000  C
  C19      1.0000 0.76523  0.16169  0.71972  Biso   1.000  C
  C20      1.0000 0.73477  0.83831  0.21972  Biso   1.000  C
  C21      1.0000 0.08831  0.48477  0.03028  Biso   1.000  C
  C22      1.0000 0.41169  0.51523  0.53028  Biso   1.000  C
  C23      1.0000 0.73477  0.16169  0.78028  Biso   1.000  C
  C24      1.0000 0.76523  0.83831  0.28028  Biso   1.000  C
  C25      1.0000 0.91169  0.98477  0.96972  Biso   1.000  C
  C26      1.0000 0.58831  0.01523  0.46972  Biso   1.000  C
  C27      1.0000 0.26523  0.66169  0.21972  Biso   1.000  C
  C28      1.0000 0.23477  0.33831  0.71972  Biso   1.000  C
  C29      1.0000 0.58831  0.98477  0.53028  Biso   1.000  C
  C30      1.0000 0.91169  0.01523  0.03028  Biso   1.000  C
  C31      1.0000 0.23477  0.66169  0.28028  Biso   1.000  C
  C32      1.0000 0.26523  0.33831  0.78028  Biso   1.000  C
  C33      1.0000 0.63620  0.52291  0.54919  Biso   1.000  C
  C34      1.0000 0.86380  0.47709  0.04919  Biso   1.000  C
  C35      1.0000 0.72709  0.38620  0.79919  Biso   1.000  C
  C36      1.0000 0.77291  0.61380  0.29919  Biso   1.000  C
  C37      1.0000 0.86380  0.52291  0.95081  Biso   1.000  C
  C38      1.0000 0.63620  0.47709  0.45081  Biso   1.000  C
  C39      1.0000 0.77291  0.38620  0.70081  Biso   1.000  C
  C40      1.0000 0.72709  0.61380  0.20081  Biso   1.000  C
  C41      1.0000 0.13620  0.02291  0.04919  Biso   1.000  C
  C42      1.0000 0.36380  0.97709  0.54919  Biso   1.000  C
  C43      1.0000 0.22709  0.88620  0.29919  Biso   1.000  C
  C44      1.0000 0.27291  0.11380  0.79919  Biso   1.000  C
  C45      1.0000 0.36380  0.02291  0.45081  Biso   1.000  C
  C46      1.0000 0.13620  0.97709  0.95081  Biso   1.000  C
  C47      1.0000 0.27291  0.88620  0.20081  Biso   1.000  C
  C48      1.0000 0.22709  0.11380  0.70081  Biso   1.000  C
  C49      1.0000 0.36380  0.47709  0.45081  Biso   1.000  C
  C50      1.0000 0.13620  0.52291  0.95081  Biso   1.000  C
  C51      1.0000 0.77291  0.11380  0.70081  Biso   1.000  C
  C52      1.0000 0.72709  0.88620  0.20081  Biso   1.000  C
  C53      1.0000 0.13620  0.47709  0.04919  Biso   1.000  C
  C54      1.0000 0.36380  0.52291  0.54919  Biso   1.000  C
  C55      1.0000 0.72709  0.11380  0.79919  Biso   1.000  C
  C56      1.0000 0.77291  0.88620  0.29919  Biso   1.000  C
  C57      1.0000 0.86380  0.97709  0.95081  Biso   1.000  C
  C58      1.0000 0.63620  0.02291  0.45081  Biso   1.000  C
  C59      1.0000 0.27291  0.61380  0.20081  Biso   1.000  C
  C60      1.0000 0.22709  0.38620  0.70081  Biso   1.000  C
  C61      1.0000 0.63620  0.97709  0.54919  Biso   1.000  C
  C62      1.0000 0.86380  0.02291  0.04919  Biso   1.000  C
  C63      1.0000 0.22709  0.61380  0.29919  Biso   1.000  C
  C64      1.0000 0.27291  0.38620  0.79919  Biso   1.000  C
  C65      1.0000 0.65680  0.46645  0.56095  Biso   1.000  C
  C66      1.0000 0.84320  0.53355  0.06095  Biso   1.000  C
  C67      1.0000 0.78355  0.40680  0.81095  Biso   1.000  C
  C68      1.0000 0.71645  0.59320  0.31095  Biso   1.000  C
  C69      1.0000 0.84320  0.46645  0.93905  Biso   1.000  C
  C70      1.0000 0.65680  0.53355  0.43905  Biso   1.000  C
  C71      1.0000 0.71645  0.40680  0.68905  Biso   1.000  C
  C72      1.0000 0.78355  0.59320  0.18905  Biso   1.000  C
  C73      1.0000 0.15680  0.96645  0.06095  Biso   1.000  C
  C74      1.0000 0.34320  0.03355  0.56095  Biso   1.000  C
  C75      1.0000 0.28355  0.90680  0.31095  Biso   1.000  C
  C76      1.0000 0.21645  0.09320  0.81095  Biso   1.000  C
  C77      1.0000 0.34320  0.96645  0.43905  Biso   1.000  C
  C78      1.0000 0.15680  0.03355  0.93905  Biso   1.000  C
  C79      1.0000 0.21645  0.90680  0.18905  Biso   1.000  C
  C80      1.0000 0.28355  0.09320  0.68905  Biso   1.000  C
  C81      1.0000 0.34320  0.53355  0.43905  Biso   1.000  C
  C82      1.0000 0.15680  0.46645  0.93905  Biso   1.000  C
  C83      1.0000 0.71645  0.09320  0.68905  Biso   1.000  C
  C84      1.0000 0.78355  0.90680  0.18905  Biso   1.000  C
  C85      1.0000 0.15680  0.53355  0.06095  Biso   1.000  C
  C86      1.0000 0.34320  0.46645  0.56095  Biso   1.000  C
  C87      1.0000 0.78355  0.09320  0.81095  Biso   1.000  C
  C88      1.0000 0.71645  0.90680  0.31095  Biso   1.000  C
  C89      1.0000 0.84320  0.03355  0.93905  Biso   1.000  C
  C90      1.0000 0.65680  0.96645  0.43905  Biso   1.000  C
  C91      1.0000 0.21645  0.59320  0.18905  Biso   1.000  C
  C92      1.0000 0.28355  0.40680  0.68905  Biso   1.000  C
  C93      1.0000 0.65680  0.03355  0.56095  Biso   1.000  C
  C94      1.0000 0.84320  0.96645  0.06095  Biso   1.000  C
  C95      1.0000 0.28355  0.59320  0.31095  Biso   1.000  C
  C96      1.0000 0.21645  0.40680  0.81095  Biso   1.000  C
  H33      1.0000 0.64270  0.42350  0.55660  Biso   1.000  H
  H34      1.0000 0.85730  0.57650  0.05660  Biso   1.000  H
  H35      1.0000 0.82650  0.39270  0.80660  Biso   1.000  H
  H36      1.0000 0.67350  0.60730  0.30660  Biso   1.000  H
  H37      1.0000 0.85730  0.42350  0.94340  Biso   1.000  H
  H38      1.0000 0.64270  0.57650  0.44340  Biso   1.000  H
  H39      1.0000 0.67350  0.39270  0.69340  Biso   1.000  H
  H40      1.0000 0.82650  0.60730  0.19340  Biso   1.000  H
  H41      1.0000 0.14270  0.92350  0.05660  Biso   1.000  H
  H42      1.0000 0.35730  0.07650  0.55660  Biso   1.000  H
  H43      1.0000 0.32650  0.89270  0.30660  Biso   1.000  H
  H44      1.0000 0.17350  0.10730  0.80660  Biso   1.000  H
  H45      1.0000 0.35730  0.92350  0.44340  Biso   1.000  H
  H46      1.0000 0.14270  0.07650  0.94340  Biso   1.000  H
  H47      1.0000 0.17350  0.89270  0.19340  Biso   1.000  H
  H48      1.0000 0.32650  0.10730  0.69340  Biso   1.000  H
  H49      1.0000 0.35730  0.57650  0.44340  Biso   1.000  H
  H50      1.0000 0.14270  0.42350  0.94340  Biso   1.000  H
  H51      1.0000 0.67350  0.10730  0.69340  Biso   1.000  H
  H52      1.0000 0.82650  0.89270  0.19340  Biso   1.000  H
  H53      1.0000 0.14270  0.57650  0.05660  Biso   1.000  H
  H54      1.0000 0.35730  0.42350  0.55660  Biso   1.000  H
  H55      1.0000 0.82650  0.10730  0.80660  Biso   1.000  H
  H56      1.0000 0.67350  0.89270  0.30660  Biso   1.000  H
  H57      1.0000 0.85730  0.07650  0.94340  Biso   1.000  H
  H58      1.0000 0.64270  0.92350  0.44340  Biso   1.000  H
  H59      1.0000 0.17350  0.60730  0.19340  Biso   1.000  H
  H60      1.0000 0.32650  0.39270  0.69340  Biso   1.000  H
  H61      1.0000 0.64270  0.07650  0.55660  Biso   1.000  H
  H62      1.0000 0.85730  0.92350  0.05660  Biso   1.000  H
  H63      1.0000 0.32650  0.60730  0.30660  Biso   1.000  H
  H64      1.0000 0.17350  0.39270  0.80660  Biso   1.000  H
  C97      1.0000 0.69870  0.47417  0.57933  Biso   1.000  C
  C98      1.0000 0.80130  0.52583  0.07933  Biso   1.000  C
  C99      1.0000 0.77583  0.44870  0.82933  Biso   1.000  C
  C100     1.0000 0.72417  0.55130  0.32933  Biso   1.000  C
  C101     1.0000 0.80130  0.47417  0.92067  Biso   1.000  C
  C102     1.0000 0.69870  0.52583  0.42067  Biso   1.000  C
  C103     1.0000 0.72417  0.44870  0.67067  Biso   1.000  C
  C104     1.0000 0.77583  0.55130  0.17067  Biso   1.000  C
  C105     1.0000 0.19870  0.97417  0.07933  Biso   1.000  C
  C106     1.0000 0.30130  0.02583  0.57933  Biso   1.000  C
  C107     1.0000 0.27583  0.94870  0.32933  Biso   1.000  C
  C108     1.0000 0.22417  0.05130  0.82933  Biso   1.000  C
  C109     1.0000 0.30130  0.97417  0.42067  Biso   1.000  C
  C110     1.0000 0.19870  0.02583  0.92067  Biso   1.000  C
  C111     1.0000 0.22417  0.94870  0.17067  Biso   1.000  C
  C112     1.0000 0.27583  0.05130  0.67067  Biso   1.000  C
  C113     1.0000 0.30130  0.52583  0.42067  Biso   1.000  C
  C114     1.0000 0.19870  0.47417  0.92067  Biso   1.000  C
  C115     1.0000 0.72417  0.05130  0.67067  Biso   1.000  C
  C116     1.0000 0.77583  0.94870  0.17067  Biso   1.000  C
  C117     1.0000 0.19870  0.52583  0.07933  Biso   1.000  C
  C118     1.0000 0.30130  0.47417  0.57933  Biso   1.000  C
  C119     1.0000 0.77583  0.05130  0.82933  Biso   1.000  C
  C120     1.0000 0.72417  0.94870  0.32933  Biso   1.000  C
  C121     1.0000 0.80130  0.02583  0.92067  Biso   1.000  C
  C122     1.0000 0.69870  0.97417  0.42067  Biso   1.000  C
  C123     1.0000 0.22417  0.55130  0.17067  Biso   1.000  C
  C124     1.0000 0.27583  0.44870  0.67067  Biso   1.000  C
  C125     1.0000 0.69870  0.02583  0.57933  Biso   1.000  C
  C126     1.0000 0.80130  0.97417  0.07933  Biso   1.000  C
  C127     1.0000 0.27583  0.55130  0.32933  Biso   1.000  C
  C128     1.0000 0.22417  0.44870  0.82933  Biso   1.000  C
  H65      1.0000 0.71170  0.43600  0.58730  Biso   1.000  H
  H66      1.0000 0.78830  0.56400  0.08730  Biso   1.000  H
  H67      1.0000 0.81400  0.46170  0.83730  Biso   1.000  H
  H68      1.0000 0.68600  0.53830  0.33730  Biso   1.000  H
  H69      1.0000 0.78830  0.43600  0.91270  Biso   1.000  H
  H70      1.0000 0.71170  0.56400  0.41270  Biso   1.000  H
  H71      1.0000 0.68600  0.46170  0.66270  Biso   1.000  H
  H72      1.0000 0.81400  0.53830  0.16270  Biso   1.000  H
  H73      1.0000 0.21170  0.93600  0.08730  Biso   1.000  H
  H74      1.0000 0.28830  0.06400  0.58730  Biso   1.000  H
  H75      1.0000 0.31400  0.96170  0.33730  Biso   1.000  H
  H76      1.0000 0.18600  0.03830  0.83730  Biso   1.000  H
  H77      1.0000 0.28830  0.93600  0.41270  Biso   1.000  H
  H78      1.0000 0.21170  0.06400  0.91270  Biso   1.000  H
  H79      1.0000 0.18600  0.96170  0.16270  Biso   1.000  H
  H80      1.0000 0.31400  0.03830  0.66270  Biso   1.000  H
  H81      1.0000 0.28830  0.56400  0.41270  Biso   1.000  H
  H82      1.0000 0.21170  0.43600  0.91270  Biso   1.000  H
  H83      1.0000 0.68600  0.03830  0.66270  Biso   1.000  H
  H84      1.0000 0.81400  0.96170  0.16270  Biso   1.000  H
  H85      1.0000 0.21170  0.56400  0.08730  Biso   1.000  H
  H86      1.0000 0.28830  0.43600  0.58730  Biso   1.000  H
  H87      1.0000 0.81400  0.03830  0.83730  Biso   1.000  H
  H88      1.0000 0.68600  0.96170  0.33730  Biso   1.000  H
  H89      1.0000 0.78830  0.06400  0.91270  Biso   1.000  H
  H90      1.0000 0.71170  0.93600  0.41270  Biso   1.000  H
  H91      1.0000 0.18600  0.53830  0.16270  Biso   1.000  H
  H92      1.0000 0.31400  0.46170  0.66270  Biso   1.000  H
  H93      1.0000 0.71170  0.06400  0.58730  Biso   1.000  H
  H94      1.0000 0.78830  0.93600  0.08730  Biso   1.000  H
  H95      1.0000 0.31400  0.53830  0.33730  Biso   1.000  H
  H96      1.0000 0.18600  0.46170  0.83730  Biso   1.000  H
  C129     1.0000 0.72191  0.53805  0.58620  Biso   1.000  C
  C130     1.0000 0.77809  0.46195  0.08620  Biso   1.000  C
  C131     1.0000 0.71195  0.47191  0.83620  Biso   1.000  C
  C132     1.0000 0.78805  0.52809  0.33620  Biso   1.000  C
  C133     1.0000 0.77809  0.53805  0.91380  Biso   1.000  C
  C134     1.0000 0.72191  0.46195  0.41380  Biso   1.000  C
  C135     1.0000 0.78805  0.47191  0.66380  Biso   1.000  C
  C136     1.0000 0.71195  0.52809  0.16380  Biso   1.000  C
  C137     1.0000 0.22191  0.03805  0.08620  Biso   1.000  C
  C138     1.0000 0.27809  0.96195  0.58620  Biso   1.000  C
  C139     1.0000 0.21195  0.97191  0.33620  Biso   1.000  C
  C140     1.0000 0.28805  0.02809  0.83620  Biso   1.000  C
  C141     1.0000 0.27809  0.03805  0.41380  Biso   1.000  C
  C142     1.0000 0.22191  0.96195  0.91380  Biso   1.000  C
  C143     1.0000 0.28805  0.97191  0.16380  Biso   1.000  C
  C144     1.0000 0.21195  0.02809  0.66380  Biso   1.000  C
  C145     1.0000 0.27809  0.46195  0.41380  Biso   1.000  C
  C146     1.0000 0.22191  0.53805  0.91380  Biso   1.000  C
  C147     1.0000 0.78805  0.02809  0.66380  Biso   1.000  C
  C148     1.0000 0.71195  0.97191  0.16380  Biso   1.000  C
  C149     1.0000 0.22191  0.46195  0.08620  Biso   1.000  C
  C150     1.0000 0.27809  0.53805  0.58620  Biso   1.000  C
  C151     1.0000 0.71195  0.02809  0.83620  Biso   1.000  C
  C152     1.0000 0.78805  0.97191  0.33620  Biso   1.000  C
  C153     1.0000 0.77809  0.96195  0.91380  Biso   1.000  C
  C154     1.0000 0.72191  0.03805  0.41380  Biso   1.000  C
  C155     1.0000 0.28805  0.52809  0.16380  Biso   1.000  C
  C156     1.0000 0.21195  0.47191  0.66380  Biso   1.000  C
  C157     1.0000 0.72191  0.96195  0.58620  Biso   1.000  C
  C158     1.0000 0.77809  0.03805  0.08620  Biso   1.000  C
  C159     1.0000 0.21195  0.52809  0.33620  Biso   1.000  C
  C160     1.0000 0.28805  0.47191  0.83620  Biso   1.000  C
  C161     1.0000 0.70200  0.59294  0.57321  Biso   1.000  C
  C162     1.0000 0.79800  0.40706  0.07321  Biso   1.000  C
  C163     1.0000 0.65706  0.45200  0.82321  Biso   1.000  C
  C164     1.0000 0.84294  0.54800  0.32321  Biso   1.000  C
  C165     1.0000 0.79800  0.59294  0.92679  Biso   1.000  C
  C166     1.0000 0.70200  0.40706  0.42679  Biso   1.000  C
  C167     1.0000 0.84294  0.45200  0.67679  Biso   1.000  C
  C168     1.0000 0.65706  0.54800  0.17679  Biso   1.000  C
  C169     1.0000 0.20200  0.09294  0.07321  Biso   1.000  C
  C170     1.0000 0.29800  0.90706  0.57321  Biso   1.000  C
  C171     1.0000 0.15706  0.95200  0.32321  Biso   1.000  C
  C172     1.0000 0.34294  0.04800  0.82321  Biso   1.000  C
  C173     1.0000 0.29800  0.09294  0.42679  Biso   1.000  C
  C174     1.0000 0.20200  0.90706  0.92679  Biso   1.000  C
  C175     1.0000 0.34294  0.95200  0.17679  Biso   1.000  C
  C176     1.0000 0.15706  0.04800  0.67679  Biso   1.000  C
  C177     1.0000 0.29800  0.40706  0.42679  Biso   1.000  C
  C178     1.0000 0.20200  0.59294  0.92679  Biso   1.000  C
  C179     1.0000 0.84294  0.04800  0.67679  Biso   1.000  C
  C180     1.0000 0.65706  0.95200  0.17679  Biso   1.000  C
  C181     1.0000 0.20200  0.40706  0.07321  Biso   1.000  C
  C182     1.0000 0.29800  0.59294  0.57321  Biso   1.000  C
  C183     1.0000 0.65706  0.04800  0.82321  Biso   1.000  C
  C184     1.0000 0.84294  0.95200  0.32321  Biso   1.000  C
  C185     1.0000 0.79800  0.90706  0.92679  Biso   1.000  C
  C186     1.0000 0.70200  0.09294  0.42679  Biso   1.000  C
  C187     1.0000 0.34294  0.54800  0.17679  Biso   1.000  C
  C188     1.0000 0.15706  0.45200  0.67679  Biso   1.000  C
  C189     1.0000 0.70200  0.90706  0.57321  Biso   1.000  C
  C190     1.0000 0.79800  0.09294  0.07321  Biso   1.000  C
  C191     1.0000 0.15706  0.54800  0.32321  Biso   1.000  C
  C192     1.0000 0.34294  0.45200  0.82321  Biso   1.000  C
  H97      1.0000 0.71750  0.63600  0.57690  Biso   1.000  H
  H98      1.0000 0.78250  0.36400  0.07690  Biso   1.000  H
  H99      1.0000 0.61400  0.46750  0.82690  Biso   1.000  H
  H100     1.0000 0.88600  0.53250  0.32690  Biso   1.000  H
  H101     1.0000 0.78250  0.63600  0.92310  Biso   1.000  H
  H102     1.0000 0.71750  0.36400  0.42310  Biso   1.000  H
  H103     1.0000 0.88600  0.46750  0.67310  Biso   1.000  H
  H104     1.0000 0.61400  0.53250  0.17310  Biso   1.000  H
  H105     1.0000 0.21750  0.13600  0.07690  Biso   1.000  H
  H106     1.0000 0.28250  0.86400  0.57690  Biso   1.000  H
  H107     1.0000 0.11400  0.96750  0.32690  Biso   1.000  H
  H108     1.0000 0.38600  0.03250  0.82690  Biso   1.000  H
  H109     1.0000 0.28250  0.13600  0.42310  Biso   1.000  H
  H110     1.0000 0.21750  0.86400  0.92310  Biso   1.000  H
  H111     1.0000 0.38600  0.96750  0.17310  Biso   1.000  H
  H112     1.0000 0.11400  0.03250  0.67310  Biso   1.000  H
  H113     1.0000 0.28250  0.36400  0.42310  Biso   1.000  H
  H114     1.0000 0.21750  0.63600  0.92310  Biso   1.000  H
  H115     1.0000 0.88600  0.03250  0.67310  Biso   1.000  H
  H116     1.0000 0.61400  0.96750  0.17310  Biso   1.000  H
  H117     1.0000 0.21750  0.36400  0.07690  Biso   1.000  H
  H118     1.0000 0.28250  0.63600  0.57690  Biso   1.000  H
  H119     1.0000 0.61400  0.03250  0.82690  Biso   1.000  H
  H120     1.0000 0.88600  0.96750  0.32690  Biso   1.000  H
  H121     1.0000 0.78250  0.86400  0.92310  Biso   1.000  H
  H122     1.0000 0.71750  0.13600  0.42310  Biso   1.000  H
  H123     1.0000 0.38600  0.53250  0.17310  Biso   1.000  H
  H124     1.0000 0.11400  0.46750  0.67310  Biso   1.000  H
  H125     1.0000 0.71750  0.86400  0.57690  Biso   1.000  H
  H126     1.0000 0.78250  0.13600  0.07690  Biso   1.000  H
  H127     1.0000 0.11400  0.53250  0.32690  Biso   1.000  H
  H128     1.0000 0.38600  0.46750  0.82690  Biso   1.000  H
  C193     1.0000 0.66000  0.58535  0.55499  Biso   1.000  C
  C194     1.0000 0.84000  0.41465  0.05499  Biso   1.000  C
  C195     1.0000 0.66465  0.41000  0.80499  Biso   1.000  C
  C196     1.0000 0.83535  0.59000  0.30499  Biso   1.000  C
  C197     1.0000 0.84000  0.58535  0.94501  Biso   1.000  C
  C198     1.0000 0.66000  0.41465  0.44501  Biso   1.000  C
  C199     1.0000 0.83535  0.41000  0.69501  Biso   1.000  C
  C200     1.0000 0.66465  0.59000  0.19501  Biso   1.000  C
  C201     1.0000 0.16000  0.08535  0.05499  Biso   1.000  C
  C202     1.0000 0.34000  0.91465  0.55499  Biso   1.000  C
  C203     1.0000 0.16465  0.91000  0.30499  Biso   1.000  C
  C204     1.0000 0.33535  0.09000  0.80499  Biso   1.000  C
  C205     1.0000 0.34000  0.08535  0.44501  Biso   1.000  C
  C206     1.0000 0.16000  0.91465  0.94501  Biso   1.000  C
  C207     1.0000 0.33535  0.91000  0.19501  Biso   1.000  C
  C208     1.0000 0.16465  0.09000  0.69501  Biso   1.000  C
  C209     1.0000 0.34000  0.41465  0.44501  Biso   1.000  C
  C210     1.0000 0.16000  0.58535  0.94501  Biso   1.000  C
  C211     1.0000 0.83535  0.09000  0.69501  Biso   1.000  C
  C212     1.0000 0.66465  0.91000  0.19501  Biso   1.000  C
  C213     1.0000 0.16000  0.41465  0.05499  Biso   1.000  C
  C214     1.0000 0.34000  0.58535  0.55499  Biso   1.000  C
  C215     1.0000 0.66465  0.09000  0.80499  Biso   1.000  C
  C216     1.0000 0.83535  0.91000  0.30499  Biso   1.000  C
  C217     1.0000 0.84000  0.91465  0.94501  Biso   1.000  C
  C218     1.0000 0.66000  0.08535  0.44501  Biso   1.000  C
  C219     1.0000 0.33535  0.59000  0.19501  Biso   1.000  C
  C220     1.0000 0.16465  0.41000  0.69501  Biso   1.000  C
  C221     1.0000 0.66000  0.91465  0.55499  Biso   1.000  C
  C222     1.0000 0.84000  0.08535  0.05499  Biso   1.000  C
  C223     1.0000 0.16465  0.59000  0.30499  Biso   1.000  C
  C224     1.0000 0.33535  0.41000  0.80499  Biso   1.000  C
  H129     1.0000 0.64780  0.62310  0.54660  Biso   1.000  H
  H130     1.0000 0.85220  0.37690  0.04660  Biso   1.000  H
  H131     1.0000 0.62690  0.39780  0.79660  Biso   1.000  H
  H132     1.0000 0.87310  0.60220  0.29660  Biso   1.000  H
  H133     1.0000 0.85220  0.62310  0.95340  Biso   1.000  H
  H134     1.0000 0.64780  0.37690  0.45340  Biso   1.000  H
  H135     1.0000 0.87310  0.39780  0.70340  Biso   1.000  H
  H136     1.0000 0.62690  0.60220  0.20340  Biso   1.000  H
  H137     1.0000 0.14780  0.12310  0.04660  Biso   1.000  H
  H138     1.0000 0.35220  0.87690  0.54660  Biso   1.000  H
  H139     1.0000 0.12690  0.89780  0.29660  Biso   1.000  H
  H140     1.0000 0.37310  0.10220  0.79660  Biso   1.000  H
  H141     1.0000 0.35220  0.12310  0.45340  Biso   1.000  H
  H142     1.0000 0.14780  0.87690  0.95340  Biso   1.000  H
  H143     1.0000 0.37310  0.89780  0.20340  Biso   1.000  H
  H144     1.0000 0.12690  0.10220  0.70340  Biso   1.000  H
  H145     1.0000 0.35220  0.37690  0.45340  Biso   1.000  H
  H146     1.0000 0.14780  0.62310  0.95340  Biso   1.000  H
  H147     1.0000 0.87310  0.10220  0.70340  Biso   1.000  H
  H148     1.0000 0.62690  0.89780  0.20340  Biso   1.000  H
  H149     1.0000 0.14780  0.37690  0.04660  Biso   1.000  H
  H150     1.0000 0.35220  0.62310  0.54660  Biso   1.000  H
  H151     1.0000 0.62690  0.10220  0.79660  Biso   1.000  H
  H152     1.0000 0.87310  0.89780  0.29660  Biso   1.000  H
  H153     1.0000 0.85220  0.87690  0.95340  Biso   1.000  H
  H154     1.0000 0.64780  0.12310  0.45340  Biso   1.000  H
  H155     1.0000 0.37310  0.60220  0.20340  Biso   1.000  H
  H156     1.0000 0.12690  0.39780  0.70340  Biso   1.000  H
  H157     1.0000 0.64780  0.87690  0.54660  Biso   1.000  H
  H158     1.0000 0.85220  0.12310  0.04660  Biso   1.000  H
  H159     1.0000 0.12690  0.60220  0.29660  Biso   1.000  H
  H160     1.0000 0.37310  0.39780  0.79660  Biso   1.000  H
  C225     1.0000 0.76511  0.54696  0.60661  Biso   1.000  C
  C226     1.0000 0.73489  0.45304  0.10661  Biso   1.000  C
  C227     1.0000 0.70304  0.51511  0.85661  Biso   1.000  C
  C228     1.0000 0.79696  0.48489  0.35661  Biso   1.000  C
  C229     1.0000 0.73489  0.54696  0.89339  Biso   1.000  C
  C230     1.0000 0.76511  0.45304  0.39339  Biso   1.000  C
  C231     1.0000 0.79696  0.51511  0.64339  Biso   1.000  C
  C232     1.0000 0.70304  0.48489  0.14339  Biso   1.000  C
  C233     1.0000 0.26511  0.04696  0.10661  Biso   1.000  C
  C234     1.0000 0.23489  0.95304  0.60661  Biso   1.000  C
  C235     1.0000 0.20304  0.01511  0.35661  Biso   1.000  C
  C236     1.0000 0.29696  0.98489  0.85661  Biso   1.000  C
  C237     1.0000 0.23489  0.04696  0.39339  Biso   1.000  C
  C238     1.0000 0.26511  0.95304  0.89339  Biso   1.000  C
  C239     1.0000 0.29696  0.01511  0.14339  Biso   1.000  C
  C240     1.0000 0.20304  0.98489  0.64339  Biso   1.000  C
  C241     1.0000 0.23489  0.45304  0.39339  Biso   1.000  C
  C242     1.0000 0.26511  0.54696  0.89339  Biso   1.000  C
  C243     1.0000 0.79696  0.98489  0.64339  Biso   1.000  C
  C244     1.0000 0.70304  0.01511  0.14339  Biso   1.000  C
  C245     1.0000 0.26511  0.45304  0.10661  Biso   1.000  C
  C246     1.0000 0.23489  0.54696  0.60661  Biso   1.000  C
  C247     1.0000 0.70304  0.98489  0.85661  Biso   1.000  C
  C248     1.0000 0.79696  0.01511  0.35661  Biso   1.000  C
  C249     1.0000 0.73489  0.95304  0.89339  Biso   1.000  C
  C250     1.0000 0.76511  0.04696  0.39339  Biso   1.000  C
  C251     1.0000 0.29696  0.48489  0.14339  Biso   1.000  C
  C252     1.0000 0.20304  0.51511  0.64339  Biso   1.000  C
  C253     1.0000 0.76511  0.95304  0.60661  Biso   1.000  C
  C254     1.0000 0.73489  0.04696  0.10661  Biso   1.000  C
  C255     1.0000 0.20304  0.48489  0.35661  Biso   1.000  C
  C256     1.0000 0.29696  0.51511  0.85661  Biso   1.000  C
  C257     1.0000 0.75702  0.50702  0.62500  Biso   1.000  C
  C258     1.0000 0.74298  0.49298  0.12500  Biso   1.000  C
  C259     1.0000 0.74298  0.50702  0.87500  Biso   1.000  C
  C260     1.0000 0.75702  0.49298  0.37500  Biso   1.000  C
  C261     1.0000 0.25702  0.00702  0.12500  Biso   1.000  C
  C262     1.0000 0.24298  0.99298  0.62500  Biso   1.000  C
  C263     1.0000 0.24298  0.00702  0.37500  Biso   1.000  C
  C264     1.0000 0.25702  0.99298  0.87500  Biso   1.000  C
  C265     1.0000 0.24298  0.49298  0.37500  Biso   1.000  C
  C266     1.0000 0.25702  0.50702  0.87500  Biso   1.000  C
  C267     1.0000 0.75702  0.99298  0.62500  Biso   1.000  C
  C268     1.0000 0.74298  0.00702  0.12500  Biso   1.000  C
  C269     1.0000 0.25702  0.49298  0.12500  Biso   1.000  C
  C270     1.0000 0.24298  0.50702  0.62500  Biso   1.000  C
  C271     1.0000 0.74298  0.99298  0.87500  Biso   1.000  C
  C272     1.0000 0.75702  0.00702  0.37500  Biso   1.000  C
  H161     1.0000 0.72370  0.47370  0.62500  Biso   1.000  H
  H162     1.0000 0.77630  0.52630  0.12500  Biso   1.000  H
  H163     1.0000 0.77630  0.47370  0.87500  Biso   1.000  H
  H164     1.0000 0.72370  0.52630  0.37500  Biso   1.000  H
  H165     1.0000 0.22370  0.97370  0.12500  Biso   1.000  H
  H166     1.0000 0.27630  0.02630  0.62500  Biso   1.000  H
  H167     1.0000 0.27630  0.97370  0.37500  Biso   1.000  H
  H168     1.0000 0.22370  0.02630  0.87500  Biso   1.000  H
  H169     1.0000 0.27630  0.52630  0.37500  Biso   1.000  H
  H170     1.0000 0.22370  0.47370  0.87500  Biso   1.000  H
  H171     1.0000 0.72370  0.02630  0.62500  Biso   1.000  H
  H172     1.0000 0.77630  0.97370  0.12500  Biso   1.000  H
  H173     1.0000 0.22370  0.52630  0.12500  Biso   1.000  H
  H174     1.0000 0.27630  0.47370  0.62500  Biso   1.000  H
  H175     1.0000 0.77630  0.02630  0.87500  Biso   1.000  H
  H176     1.0000 0.72370  0.97370  0.37500  Biso   1.000  H
  C273     1.0000 0.81700  0.59555  0.60667  Biso   1.000  C
  C274     1.0000 0.68300  0.40445  0.10667  Biso   1.000  C
  C275     1.0000 0.65445  0.56700  0.85667  Biso   1.000  C
  C276     1.0000 0.84555  0.43300  0.35667  Biso   1.000  C
  C277     1.0000 0.68300  0.59555  0.89333  Biso   1.000  C
  C278     1.0000 0.81700  0.40445  0.39333  Biso   1.000  C
  C279     1.0000 0.84555  0.56700  0.64333  Biso   1.000  C
  C280     1.0000 0.65445  0.43300  0.14333  Biso   1.000  C
  C281     1.0000 0.31700  0.09555  0.10667  Biso   1.000  C
  C282     1.0000 0.18300  0.90445  0.60667  Biso   1.000  C
  C283     1.0000 0.15445  0.06700  0.35667  Biso   1.000  C
  C284     1.0000 0.34555  0.93300  0.85667  Biso   1.000  C
  C285     1.0000 0.18300  0.09555  0.39333  Biso   1.000  C
  C286     1.0000 0.31700  0.90445  0.89333  Biso   1.000  C
  C287     1.0000 0.34555  0.06700  0.14333  Biso   1.000  C
  C288     1.0000 0.15445  0.93300  0.64333  Biso   1.000  C
  C289     1.0000 0.18300  0.40445  0.39333  Biso   1.000  C
  C290     1.0000 0.31700  0.59555  0.89333  Biso   1.000  C
  C291     1.0000 0.84555  0.93300  0.64333  Biso   1.000  C
  C292     1.0000 0.65445  0.06700  0.14333  Biso   1.000  C
  C293     1.0000 0.31700  0.40445  0.10667  Biso   1.000  C
  C294     1.0000 0.18300  0.59555  0.60667  Biso   1.000  C
  C295     1.0000 0.65445  0.93300  0.85667  Biso   1.000  C
  C296     1.0000 0.84555  0.06700  0.35667  Biso   1.000  C
  C297     1.0000 0.68300  0.90445  0.89333  Biso   1.000  C
  C298     1.0000 0.81700  0.09555  0.39333  Biso   1.000  C
  C299     1.0000 0.34555  0.43300  0.14333  Biso   1.000  C
  C300     1.0000 0.15445  0.56700  0.64333  Biso   1.000  C
  C301     1.0000 0.81700  0.90445  0.60667  Biso   1.000  C
  C302     1.0000 0.68300  0.09555  0.10667  Biso   1.000  C
  C303     1.0000 0.15445  0.43300  0.35667  Biso   1.000  C
  C304     1.0000 0.34555  0.56700  0.85667  Biso   1.000  C
  H177     1.0000 0.82480  0.62110  0.59390  Biso   1.000  H
  H178     1.0000 0.67520  0.37890  0.09390  Biso   1.000  H
  H179     1.0000 0.62890  0.57480  0.84390  Biso   1.000  H
  H180     1.0000 0.87110  0.42520  0.34390  Biso   1.000  H
  H181     1.0000 0.67520  0.62110  0.90610  Biso   1.000  H
  H182     1.0000 0.82480  0.37890  0.40610  Biso   1.000  H
  H183     1.0000 0.87110  0.57480  0.65610  Biso   1.000  H
  H184     1.0000 0.62890  0.42520  0.15610  Biso   1.000  H
  H185     1.0000 0.32480  0.12110  0.09390  Biso   1.000  H
  H186     1.0000 0.17520  0.87890  0.59390  Biso   1.000  H
  H187     1.0000 0.12890  0.07480  0.34390  Biso   1.000  H
  H188     1.0000 0.37110  0.92520  0.84390  Biso   1.000  H
  H189     1.0000 0.17520  0.12110  0.40610  Biso   1.000  H
  H190     1.0000 0.32480  0.87890  0.90610  Biso   1.000  H
  H191     1.0000 0.37110  0.07480  0.15610  Biso   1.000  H
  H192     1.0000 0.12890  0.92520  0.65610  Biso   1.000  H
  H193     1.0000 0.17520  0.37890  0.40610  Biso   1.000  H
  H194     1.0000 0.32480  0.62110  0.90610  Biso   1.000  H
  H195     1.0000 0.87110  0.92520  0.65610  Biso   1.000  H
  H196     1.0000 0.62890  0.07480  0.15610  Biso   1.000  H
  H197     1.0000 0.32480  0.37890  0.09390  Biso   1.000  H
  H198     1.0000 0.17520  0.62110  0.59390  Biso   1.000  H
  H199     1.0000 0.62890  0.92520  0.84390  Biso   1.000  H
  H200     1.0000 0.87110  0.07480  0.34390  Biso   1.000  H
  H201     1.0000 0.67520  0.87890  0.90610  Biso   1.000  H
  H202     1.0000 0.82480  0.12110  0.40610  Biso   1.000  H
  H203     1.0000 0.37110  0.42520  0.15610  Biso   1.000  H
  H204     1.0000 0.12890  0.57480  0.65610  Biso   1.000  H
  H205     1.0000 0.82480  0.87890  0.59390  Biso   1.000  H
  H206     1.0000 0.67520  0.12110  0.09390  Biso   1.000  H
  H207     1.0000 0.12890  0.42520  0.34390  Biso   1.000  H
  H208     1.0000 0.37110  0.57480  0.84390  Biso   1.000  H
  C305     1.0000 0.85611  0.60611  0.62500  Biso   1.000  C
  C306     1.0000 0.64389  0.39389  0.12500  Biso   1.000  C
  C307     1.0000 0.64389  0.60611  0.87500  Biso   1.000  C
  C308     1.0000 0.85611  0.39389  0.37500  Biso   1.000  C
  C309     1.0000 0.35611  0.10611  0.12500  Biso   1.000  C
  C310     1.0000 0.14389  0.89389  0.62500  Biso   1.000  C
  C311     1.0000 0.14389  0.10611  0.37500  Biso   1.000  C
  C312     1.0000 0.35611  0.89389  0.87500  Biso   1.000  C
  C313     1.0000 0.14389  0.39389  0.37500  Biso   1.000  C
  C314     1.0000 0.35611  0.60611  0.87500  Biso   1.000  C
  C315     1.0000 0.85611  0.89389  0.62500  Biso   1.000  C
  C316     1.0000 0.64389  0.10611  0.12500  Biso   1.000  C
  C317     1.0000 0.35611  0.39389  0.12500  Biso   1.000  C
  C318     1.0000 0.14389  0.60611  0.62500  Biso   1.000  C
  C319     1.0000 0.64389  0.89389  0.87500  Biso   1.000  C
  C320     1.0000 0.85611  0.10611  0.37500  Biso   1.000  C
  C321     1.0000 0.90968  0.65968  0.62500  Biso   1.000  C
  C322     1.0000 0.59032  0.34032  0.12500  Biso   1.000  C
  C323     1.0000 0.59032  0.65968  0.87500  Biso   1.000  C
  C324     1.0000 0.90968  0.34032  0.37500  Biso   1.000  C
  C325     1.0000 0.40968  0.15968  0.12500  Biso   1.000  C
  C326     1.0000 0.09032  0.84032  0.62500  Biso   1.000  C
  C327     1.0000 0.09032  0.15968  0.37500  Biso   1.000  C
  C328     1.0000 0.40968  0.84032  0.87500  Biso   1.000  C
  C329     1.0000 0.09032  0.34032  0.37500  Biso   1.000  C
  C330     1.0000 0.40968  0.65968  0.87500  Biso   1.000  C
  C331     1.0000 0.90968  0.84032  0.62500  Biso   1.000  C
  C332     1.0000 0.59032  0.15968  0.12500  Biso   1.000  C
  C333     1.0000 0.40968  0.34032  0.12500  Biso   1.000  C
  C334     1.0000 0.09032  0.65968  0.62500  Biso   1.000  C
  C335     1.0000 0.59032  0.84032  0.87500  Biso   1.000  C
  C336     1.0000 0.90968  0.15968  0.37500  Biso   1.000  C
  C337     1.0000 0.50000  0.71330  0.51097  Biso   1.000  C
  C338     1.0000 0.00000  0.28670  0.01097  Biso   1.000  C
  C339     1.0000 0.53670  0.25000  0.76097  Biso   1.000  C
  C340     1.0000 0.96330  0.75000  0.26097  Biso   1.000  C
  C341     1.0000 0.00000  0.71330  0.98903  Biso   1.000  C
  C342     1.0000 0.50000  0.28670  0.48903  Biso   1.000  C
  C343     1.0000 0.96330  0.25000  0.73903  Biso   1.000  C
  C344     1.0000 0.53670  0.75000  0.23903  Biso   1.000  C
  C345     1.0000 0.00000  0.21330  0.01097  Biso   1.000  C
  C346     1.0000 0.50000  0.78670  0.51097  Biso   1.000  C
  C347     1.0000 0.03670  0.75000  0.26097  Biso   1.000  C
  C348     1.0000 0.46330  0.25000  0.76097  Biso   1.000  C
  C349     1.0000 0.50000  0.21330  0.48903  Biso   1.000  C
  C350     1.0000 0.00000  0.78670  0.98903  Biso   1.000  C
  C351     1.0000 0.46330  0.75000  0.23903  Biso   1.000  C
  C352     1.0000 0.03670  0.25000  0.73903  Biso   1.000  C
  H209     1.0000 0.50000  0.69040  0.52450  Biso   1.000  H
  H210     1.0000 0.00000  0.30960  0.02450  Biso   1.000  H
  H211     1.0000 0.55960  0.25000  0.77450  Biso   1.000  H
  H212     1.0000 0.94040  0.75000  0.27450  Biso   1.000  H
  H213     1.0000 0.00000  0.69040  0.97550  Biso   1.000  H
  H214     1.0000 0.50000  0.30960  0.47550  Biso   1.000  H
  H215     1.0000 0.94040  0.25000  0.72550  Biso   1.000  H
  H216     1.0000 0.55960  0.75000  0.22550  Biso   1.000  H
  H217     1.0000 0.00000  0.19040  0.02450  Biso   1.000  H
  H218     1.0000 0.50000  0.80960  0.52450  Biso   1.000  H
  H219     1.0000 0.05960  0.75000  0.27450  Biso   1.000  H
  H220     1.0000 0.44040  0.25000  0.77450  Biso   1.000  H
  H221     1.0000 0.50000  0.19040  0.47550  Biso   1.000  H
  H222     1.0000 0.00000  0.80960  0.97550  Biso   1.000  H
  H223     1.0000 0.44040  0.75000  0.22550  Biso   1.000  H
  H224     1.0000 0.05960  0.25000  0.72550  Biso   1.000  H
  C353     1.0000 0.50000  0.71390  0.47266  Biso   1.000  C
  C354     1.0000 0.00000  0.28610  0.97266  Biso   1.000  C
  C355     1.0000 0.53610  0.25000  0.72266  Biso   1.000  C
  C356     1.0000 0.96390  0.75000  0.22266  Biso   1.000  C
  C357     1.0000 0.00000  0.71390  0.02734  Biso   1.000  C
  C358     1.0000 0.50000  0.28610  0.52734  Biso   1.000  C
  C359     1.0000 0.96390  0.25000  0.77734  Biso   1.000  C
  C360     1.0000 0.53610  0.75000  0.27734  Biso   1.000  C
  C361     1.0000 0.00000  0.21390  0.97266  Biso   1.000  C
  C362     1.0000 0.50000  0.78610  0.47266  Biso   1.000  C
  C363     1.0000 0.03610  0.75000  0.22266  Biso   1.000  C
  C364     1.0000 0.46390  0.25000  0.72266  Biso   1.000  C
  C365     1.0000 0.50000  0.21390  0.52734  Biso   1.000  C
  C366     1.0000 0.00000  0.78610  0.02734  Biso   1.000  C
  C367     1.0000 0.46390  0.75000  0.27734  Biso   1.000  C
  C368     1.0000 0.03610  0.25000  0.77734  Biso   1.000  C
  C369     1.0000 0.50000  0.67860  0.45238  Biso   1.000  C
  C370     1.0000 0.00000  0.32140  0.95238  Biso   1.000  C
  C371     1.0000 0.57140  0.25000  0.70238  Biso   1.000  C
  C372     1.0000 0.92860  0.75000  0.20238  Biso   1.000  C
  C373     1.0000 0.00000  0.67860  0.04762  Biso   1.000  C
  C374     1.0000 0.50000  0.32140  0.54762  Biso   1.000  C
  C375     1.0000 0.92860  0.25000  0.79762  Biso   1.000  C
  C376     1.0000 0.57140  0.75000  0.29762  Biso   1.000  C
  C377     1.0000 0.00000  0.17860  0.95238  Biso   1.000  C
  C378     1.0000 0.50000  0.82140  0.45238  Biso   1.000  C
  C379     1.0000 0.07140  0.75000  0.20238  Biso   1.000  C
  C380     1.0000 0.42860  0.25000  0.70238  Biso   1.000  C
  C381     1.0000 0.50000  0.17860  0.54762  Biso   1.000  C
  C382     1.0000 0.00000  0.82140  0.04762  Biso   1.000  C
  C383     1.0000 0.42860  0.75000  0.29762  Biso   1.000  C
  C384     1.0000 0.07140  0.25000  0.79762  Biso   1.000  C
  H225     1.0000 0.50000  0.63140  0.45200  Biso   1.000  H
  H226     1.0000 0.00000  0.36860  0.95200  Biso   1.000  H
  H227     1.0000 0.61860  0.25000  0.70200  Biso   1.000  H
  H228     1.0000 0.88140  0.75000  0.20200  Biso   1.000  H
  H229     1.0000 0.00000  0.63140  0.04800  Biso   1.000  H
  H230     1.0000 0.50000  0.36860  0.54800  Biso   1.000  H
  H231     1.0000 0.88140  0.25000  0.79800  Biso   1.000  H
  H232     1.0000 0.61860  0.75000  0.29800  Biso   1.000  H
  H233     1.0000 0.00000  0.13140  0.95200  Biso   1.000  H
  H234     1.0000 0.50000  0.86860  0.45200  Biso   1.000  H
  H235     1.0000 0.11860  0.75000  0.20200  Biso   1.000  H
  H236     1.0000 0.38140  0.25000  0.70200  Biso   1.000  H
  H237     1.0000 0.50000  0.13140  0.54800  Biso   1.000  H
  H238     1.0000 0.00000  0.86860  0.04800  Biso   1.000  H
  H239     1.0000 0.38140  0.75000  0.29800  Biso   1.000  H
  H240     1.0000 0.11860  0.25000  0.79800  Biso   1.000  H
  C385     1.0000 0.50000  0.71470  0.43366  Biso   1.000  C
  C386     1.0000 0.00000  0.28530  0.93366  Biso   1.000  C
  C387     1.0000 0.53530  0.25000  0.68366  Biso   1.000  C
  C388     1.0000 0.96470  0.75000  0.18366  Biso   1.000  C
  C389     1.0000 0.00000  0.71470  0.06634  Biso   1.000  C
  C390     1.0000 0.50000  0.28530  0.56634  Biso   1.000  C
  C391     1.0000 0.96470  0.25000  0.81634  Biso   1.000  C
  C392     1.0000 0.53530  0.75000  0.31634  Biso   1.000  C
  C393     1.0000 0.00000  0.21470  0.93366  Biso   1.000  C
  C394     1.0000 0.50000  0.78530  0.43366  Biso   1.000  C
  C395     1.0000 0.03530  0.75000  0.18366  Biso   1.000  C
  C396     1.0000 0.46470  0.25000  0.68366  Biso   1.000  C
  C397     1.0000 0.50000  0.21470  0.56634  Biso   1.000  C
  C398     1.0000 0.00000  0.78530  0.06634  Biso   1.000  C
  C399     1.0000 0.46470  0.75000  0.31634  Biso   1.000  C
  C400     1.0000 0.03530  0.25000  0.81634  Biso   1.000  C
  H241     1.0000 0.50000  0.69200  0.42010  Biso   1.000  H
  H242     1.0000 0.00000  0.30800  0.92010  Biso   1.000  H
  H243     1.0000 0.55800  0.25000  0.67010  Biso   1.000  H
  H244     1.0000 0.94200  0.75000  0.17010  Biso   1.000  H
  H245     1.0000 0.00000  0.69200  0.07990  Biso   1.000  H
  H246     1.0000 0.50000  0.30800  0.57990  Biso   1.000  H
  H247     1.0000 0.94200  0.25000  0.82990  Biso   1.000  H
  H248     1.0000 0.55800  0.75000  0.32990  Biso   1.000  H
  H249     1.0000 0.00000  0.19200  0.92010  Biso   1.000  H
  H250     1.0000 0.50000  0.80800  0.42010  Biso   1.000  H
  H251     1.0000 0.05800  0.75000  0.17010  Biso   1.000  H
  H252     1.0000 0.44200  0.25000  0.67010  Biso   1.000  H
  H253     1.0000 0.50000  0.19200  0.57990  Biso   1.000  H
  H254     1.0000 0.00000  0.80800  0.07990  Biso   1.000  H
  H255     1.0000 0.44200  0.75000  0.32990  Biso   1.000  H
  H256     1.0000 0.05800  0.25000  0.82990  Biso   1.000  H
