data_image0
_cell_length_a       19.525
_cell_length_b       19.525
_cell_length_c       60.38
_cell_angle_alpha    90
_cell_angle_beta     90
_cell_angle_gamma    90

_symmetry_space_group_name_H-M    "P 1"
_symmetry_int_tables_number       1

loop_
  _symmetry_equiv_pos_as_xyz
  'x, y, z'

loop_
  _atom_site_label
  _atom_site_occupancy
  _atom_site_fract_x
  _atom_site_fract_y
  _atom_site_fract_z
  _atom_site_thermal_displace_type
  _atom_site_B_iso_or_equiv
  _atom_site_type_symbol
  Cu1      1.0000 0.68294  0.75000  0.75272  Biso   1.000  Cu
  Cu2      1.0000 0.31706  0.75000  0.75272  Biso   1.000  Cu
  Cu3      1.0000 0.68294  0.25000  0.24728  Biso   1.000  Cu
  Cu4      1.0000 0.31706  0.25000  0.24728  Biso   1.000  Cu
  Cu5      1.0000 0.50000  0.56706  0.99728  Biso   1.000  Cu
  Cu6      1.0000 0.00000  0.43294  0.49728  Biso   1.000  Cu
  Cu7      1.0000 0.00000  0.56706  0.50272  Biso   1.000  Cu
  Cu8      1.0000 0.50000  0.43294  0.00272  Biso   1.000  Cu
  Cu9      1.0000 0.18294  0.25000  0.25272  Biso   1.000  Cu
  Cu10     1.0000 0.81706  0.25000  0.25272  Biso   1.000  Cu
  Cu11     1.0000 0.18294  0.75000  0.74728  Biso   1.000  Cu
  Cu12     1.0000 0.81706  0.75000  0.74728  Biso   1.000  Cu
  Cu13     1.0000 0.00000  0.06706  0.49728  Biso   1.000  Cu
  Cu14     1.0000 0.50000  0.93294  0.99728  Biso   1.000  Cu
  Cu15     1.0000 0.50000  0.06706  0.00272  Biso   1.000  Cu
  Cu16     1.0000 0.00000  0.93294  0.50272  Biso   1.000  Cu
  Cu17     1.0000 0.50000  0.25000  0.60332  Biso   1.000  Cu
  Cu18     1.0000 0.50000  0.75000  0.39668  Biso   1.000  Cu
  Cu19     1.0000 0.00000  0.75000  0.14668  Biso   1.000  Cu
  Cu20     1.0000 0.50000  0.25000  0.64668  Biso   1.000  Cu
  Cu21     1.0000 0.50000  0.75000  0.35332  Biso   1.000  Cu
  Cu22     1.0000 0.00000  0.25000  0.85332  Biso   1.000  Cu
  Cu23     1.0000 0.00000  0.75000  0.10332  Biso   1.000  Cu
  Cu24     1.0000 0.00000  0.25000  0.89668  Biso   1.000  Cu
  O1       1.0000 0.80009  0.68092  0.72455  Biso   1.000  O
  O2       1.0000 0.19991  0.81908  0.72455  Biso   1.000  O
  O3       1.0000 0.80009  0.31908  0.27545  Biso   1.000  O
  O4       1.0000 0.19991  0.18092  0.27545  Biso   1.000  O
  O5       1.0000 0.56908  0.44991  0.02545  Biso   1.000  O
  O6       1.0000 0.93092  0.55009  0.52545  Biso   1.000  O
  O7       1.0000 0.93092  0.44991  0.47455  Biso   1.000  O
  O8       1.0000 0.56908  0.55009  0.97455  Biso   1.000  O
  O9       1.0000 0.30009  0.18092  0.22455  Biso   1.000  O
  O10      1.0000 0.69991  0.31908  0.22455  Biso   1.000  O
  O11      1.0000 0.30009  0.81908  0.77545  Biso   1.000  O
  O12      1.0000 0.69991  0.68092  0.77545  Biso   1.000  O
  O13      1.0000 0.06908  0.94991  0.52545  Biso   1.000  O
  O14      1.0000 0.43092  0.05009  0.02545  Biso   1.000  O
  O15      1.0000 0.43092  0.94991  0.97455  Biso   1.000  O
  O16      1.0000 0.06908  0.05009  0.47455  Biso   1.000  O
  O17      1.0000 0.19991  0.31908  0.27545  Biso   1.000  O
  O18      1.0000 0.80009  0.18092  0.27545  Biso   1.000  O
  O19      1.0000 0.19991  0.68092  0.72455  Biso   1.000  O
  O20      1.0000 0.80009  0.81908  0.72455  Biso   1.000  O
  O21      1.0000 0.93092  0.05009  0.47455  Biso   1.000  O
  O22      1.0000 0.56908  0.94991  0.97455  Biso   1.000  O
  O23      1.0000 0.56908  0.05009  0.02545  Biso   1.000  O
  O24      1.0000 0.93092  0.94991  0.52545  Biso   1.000  O
  O25      1.0000 0.69991  0.81908  0.77545  Biso   1.000  O
  O26      1.0000 0.30009  0.68092  0.77545  Biso   1.000  O
  O27      1.0000 0.69991  0.18092  0.22455  Biso   1.000  O
  O28      1.0000 0.30009  0.31908  0.22455  Biso   1.000  O
  O29      1.0000 0.43092  0.55009  0.97455  Biso   1.000  O
  O30      1.0000 0.06908  0.44991  0.47455  Biso   1.000  O
  O31      1.0000 0.06908  0.55009  0.52545  Biso   1.000  O
  O32      1.0000 0.43092  0.44991  0.02545  Biso   1.000  O
  O33      1.0000 0.68755  0.68005  0.72942  Biso   1.000  O
  O34      1.0000 0.31245  0.81995  0.72942  Biso   1.000  O
  O35      1.0000 0.68755  0.31995  0.27058  Biso   1.000  O
  O36      1.0000 0.31245  0.18005  0.27058  Biso   1.000  O
  O37      1.0000 0.56995  0.56245  0.02058  Biso   1.000  O
  O38      1.0000 0.93005  0.43755  0.52058  Biso   1.000  O
  O39      1.0000 0.93005  0.56245  0.47942  Biso   1.000  O
  O40      1.0000 0.56995  0.43755  0.97942  Biso   1.000  O
  O41      1.0000 0.18755  0.18005  0.22942  Biso   1.000  O
  O42      1.0000 0.81245  0.31995  0.22942  Biso   1.000  O
  O43      1.0000 0.18755  0.81995  0.77058  Biso   1.000  O
  O44      1.0000 0.81245  0.68005  0.77058  Biso   1.000  O
  O45      1.0000 0.06995  0.06245  0.52058  Biso   1.000  O
  O46      1.0000 0.43005  0.93755  0.02058  Biso   1.000  O
  O47      1.0000 0.43005  0.06245  0.97942  Biso   1.000  O
  O48      1.0000 0.06995  0.93755  0.47942  Biso   1.000  O
  O49      1.0000 0.31245  0.31995  0.27058  Biso   1.000  O
  O50      1.0000 0.68755  0.18005  0.27058  Biso   1.000  O
  O51      1.0000 0.31245  0.68005  0.72942  Biso   1.000  O
  O52      1.0000 0.68755  0.81995  0.72942  Biso   1.000  O
  O53      1.0000 0.93005  0.93755  0.47942  Biso   1.000  O
  O54      1.0000 0.56995  0.06245  0.97942  Biso   1.000  O
  O55      1.0000 0.56995  0.93755  0.02058  Biso   1.000  O
  O56      1.0000 0.93005  0.06245  0.52058  Biso   1.000  O
  O57      1.0000 0.81245  0.81995  0.77058  Biso   1.000  O
  O58      1.0000 0.18755  0.68005  0.77058  Biso   1.000  O
  O59      1.0000 0.81245  0.18005  0.22942  Biso   1.000  O
  O60      1.0000 0.18755  0.31995  0.22942  Biso   1.000  O
  O61      1.0000 0.43005  0.43755  0.97942  Biso   1.000  O
  O62      1.0000 0.06995  0.56245  0.47942  Biso   1.000  O
  O63      1.0000 0.06995  0.43755  0.52058  Biso   1.000  O
  O64      1.0000 0.43005  0.56245  0.02058  Biso   1.000  O
  O65      1.0000 0.57053  0.32015  0.60653  Biso   1.000  O
  O66      1.0000 0.42947  0.17985  0.60653  Biso   1.000  O
  O67      1.0000 0.57053  0.67985  0.39347  Biso   1.000  O
  O68      1.0000 0.42947  0.82015  0.39347  Biso   1.000  O
  O69      1.0000 0.92985  0.67947  0.14347  Biso   1.000  O
  O70      1.0000 0.57015  0.32053  0.64347  Biso   1.000  O
  O71      1.0000 0.57015  0.67947  0.35653  Biso   1.000  O
  O72      1.0000 0.92985  0.32053  0.85653  Biso   1.000  O
  O73      1.0000 0.07053  0.82015  0.10653  Biso   1.000  O
  O74      1.0000 0.92947  0.67985  0.10653  Biso   1.000  O
  O75      1.0000 0.07053  0.17985  0.89347  Biso   1.000  O
  O76      1.0000 0.92947  0.32015  0.89347  Biso   1.000  O
  O77      1.0000 0.42985  0.17947  0.64347  Biso   1.000  O
  O78      1.0000 0.07015  0.82053  0.14347  Biso   1.000  O
  O79      1.0000 0.07015  0.17947  0.85653  Biso   1.000  O
  O80      1.0000 0.42985  0.82053  0.35653  Biso   1.000  O
  O81      1.0000 0.42947  0.67985  0.39347  Biso   1.000  O
  O82      1.0000 0.57053  0.82015  0.39347  Biso   1.000  O
  O83      1.0000 0.42947  0.32015  0.60653  Biso   1.000  O
  O84      1.0000 0.57053  0.17985  0.60653  Biso   1.000  O
  O85      1.0000 0.57015  0.82053  0.35653  Biso   1.000  O
  O86      1.0000 0.92985  0.17947  0.85653  Biso   1.000  O
  O87      1.0000 0.92985  0.82053  0.14347  Biso   1.000  O
  O88      1.0000 0.57015  0.17947  0.64347  Biso   1.000  O
  O89      1.0000 0.92947  0.17985  0.89347  Biso   1.000  O
  O90      1.0000 0.07053  0.32015  0.89347  Biso   1.000  O
  O91      1.0000 0.92947  0.82015  0.10653  Biso   1.000  O
  O92      1.0000 0.07053  0.67985  0.10653  Biso   1.000  O
  O93      1.0000 0.07015  0.32053  0.85653  Biso   1.000  O
  O94      1.0000 0.42985  0.67947  0.35653  Biso   1.000  O
  O95      1.0000 0.42985  0.32053  0.64347  Biso   1.000  O
  O96      1.0000 0.07015  0.67947  0.14347  Biso   1.000  O
  O97      1.0000 0.50000  0.25000  0.56713  Biso   1.000  O
  O98      1.0000 0.50000  0.75000  0.43287  Biso   1.000  O
  O99      1.0000 0.00000  0.75000  0.18287  Biso   1.000  O
  O100     1.0000 0.50000  0.25000  0.68287  Biso   1.000  O
  O101     1.0000 0.50000  0.75000  0.31713  Biso   1.000  O
  O102     1.0000 0.00000  0.25000  0.81713  Biso   1.000  O
  O103     1.0000 0.00000  0.75000  0.06713  Biso   1.000  O
  O104     1.0000 0.00000  0.25000  0.93287  Biso   1.000  O
  N1       1.0000 0.57140  0.75000  0.75472  Biso   1.000  N
  N2       1.0000 0.42860  0.75000  0.75472  Biso   1.000  N
  N3       1.0000 0.57140  0.25000  0.24528  Biso   1.000  N
  N4       1.0000 0.42860  0.25000  0.24528  Biso   1.000  N
  N5       1.0000 0.50000  0.67860  0.99528  Biso   1.000  N
  N6       1.0000 0.00000  0.32140  0.49528  Biso   1.000  N
  N7       1.0000 0.00000  0.67860  0.50472  Biso   1.000  N
  N8       1.0000 0.50000  0.32140  0.00472  Biso   1.000  N
  N9       1.0000 0.07140  0.25000  0.25472  Biso   1.000  N
  N10      1.0000 0.92860  0.25000  0.25472  Biso   1.000  N
  N11      1.0000 0.07140  0.75000  0.74528  Biso   1.000  N
  N12      1.0000 0.92860  0.75000  0.74528  Biso   1.000  N
  N13      1.0000 0.00000  0.17860  0.49528  Biso   1.000  N
  N14      1.0000 0.50000  0.82140  0.99528  Biso   1.000  N
  N15      1.0000 0.50000  0.17860  0.00472  Biso   1.000  N
  N16      1.0000 0.00000  0.82140  0.50472  Biso   1.000  N
  C1       1.0000 0.74130  0.66160  0.71968  Biso   1.000  C
  C2       1.0000 0.25870  0.83840  0.71968  Biso   1.000  C
  C3       1.0000 0.74130  0.33840  0.28032  Biso   1.000  C
  C4       1.0000 0.25870  0.16160  0.28032  Biso   1.000  C
  C5       1.0000 0.58840  0.50870  0.03032  Biso   1.000  C
  C6       1.0000 0.91160  0.49130  0.53032  Biso   1.000  C
  C7       1.0000 0.91160  0.50870  0.46968  Biso   1.000  C
  C8       1.0000 0.58840  0.49130  0.96968  Biso   1.000  C
  C9       1.0000 0.24130  0.16160  0.21968  Biso   1.000  C
  C10      1.0000 0.75870  0.33840  0.21968  Biso   1.000  C
  C11      1.0000 0.24130  0.83840  0.78032  Biso   1.000  C
  C12      1.0000 0.75870  0.66160  0.78032  Biso   1.000  C
  C13      1.0000 0.08840  0.00870  0.53032  Biso   1.000  C
  C14      1.0000 0.41160  0.99130  0.03032  Biso   1.000  C
  C15      1.0000 0.41160  0.00870  0.96968  Biso   1.000  C
  C16      1.0000 0.08840  0.99130  0.46968  Biso   1.000  C
  C17      1.0000 0.25870  0.33840  0.28032  Biso   1.000  C
  C18      1.0000 0.74130  0.16160  0.28032  Biso   1.000  C
  C19      1.0000 0.25870  0.66160  0.71968  Biso   1.000  C
  C20      1.0000 0.74130  0.83840  0.71968  Biso   1.000  C
  C21      1.0000 0.91160  0.99130  0.46968  Biso   1.000  C
  C22      1.0000 0.58840  0.00870  0.96968  Biso   1.000  C
  C23      1.0000 0.58840  0.99130  0.03032  Biso   1.000  C
  C24      1.0000 0.91160  0.00870  0.53032  Biso   1.000  C
  C25      1.0000 0.75870  0.83840  0.78032  Biso   1.000  C
  C26      1.0000 0.24130  0.66160  0.78032  Biso   1.000  C
  C27      1.0000 0.75870  0.16160  0.21968  Biso   1.000  C
  C28      1.0000 0.24130  0.33840  0.21968  Biso   1.000  C
  C29      1.0000 0.41160  0.49130  0.96968  Biso   1.000  C
  C30      1.0000 0.08840  0.50870  0.46968  Biso   1.000  C
  C31      1.0000 0.08840  0.49130  0.53032  Biso   1.000  C
  C32      1.0000 0.41160  0.50870  0.03032  Biso   1.000  C
  C33      1.0000 0.73300  0.61420  0.70048  Biso   1.000  C
  C34      1.0000 0.26700  0.88580  0.70048  Biso   1.000  C
  C35      1.0000 0.73300  0.38580  0.29952  Biso   1.000  C
  C36      1.0000 0.26700  0.11420  0.29952  Biso   1.000  C
  C37      1.0000 0.63580  0.51700  0.04952  Biso   1.000  C
  C38      1.0000 0.86420  0.48300  0.54952  Biso   1.000  C
  C39      1.0000 0.86420  0.51700  0.45048  Biso   1.000  C
  C40      1.0000 0.63580  0.48300  0.95048  Biso   1.000  C
  C41      1.0000 0.23300  0.11420  0.20048  Biso   1.000  C
  C42      1.0000 0.76700  0.38580  0.20048  Biso   1.000  C
  C43      1.0000 0.23300  0.88580  0.79952  Biso   1.000  C
  C44      1.0000 0.76700  0.61420  0.79952  Biso   1.000  C
  C45      1.0000 0.13580  0.01700  0.54952  Biso   1.000  C
  C46      1.0000 0.36420  0.98300  0.04952  Biso   1.000  C
  C47      1.0000 0.36420  0.01700  0.95048  Biso   1.000  C
  C48      1.0000 0.13580  0.98300  0.45048  Biso   1.000  C
  C49      1.0000 0.26700  0.38580  0.29952  Biso   1.000  C
  C50      1.0000 0.73300  0.11420  0.29952  Biso   1.000  C
  C51      1.0000 0.26700  0.61420  0.70048  Biso   1.000  C
  C52      1.0000 0.73300  0.88580  0.70048  Biso   1.000  C
  C53      1.0000 0.86420  0.98300  0.45048  Biso   1.000  C
  C54      1.0000 0.63580  0.01700  0.95048  Biso   1.000  C
  C55      1.0000 0.63580  0.98300  0.04952  Biso   1.000  C
  C56      1.0000 0.86420  0.01700  0.54952  Biso   1.000  C
  C57      1.0000 0.76700  0.88580  0.79952  Biso   1.000  C
  C58      1.0000 0.23300  0.61420  0.79952  Biso   1.000  C
  C59      1.0000 0.76700  0.11420  0.20048  Biso   1.000  C
  C60      1.0000 0.23300  0.38580  0.20048  Biso   1.000  C
  C61      1.0000 0.36420  0.48300  0.95048  Biso   1.000  C
  C62      1.0000 0.13580  0.51700  0.45048  Biso   1.000  C
  C63      1.0000 0.13580  0.48300  0.54952  Biso   1.000  C
  C64      1.0000 0.36420  0.51700  0.04952  Biso   1.000  C
  C65      1.0000 0.66860  0.59160  0.69431  Biso   1.000  C
  C66      1.0000 0.33140  0.90840  0.69431  Biso   1.000  C
  C67      1.0000 0.66860  0.40840  0.30569  Biso   1.000  C
  C68      1.0000 0.33140  0.09160  0.30569  Biso   1.000  C
  C69      1.0000 0.65840  0.58140  0.05569  Biso   1.000  C
  C70      1.0000 0.84160  0.41860  0.55569  Biso   1.000  C
  C71      1.0000 0.84160  0.58140  0.44431  Biso   1.000  C
  C72      1.0000 0.65840  0.41860  0.94431  Biso   1.000  C
  C73      1.0000 0.16860  0.09160  0.19431  Biso   1.000  C
  C74      1.0000 0.83140  0.40840  0.19431  Biso   1.000  C
  C75      1.0000 0.16860  0.90840  0.80569  Biso   1.000  C
  C76      1.0000 0.83140  0.59160  0.80569  Biso   1.000  C
  C77      1.0000 0.15840  0.08140  0.55569  Biso   1.000  C
  C78      1.0000 0.34160  0.91860  0.05569  Biso   1.000  C
  C79      1.0000 0.34160  0.08140  0.94431  Biso   1.000  C
  C80      1.0000 0.15840  0.91860  0.44431  Biso   1.000  C
  C81      1.0000 0.33140  0.40840  0.30569  Biso   1.000  C
  C82      1.0000 0.66860  0.09160  0.30569  Biso   1.000  C
  C83      1.0000 0.33140  0.59160  0.69431  Biso   1.000  C
  C84      1.0000 0.66860  0.90840  0.69431  Biso   1.000  C
  C85      1.0000 0.84160  0.91860  0.44431  Biso   1.000  C
  C86      1.0000 0.65840  0.08140  0.94431  Biso   1.000  C
  C87      1.0000 0.65840  0.91860  0.05569  Biso   1.000  C
  C88      1.0000 0.84160  0.08140  0.55569  Biso   1.000  C
  C89      1.0000 0.83140  0.90840  0.80569  Biso   1.000  C
  C90      1.0000 0.16860  0.59160  0.80569  Biso   1.000  C
  C91      1.0000 0.83140  0.09160  0.19431  Biso   1.000  C
  C92      1.0000 0.16860  0.40840  0.19431  Biso   1.000  C
  C93      1.0000 0.34160  0.41860  0.94431  Biso   1.000  C
  C94      1.0000 0.15840  0.58140  0.44431  Biso   1.000  C
  C95      1.0000 0.15840  0.41860  0.55569  Biso   1.000  C
  C96      1.0000 0.34160  0.58140  0.05569  Biso   1.000  C
  H1       1.0000 0.63040  0.60510  0.70240  Biso   1.000  H
  H2       1.0000 0.36960  0.89490  0.70240  Biso   1.000  H
  H3       1.0000 0.63040  0.39490  0.29760  Biso   1.000  H
  H4       1.0000 0.36960  0.10510  0.29760  Biso   1.000  H
  H5       1.0000 0.64490  0.61960  0.04760  Biso   1.000  H
  H6       1.0000 0.85510  0.38040  0.54760  Biso   1.000  H
  H7       1.0000 0.85510  0.61960  0.45240  Biso   1.000  H
  H8       1.0000 0.64490  0.38040  0.95240  Biso   1.000  H
  H9       1.0000 0.13040  0.10510  0.20240  Biso   1.000  H
  H10      1.0000 0.86960  0.39490  0.20240  Biso   1.000  H
  H11      1.0000 0.13040  0.89490  0.79760  Biso   1.000  H
  H12      1.0000 0.86960  0.60510  0.79760  Biso   1.000  H
  H13      1.0000 0.14490  0.11960  0.54760  Biso   1.000  H
  H14      1.0000 0.35510  0.88040  0.04760  Biso   1.000  H
  H15      1.0000 0.35510  0.11960  0.95240  Biso   1.000  H
  H16      1.0000 0.14490  0.88040  0.45240  Biso   1.000  H
  H17      1.0000 0.36960  0.39490  0.29760  Biso   1.000  H
  H18      1.0000 0.63040  0.10510  0.29760  Biso   1.000  H
  H19      1.0000 0.36960  0.60510  0.70240  Biso   1.000  H
  H20      1.0000 0.63040  0.89490  0.70240  Biso   1.000  H
  H21      1.0000 0.85510  0.88040  0.45240  Biso   1.000  H
  H22      1.0000 0.64490  0.11960  0.95240  Biso   1.000  H
  H23      1.0000 0.64490  0.88040  0.04760  Biso   1.000  H
  H24      1.0000 0.85510  0.11960  0.54760  Biso   1.000  H
  H25      1.0000 0.86960  0.89490  0.79760  Biso   1.000  H
  H26      1.0000 0.13040  0.60510  0.79760  Biso   1.000  H
  H27      1.0000 0.86960  0.10510  0.20240  Biso   1.000  H
  H28      1.0000 0.13040  0.39490  0.20240  Biso   1.000  H
  H29      1.0000 0.35510  0.38040  0.95240  Biso   1.000  H
  H30      1.0000 0.14490  0.61960  0.45240  Biso   1.000  H
  H31      1.0000 0.14490  0.38040  0.54760  Biso   1.000  H
  H32      1.0000 0.35510  0.61960  0.04760  Biso   1.000  H
  C97      1.0000 0.78820  0.59370  0.68822  Biso   1.000  C
  C98      1.0000 0.21180  0.90630  0.68822  Biso   1.000  C
  C99      1.0000 0.78820  0.40630  0.31178  Biso   1.000  C
  C100     1.0000 0.21180  0.09370  0.31178  Biso   1.000  C
  C101     1.0000 0.65630  0.46180  0.06178  Biso   1.000  C
  C102     1.0000 0.84370  0.53820  0.56178  Biso   1.000  C
  C103     1.0000 0.84370  0.46180  0.43822  Biso   1.000  C
  C104     1.0000 0.65630  0.53820  0.93822  Biso   1.000  C
  C105     1.0000 0.28820  0.09370  0.18822  Biso   1.000  C
  C106     1.0000 0.71180  0.40630  0.18822  Biso   1.000  C
  C107     1.0000 0.28820  0.90630  0.81178  Biso   1.000  C
  C108     1.0000 0.71180  0.59370  0.81178  Biso   1.000  C
  C109     1.0000 0.15630  0.96180  0.56178  Biso   1.000  C
  C110     1.0000 0.34370  0.03820  0.06178  Biso   1.000  C
  C111     1.0000 0.34370  0.96180  0.93822  Biso   1.000  C
  C112     1.0000 0.15630  0.03820  0.43822  Biso   1.000  C
  C113     1.0000 0.21180  0.40630  0.31178  Biso   1.000  C
  C114     1.0000 0.78820  0.09370  0.31178  Biso   1.000  C
  C115     1.0000 0.21180  0.59370  0.68822  Biso   1.000  C
  C116     1.0000 0.78820  0.90630  0.68822  Biso   1.000  C
  C117     1.0000 0.84370  0.03820  0.43822  Biso   1.000  C
  C118     1.0000 0.65630  0.96180  0.93822  Biso   1.000  C
  C119     1.0000 0.65630  0.03820  0.06178  Biso   1.000  C
  C120     1.0000 0.84370  0.96180  0.56178  Biso   1.000  C
  C121     1.0000 0.71180  0.90630  0.81178  Biso   1.000  C
  C122     1.0000 0.28820  0.59370  0.81178  Biso   1.000  C
  C123     1.0000 0.71180  0.09370  0.18822  Biso   1.000  C
  C124     1.0000 0.28820  0.40630  0.18822  Biso   1.000  C
  C125     1.0000 0.34370  0.53820  0.93822  Biso   1.000  C
  C126     1.0000 0.15630  0.46180  0.43822  Biso   1.000  C
  C127     1.0000 0.15630  0.53820  0.56178  Biso   1.000  C
  C128     1.0000 0.34370  0.46180  0.06178  Biso   1.000  C
  H33      1.0000 0.83200  0.60820  0.69210  Biso   1.000  H
  H34      1.0000 0.16800  0.89180  0.69210  Biso   1.000  H
  H35      1.0000 0.83200  0.39180  0.30790  Biso   1.000  H
  H36      1.0000 0.16800  0.10820  0.30790  Biso   1.000  H
  H37      1.0000 0.64180  0.41800  0.05790  Biso   1.000  H
  H38      1.0000 0.85820  0.58200  0.55790  Biso   1.000  H
  H39      1.0000 0.85820  0.41800  0.44210  Biso   1.000  H
  H40      1.0000 0.64180  0.58200  0.94210  Biso   1.000  H
  H41      1.0000 0.33200  0.10820  0.19210  Biso   1.000  H
  H42      1.0000 0.66800  0.39180  0.19210  Biso   1.000  H
  H43      1.0000 0.33200  0.89180  0.80790  Biso   1.000  H
  H44      1.0000 0.66800  0.60820  0.80790  Biso   1.000  H
  H45      1.0000 0.14180  0.91800  0.55790  Biso   1.000  H
  H46      1.0000 0.35820  0.08200  0.05790  Biso   1.000  H
  H47      1.0000 0.35820  0.91800  0.94210  Biso   1.000  H
  H48      1.0000 0.14180  0.08200  0.44210  Biso   1.000  H
  H49      1.0000 0.16800  0.39180  0.30790  Biso   1.000  H
  H50      1.0000 0.83200  0.10820  0.30790  Biso   1.000  H
  H51      1.0000 0.16800  0.60820  0.69210  Biso   1.000  H
  H52      1.0000 0.83200  0.89180  0.69210  Biso   1.000  H
  H53      1.0000 0.85820  0.08200  0.44210  Biso   1.000  H
  H54      1.0000 0.64180  0.91800  0.94210  Biso   1.000  H
  H55      1.0000 0.64180  0.08200  0.05790  Biso   1.000  H
  H56      1.0000 0.85820  0.91800  0.55790  Biso   1.000  H
  H57      1.0000 0.66800  0.89180  0.80790  Biso   1.000  H
  H58      1.0000 0.33200  0.60820  0.80790  Biso   1.000  H
  H59      1.0000 0.66800  0.10820  0.19210  Biso   1.000  H
  H60      1.0000 0.33200  0.39180  0.19210  Biso   1.000  H
  H61      1.0000 0.35820  0.58200  0.94210  Biso   1.000  H
  H62      1.0000 0.14180  0.41800  0.44210  Biso   1.000  H
  H63      1.0000 0.14180  0.58200  0.55790  Biso   1.000  H
  H64      1.0000 0.35820  0.41800  0.05790  Biso   1.000  H
  C129     1.0000 0.66030  0.54920  0.67617  Biso   1.000  C
  C130     1.0000 0.33970  0.95080  0.67617  Biso   1.000  C
  C131     1.0000 0.66030  0.45080  0.32383  Biso   1.000  C
  C132     1.0000 0.33970  0.04920  0.32383  Biso   1.000  C
  C133     1.0000 0.70080  0.58970  0.07383  Biso   1.000  C
  C134     1.0000 0.79920  0.41030  0.57383  Biso   1.000  C
  C135     1.0000 0.79920  0.58970  0.42617  Biso   1.000  C
  C136     1.0000 0.70080  0.41030  0.92617  Biso   1.000  C
  C137     1.0000 0.16030  0.04920  0.17617  Biso   1.000  C
  C138     1.0000 0.83970  0.45080  0.17617  Biso   1.000  C
  C139     1.0000 0.16030  0.95080  0.82383  Biso   1.000  C
  C140     1.0000 0.83970  0.54920  0.82383  Biso   1.000  C
  C141     1.0000 0.20080  0.08970  0.57383  Biso   1.000  C
  C142     1.0000 0.29920  0.91030  0.07383  Biso   1.000  C
  C143     1.0000 0.29920  0.08970  0.92617  Biso   1.000  C
  C144     1.0000 0.20080  0.91030  0.42617  Biso   1.000  C
  C145     1.0000 0.33970  0.45080  0.32383  Biso   1.000  C
  C146     1.0000 0.66030  0.04920  0.32383  Biso   1.000  C
  C147     1.0000 0.33970  0.54920  0.67617  Biso   1.000  C
  C148     1.0000 0.66030  0.95080  0.67617  Biso   1.000  C
  C149     1.0000 0.79920  0.91030  0.42617  Biso   1.000  C
  C150     1.0000 0.70080  0.08970  0.92617  Biso   1.000  C
  C151     1.0000 0.70080  0.91030  0.07383  Biso   1.000  C
  C152     1.0000 0.79920  0.08970  0.57383  Biso   1.000  C
  C153     1.0000 0.83970  0.95080  0.82383  Biso   1.000  C
  C154     1.0000 0.16030  0.54920  0.82383  Biso   1.000  C
  C155     1.0000 0.83970  0.04920  0.17617  Biso   1.000  C
  C156     1.0000 0.16030  0.45080  0.17617  Biso   1.000  C
  C157     1.0000 0.29920  0.41030  0.92617  Biso   1.000  C
  C158     1.0000 0.20080  0.58970  0.42617  Biso   1.000  C
  C159     1.0000 0.20080  0.41030  0.57383  Biso   1.000  C
  C160     1.0000 0.29920  0.58970  0.07383  Biso   1.000  C
  H65      1.0000 0.61660  0.53430  0.67230  Biso   1.000  H
  H66      1.0000 0.38340  0.96570  0.67230  Biso   1.000  H
  H67      1.0000 0.61660  0.46570  0.32770  Biso   1.000  H
  H68      1.0000 0.38340  0.03430  0.32770  Biso   1.000  H
  H69      1.0000 0.71570  0.63340  0.07770  Biso   1.000  H
  H70      1.0000 0.78430  0.36660  0.57770  Biso   1.000  H
  H71      1.0000 0.78430  0.63340  0.42230  Biso   1.000  H
  H72      1.0000 0.71570  0.36660  0.92230  Biso   1.000  H
  H73      1.0000 0.11660  0.03430  0.17230  Biso   1.000  H
  H74      1.0000 0.88340  0.46570  0.17230  Biso   1.000  H
  H75      1.0000 0.11660  0.96570  0.82770  Biso   1.000  H
  H76      1.0000 0.88340  0.53430  0.82770  Biso   1.000  H
  H77      1.0000 0.21570  0.13340  0.57770  Biso   1.000  H
  H78      1.0000 0.28430  0.86660  0.07770  Biso   1.000  H
  H79      1.0000 0.28430  0.13340  0.92230  Biso   1.000  H
  H80      1.0000 0.21570  0.86660  0.42230  Biso   1.000  H
  H81      1.0000 0.38340  0.46570  0.32770  Biso   1.000  H
  H82      1.0000 0.61660  0.03430  0.32770  Biso   1.000  H
  H83      1.0000 0.38340  0.53430  0.67230  Biso   1.000  H
  H84      1.0000 0.61660  0.96570  0.67230  Biso   1.000  H
  H85      1.0000 0.78430  0.86660  0.42230  Biso   1.000  H
  H86      1.0000 0.71570  0.13340  0.92230  Biso   1.000  H
  H87      1.0000 0.71570  0.86660  0.07770  Biso   1.000  H
  H88      1.0000 0.78430  0.13340  0.57770  Biso   1.000  H
  H89      1.0000 0.88340  0.96570  0.82770  Biso   1.000  H
  H90      1.0000 0.11660  0.53430  0.82770  Biso   1.000  H
  H91      1.0000 0.88340  0.03430  0.17230  Biso   1.000  H
  H92      1.0000 0.11660  0.46570  0.17230  Biso   1.000  H
  H93      1.0000 0.28430  0.36660  0.92230  Biso   1.000  H
  H94      1.0000 0.21570  0.63340  0.42230  Biso   1.000  H
  H95      1.0000 0.21570  0.36660  0.57770  Biso   1.000  H
  H96      1.0000 0.28430  0.63340  0.07770  Biso   1.000  H
  C161     1.0000 0.77900  0.55140  0.67008  Biso   1.000  C
  C162     1.0000 0.22100  0.94860  0.67008  Biso   1.000  C
  C163     1.0000 0.77900  0.44860  0.32992  Biso   1.000  C
  C164     1.0000 0.22100  0.05140  0.32992  Biso   1.000  C
  C165     1.0000 0.69860  0.47100  0.07992  Biso   1.000  C
  C166     1.0000 0.80140  0.52900  0.57992  Biso   1.000  C
  C167     1.0000 0.80140  0.47100  0.42008  Biso   1.000  C
  C168     1.0000 0.69860  0.52900  0.92008  Biso   1.000  C
  C169     1.0000 0.27900  0.05140  0.17008  Biso   1.000  C
  C170     1.0000 0.72100  0.44860  0.17008  Biso   1.000  C
  C171     1.0000 0.27900  0.94860  0.82992  Biso   1.000  C
  C172     1.0000 0.72100  0.55140  0.82992  Biso   1.000  C
  C173     1.0000 0.19860  0.97100  0.57992  Biso   1.000  C
  C174     1.0000 0.30140  0.02900  0.07992  Biso   1.000  C
  C175     1.0000 0.30140  0.97100  0.92008  Biso   1.000  C
  C176     1.0000 0.19860  0.02900  0.42008  Biso   1.000  C
  C177     1.0000 0.22100  0.44860  0.32992  Biso   1.000  C
  C178     1.0000 0.77900  0.05140  0.32992  Biso   1.000  C
  C179     1.0000 0.22100  0.55140  0.67008  Biso   1.000  C
  C180     1.0000 0.77900  0.94860  0.67008  Biso   1.000  C
  C181     1.0000 0.80140  0.02900  0.42008  Biso   1.000  C
  C182     1.0000 0.69860  0.97100  0.92008  Biso   1.000  C
  C183     1.0000 0.69860  0.02900  0.07992  Biso   1.000  C
  C184     1.0000 0.80140  0.97100  0.57992  Biso   1.000  C
  C185     1.0000 0.72100  0.94860  0.82992  Biso   1.000  C
  C186     1.0000 0.27900  0.55140  0.82992  Biso   1.000  C
  C187     1.0000 0.72100  0.05140  0.17008  Biso   1.000  C
  C188     1.0000 0.27900  0.44860  0.17008  Biso   1.000  C
  C189     1.0000 0.30140  0.52900  0.92008  Biso   1.000  C
  C190     1.0000 0.19860  0.47100  0.42008  Biso   1.000  C
  C191     1.0000 0.19860  0.52900  0.57992  Biso   1.000  C
  C192     1.0000 0.30140  0.47100  0.07992  Biso   1.000  C
  H97      1.0000 0.81720  0.53800  0.66190  Biso   1.000  H
  H98      1.0000 0.18280  0.96200  0.66190  Biso   1.000  H
  H99      1.0000 0.81720  0.46200  0.33810  Biso   1.000  H
  H100     1.0000 0.18280  0.03800  0.33810  Biso   1.000  H
  H101     1.0000 0.71200  0.43280  0.08810  Biso   1.000  H
  H102     1.0000 0.78800  0.56720  0.58810  Biso   1.000  H
  H103     1.0000 0.78800  0.43280  0.41190  Biso   1.000  H
  H104     1.0000 0.71200  0.56720  0.91190  Biso   1.000  H
  H105     1.0000 0.31720  0.03800  0.16190  Biso   1.000  H
  H106     1.0000 0.68280  0.46200  0.16190  Biso   1.000  H
  H107     1.0000 0.31720  0.96200  0.83810  Biso   1.000  H
  H108     1.0000 0.68280  0.53800  0.83810  Biso   1.000  H
  H109     1.0000 0.21200  0.93280  0.58810  Biso   1.000  H
  H110     1.0000 0.28800  0.06720  0.08810  Biso   1.000  H
  H111     1.0000 0.28800  0.93280  0.91190  Biso   1.000  H
  H112     1.0000 0.21200  0.06720  0.41190  Biso   1.000  H
  H113     1.0000 0.18280  0.46200  0.33810  Biso   1.000  H
  H114     1.0000 0.81720  0.03800  0.33810  Biso   1.000  H
  H115     1.0000 0.18280  0.53800  0.66190  Biso   1.000  H
  H116     1.0000 0.81720  0.96200  0.66190  Biso   1.000  H
  H117     1.0000 0.78800  0.06720  0.41190  Biso   1.000  H
  H118     1.0000 0.71200  0.93280  0.91190  Biso   1.000  H
  H119     1.0000 0.71200  0.06720  0.08810  Biso   1.000  H
  H120     1.0000 0.78800  0.93280  0.58810  Biso   1.000  H
  H121     1.0000 0.68280  0.96200  0.83810  Biso   1.000  H
  H122     1.0000 0.31720  0.53800  0.83810  Biso   1.000  H
  H123     1.0000 0.68280  0.03800  0.16190  Biso   1.000  H
  H124     1.0000 0.31720  0.46200  0.16190  Biso   1.000  H
  H125     1.0000 0.28800  0.56720  0.91190  Biso   1.000  H
  H126     1.0000 0.21200  0.43280  0.41190  Biso   1.000  H
  H127     1.0000 0.21200  0.56720  0.58810  Biso   1.000  H
  H128     1.0000 0.28800  0.43280  0.08810  Biso   1.000  H
  C193     1.0000 0.71550  0.52850  0.66370  Biso   1.000  C
  C194     1.0000 0.28450  0.97150  0.66370  Biso   1.000  C
  C195     1.0000 0.71550  0.47150  0.33630  Biso   1.000  C
  C196     1.0000 0.28450  0.02850  0.33630  Biso   1.000  C
  C197     1.0000 0.72150  0.53450  0.08630  Biso   1.000  C
  C198     1.0000 0.77850  0.46550  0.58630  Biso   1.000  C
  C199     1.0000 0.77850  0.53450  0.41370  Biso   1.000  C
  C200     1.0000 0.72150  0.46550  0.91370  Biso   1.000  C
  C201     1.0000 0.21550  0.02850  0.16370  Biso   1.000  C
  C202     1.0000 0.78450  0.47150  0.16370  Biso   1.000  C
  C203     1.0000 0.21550  0.97150  0.83630  Biso   1.000  C
  C204     1.0000 0.78450  0.52850  0.83630  Biso   1.000  C
  C205     1.0000 0.22150  0.03450  0.58630  Biso   1.000  C
  C206     1.0000 0.27850  0.96550  0.08630  Biso   1.000  C
  C207     1.0000 0.27850  0.03450  0.91370  Biso   1.000  C
  C208     1.0000 0.22150  0.96550  0.41370  Biso   1.000  C
  C209     1.0000 0.28450  0.47150  0.33630  Biso   1.000  C
  C210     1.0000 0.71550  0.02850  0.33630  Biso   1.000  C
  C211     1.0000 0.28450  0.52850  0.66370  Biso   1.000  C
  C212     1.0000 0.71550  0.97150  0.66370  Biso   1.000  C
  C213     1.0000 0.77850  0.96550  0.41370  Biso   1.000  C
  C214     1.0000 0.72150  0.03450  0.91370  Biso   1.000  C
  C215     1.0000 0.72150  0.96550  0.08630  Biso   1.000  C
  C216     1.0000 0.77850  0.03450  0.58630  Biso   1.000  C
  C217     1.0000 0.78450  0.97150  0.83630  Biso   1.000  C
  C218     1.0000 0.21550  0.52850  0.83630  Biso   1.000  C
  C219     1.0000 0.78450  0.02850  0.16370  Biso   1.000  C
  C220     1.0000 0.21550  0.47150  0.16370  Biso   1.000  C
  C221     1.0000 0.27850  0.46550  0.91370  Biso   1.000  C
  C222     1.0000 0.22150  0.53450  0.41370  Biso   1.000  C
  C223     1.0000 0.22150  0.46550  0.58630  Biso   1.000  C
  C224     1.0000 0.27850  0.53450  0.08630  Biso   1.000  C
  C225     1.0000 0.70570  0.48580  0.64407  Biso   1.000  C
  C226     1.0000 0.29430  0.01420  0.64407  Biso   1.000  C
  C227     1.0000 0.70570  0.51420  0.35593  Biso   1.000  C
  C228     1.0000 0.29430  0.98580  0.35593  Biso   1.000  C
  C229     1.0000 0.76420  0.54430  0.10593  Biso   1.000  C
  C230     1.0000 0.73580  0.45570  0.60593  Biso   1.000  C
  C231     1.0000 0.73580  0.54430  0.39407  Biso   1.000  C
  C232     1.0000 0.76420  0.45570  0.89407  Biso   1.000  C
  C233     1.0000 0.20570  0.98580  0.14407  Biso   1.000  C
  C234     1.0000 0.79430  0.51420  0.14407  Biso   1.000  C
  C235     1.0000 0.20570  0.01420  0.85593  Biso   1.000  C
  C236     1.0000 0.79430  0.48580  0.85593  Biso   1.000  C
  C237     1.0000 0.26420  0.04430  0.60593  Biso   1.000  C
  C238     1.0000 0.23580  0.95570  0.10593  Biso   1.000  C
  C239     1.0000 0.23580  0.04430  0.89407  Biso   1.000  C
  C240     1.0000 0.26420  0.95570  0.39407  Biso   1.000  C
  C241     1.0000 0.29430  0.51420  0.35593  Biso   1.000  C
  C242     1.0000 0.70570  0.98580  0.35593  Biso   1.000  C
  C243     1.0000 0.29430  0.48580  0.64407  Biso   1.000  C
  C244     1.0000 0.70570  0.01420  0.64407  Biso   1.000  C
  C245     1.0000 0.73580  0.95570  0.39407  Biso   1.000  C
  C246     1.0000 0.76420  0.04430  0.89407  Biso   1.000  C
  C247     1.0000 0.76420  0.95570  0.10593  Biso   1.000  C
  C248     1.0000 0.73580  0.04430  0.60593  Biso   1.000  C
  C249     1.0000 0.79430  0.01420  0.85593  Biso   1.000  C
  C250     1.0000 0.20570  0.48580  0.85593  Biso   1.000  C
  C251     1.0000 0.79430  0.98580  0.14407  Biso   1.000  C
  C252     1.0000 0.20570  0.51420  0.14407  Biso   1.000  C
  C253     1.0000 0.23580  0.45570  0.89407  Biso   1.000  C
  C254     1.0000 0.26420  0.54430  0.39407  Biso   1.000  C
  C255     1.0000 0.26420  0.45570  0.60593  Biso   1.000  C
  C256     1.0000 0.23580  0.54430  0.10593  Biso   1.000  C
  C257     1.0000 0.74540  0.49540  0.62500  Biso   1.000  C
  C258     1.0000 0.25460  0.00460  0.62500  Biso   1.000  C
  C259     1.0000 0.74540  0.50460  0.37500  Biso   1.000  C
  C260     1.0000 0.25460  0.99540  0.37500  Biso   1.000  C
  C261     1.0000 0.75460  0.50460  0.12500  Biso   1.000  C
  C262     1.0000 0.75460  0.49540  0.87500  Biso   1.000  C
  C263     1.0000 0.24540  0.99540  0.12500  Biso   1.000  C
  C264     1.0000 0.24540  0.00460  0.87500  Biso   1.000  C
  C265     1.0000 0.25460  0.50460  0.37500  Biso   1.000  C
  C266     1.0000 0.74540  0.99540  0.37500  Biso   1.000  C
  C267     1.0000 0.25460  0.49540  0.62500  Biso   1.000  C
  C268     1.0000 0.74540  0.00460  0.62500  Biso   1.000  C
  C269     1.0000 0.75460  0.00460  0.87500  Biso   1.000  C
  C270     1.0000 0.75460  0.99540  0.12500  Biso   1.000  C
  C271     1.0000 0.24540  0.49540  0.87500  Biso   1.000  C
  C272     1.0000 0.24540  0.50460  0.12500  Biso   1.000  C
  H129     1.0000 0.77910  0.52910  0.62500  Biso   1.000  H
  H130     1.0000 0.22090  0.97090  0.62500  Biso   1.000  H
  H131     1.0000 0.77910  0.47090  0.37500  Biso   1.000  H
  H132     1.0000 0.22090  0.02910  0.37500  Biso   1.000  H
  H133     1.0000 0.72090  0.47090  0.12500  Biso   1.000  H
  H134     1.0000 0.72090  0.52910  0.87500  Biso   1.000  H
  H135     1.0000 0.27910  0.02910  0.12500  Biso   1.000  H
  H136     1.0000 0.27910  0.97090  0.87500  Biso   1.000  H
  H137     1.0000 0.22090  0.47090  0.37500  Biso   1.000  H
  H138     1.0000 0.77910  0.02910  0.37500  Biso   1.000  H
  H139     1.0000 0.22090  0.52910  0.62500  Biso   1.000  H
  H140     1.0000 0.77910  0.97090  0.62500  Biso   1.000  H
  H141     1.0000 0.72090  0.97090  0.87500  Biso   1.000  H
  H142     1.0000 0.72090  0.02910  0.12500  Biso   1.000  H
  H143     1.0000 0.27910  0.52910  0.87500  Biso   1.000  H
  H144     1.0000 0.27910  0.47090  0.12500  Biso   1.000  H
  C273     1.0000 0.65620  0.43350  0.64376  Biso   1.000  C
  C274     1.0000 0.34380  0.06650  0.64376  Biso   1.000  C
  C275     1.0000 0.65620  0.56650  0.35624  Biso   1.000  C
  C276     1.0000 0.34380  0.93350  0.35624  Biso   1.000  C
  C277     1.0000 0.81650  0.59380  0.10624  Biso   1.000  C
  C278     1.0000 0.68350  0.40620  0.60624  Biso   1.000  C
  C279     1.0000 0.68350  0.59380  0.39376  Biso   1.000  C
  C280     1.0000 0.81650  0.40620  0.89376  Biso   1.000  C
  C281     1.0000 0.15620  0.93350  0.14376  Biso   1.000  C
  C282     1.0000 0.84380  0.56650  0.14376  Biso   1.000  C
  C283     1.0000 0.15620  0.06650  0.85624  Biso   1.000  C
  C284     1.0000 0.84380  0.43350  0.85624  Biso   1.000  C
  C285     1.0000 0.31650  0.09380  0.60624  Biso   1.000  C
  C286     1.0000 0.18350  0.90620  0.10624  Biso   1.000  C
  C287     1.0000 0.18350  0.09380  0.89376  Biso   1.000  C
  C288     1.0000 0.31650  0.90620  0.39376  Biso   1.000  C
  C289     1.0000 0.34380  0.56650  0.35624  Biso   1.000  C
  C290     1.0000 0.65620  0.93350  0.35624  Biso   1.000  C
  C291     1.0000 0.34380  0.43350  0.64376  Biso   1.000  C
  C292     1.0000 0.65620  0.06650  0.64376  Biso   1.000  C
  C293     1.0000 0.68350  0.90620  0.39376  Biso   1.000  C
  C294     1.0000 0.81650  0.09380  0.89376  Biso   1.000  C
  C295     1.0000 0.81650  0.90620  0.10624  Biso   1.000  C
  C296     1.0000 0.68350  0.09380  0.60624  Biso   1.000  C
  C297     1.0000 0.84380  0.06650  0.85624  Biso   1.000  C
  C298     1.0000 0.15620  0.43350  0.85624  Biso   1.000  C
  C299     1.0000 0.84380  0.93350  0.14376  Biso   1.000  C
  C300     1.0000 0.15620  0.56650  0.14376  Biso   1.000  C
  C301     1.0000 0.18350  0.40620  0.89376  Biso   1.000  C
  C302     1.0000 0.31650  0.59380  0.39376  Biso   1.000  C
  C303     1.0000 0.31650  0.40620  0.60624  Biso   1.000  C
  C304     1.0000 0.18350  0.59380  0.10624  Biso   1.000  C
  H145     1.0000 0.63050  0.42460  0.65640  Biso   1.000  H
  H146     1.0000 0.36950  0.07540  0.65640  Biso   1.000  H
  H147     1.0000 0.63050  0.57540  0.34360  Biso   1.000  H
  H148     1.0000 0.36950  0.92460  0.34360  Biso   1.000  H
  H149     1.0000 0.82540  0.61950  0.09360  Biso   1.000  H
  H150     1.0000 0.67460  0.38050  0.59360  Biso   1.000  H
  H151     1.0000 0.67460  0.61950  0.40640  Biso   1.000  H
  H152     1.0000 0.82540  0.38050  0.90640  Biso   1.000  H
  H153     1.0000 0.13050  0.92460  0.15640  Biso   1.000  H
  H154     1.0000 0.86950  0.57540  0.15640  Biso   1.000  H
  H155     1.0000 0.13050  0.07540  0.84360  Biso   1.000  H
  H156     1.0000 0.86950  0.42460  0.84360  Biso   1.000  H
  H157     1.0000 0.32540  0.11950  0.59360  Biso   1.000  H
  H158     1.0000 0.17460  0.88050  0.09360  Biso   1.000  H
  H159     1.0000 0.17460  0.11950  0.90640  Biso   1.000  H
  H160     1.0000 0.32540  0.88050  0.40640  Biso   1.000  H
  H161     1.0000 0.36950  0.57540  0.34360  Biso   1.000  H
  H162     1.0000 0.63050  0.92460  0.34360  Biso   1.000  H
  H163     1.0000 0.36950  0.42460  0.65640  Biso   1.000  H
  H164     1.0000 0.63050  0.07540  0.65640  Biso   1.000  H
  H165     1.0000 0.67460  0.88050  0.40640  Biso   1.000  H
  H166     1.0000 0.82540  0.11950  0.90640  Biso   1.000  H
  H167     1.0000 0.82540  0.88050  0.09360  Biso   1.000  H
  H168     1.0000 0.67460  0.11950  0.59360  Biso   1.000  H
  H169     1.0000 0.86950  0.07540  0.84360  Biso   1.000  H
  H170     1.0000 0.13050  0.42460  0.84360  Biso   1.000  H
  H171     1.0000 0.86950  0.92460  0.15640  Biso   1.000  H
  H172     1.0000 0.13050  0.57540  0.15640  Biso   1.000  H
  H173     1.0000 0.17460  0.38050  0.90640  Biso   1.000  H
  H174     1.0000 0.32540  0.61950  0.40640  Biso   1.000  H
  H175     1.0000 0.32540  0.38050  0.59360  Biso   1.000  H
  H176     1.0000 0.17460  0.61950  0.09360  Biso   1.000  H
  C305     1.0000 0.64540  0.39540  0.62500  Biso   1.000  C
  C306     1.0000 0.35460  0.10460  0.62500  Biso   1.000  C
  C307     1.0000 0.64540  0.60460  0.37500  Biso   1.000  C
  C308     1.0000 0.35460  0.89540  0.37500  Biso   1.000  C
  C309     1.0000 0.85460  0.60460  0.12500  Biso   1.000  C
  C310     1.0000 0.85460  0.39540  0.87500  Biso   1.000  C
  C311     1.0000 0.14540  0.89540  0.12500  Biso   1.000  C
  C312     1.0000 0.14540  0.10460  0.87500  Biso   1.000  C
  C313     1.0000 0.35460  0.60460  0.37500  Biso   1.000  C
  C314     1.0000 0.64540  0.89540  0.37500  Biso   1.000  C
  C315     1.0000 0.35460  0.39540  0.62500  Biso   1.000  C
  C316     1.0000 0.64540  0.10460  0.62500  Biso   1.000  C
  C317     1.0000 0.85460  0.10460  0.87500  Biso   1.000  C
  C318     1.0000 0.85460  0.89540  0.12500  Biso   1.000  C
  C319     1.0000 0.14540  0.39540  0.87500  Biso   1.000  C
  C320     1.0000 0.14540  0.60460  0.12500  Biso   1.000  C
  C321     1.0000 0.59080  0.34080  0.62500  Biso   1.000  C
  C322     1.0000 0.40920  0.15920  0.62500  Biso   1.000  C
  C323     1.0000 0.59080  0.65920  0.37500  Biso   1.000  C
  C324     1.0000 0.40920  0.84080  0.37500  Biso   1.000  C
  C325     1.0000 0.90920  0.65920  0.12500  Biso   1.000  C
  C326     1.0000 0.90920  0.34080  0.87500  Biso   1.000  C
  C327     1.0000 0.09080  0.84080  0.12500  Biso   1.000  C
  C328     1.0000 0.09080  0.15920  0.87500  Biso   1.000  C
  C329     1.0000 0.40920  0.65920  0.37500  Biso   1.000  C
  C330     1.0000 0.59080  0.84080  0.37500  Biso   1.000  C
  C331     1.0000 0.40920  0.34080  0.62500  Biso   1.000  C
  C332     1.0000 0.59080  0.15920  0.62500  Biso   1.000  C
  C333     1.0000 0.90920  0.15920  0.87500  Biso   1.000  C
  C334     1.0000 0.90920  0.84080  0.12500  Biso   1.000  C
  C335     1.0000 0.09080  0.34080  0.87500  Biso   1.000  C
  C336     1.0000 0.09080  0.65920  0.12500  Biso   1.000  C
  C337     1.0000 0.53540  0.75000  0.73558  Biso   1.000  C
  C338     1.0000 0.46460  0.75000  0.73558  Biso   1.000  C
  C339     1.0000 0.53540  0.25000  0.26442  Biso   1.000  C
  C340     1.0000 0.46460  0.25000  0.26442  Biso   1.000  C
  C341     1.0000 0.50000  0.71460  0.01442  Biso   1.000  C
  C342     1.0000 0.00000  0.28540  0.51442  Biso   1.000  C
  C343     1.0000 0.00000  0.71460  0.48558  Biso   1.000  C
  C344     1.0000 0.50000  0.28540  0.98558  Biso   1.000  C
  C345     1.0000 0.03540  0.25000  0.23558  Biso   1.000  C
  C346     1.0000 0.96460  0.25000  0.23558  Biso   1.000  C
  C347     1.0000 0.03540  0.75000  0.76442  Biso   1.000  C
  C348     1.0000 0.96460  0.75000  0.76442  Biso   1.000  C
  C349     1.0000 0.00000  0.21460  0.51442  Biso   1.000  C
  C350     1.0000 0.50000  0.78540  0.01442  Biso   1.000  C
  C351     1.0000 0.50000  0.21460  0.98558  Biso   1.000  C
  C352     1.0000 0.00000  0.78540  0.48558  Biso   1.000  C
  H177     1.0000 0.55870  0.75000  0.72210  Biso   1.000  H
  H178     1.0000 0.44130  0.75000  0.72210  Biso   1.000  H
  H179     1.0000 0.55870  0.25000  0.27790  Biso   1.000  H
  H180     1.0000 0.44130  0.25000  0.27790  Biso   1.000  H
  H181     1.0000 0.50000  0.69130  0.02790  Biso   1.000  H
  H182     1.0000 0.00000  0.30870  0.52790  Biso   1.000  H
  H183     1.0000 0.00000  0.69130  0.47210  Biso   1.000  H
  H184     1.0000 0.50000  0.30870  0.97210  Biso   1.000  H
  H185     1.0000 0.05870  0.25000  0.22210  Biso   1.000  H
  H186     1.0000 0.94130  0.25000  0.22210  Biso   1.000  H
  H187     1.0000 0.05870  0.75000  0.77790  Biso   1.000  H
  H188     1.0000 0.94130  0.75000  0.77790  Biso   1.000  H
  H189     1.0000 0.00000  0.19130  0.52790  Biso   1.000  H
  H190     1.0000 0.50000  0.80870  0.02790  Biso   1.000  H
  H191     1.0000 0.50000  0.19130  0.97210  Biso   1.000  H
  H192     1.0000 0.00000  0.80870  0.47210  Biso   1.000  H
  C353     1.0000 0.53580  0.75000  0.77390  Biso   1.000  C
  C354     1.0000 0.46420  0.75000  0.77390  Biso   1.000  C
  C355     1.0000 0.53580  0.25000  0.22610  Biso   1.000  C
  C356     1.0000 0.46420  0.25000  0.22610  Biso   1.000  C
  C357     1.0000 0.50000  0.71420  0.97610  Biso   1.000  C
  C358     1.0000 0.00000  0.28580  0.47610  Biso   1.000  C
  C359     1.0000 0.00000  0.71420  0.52390  Biso   1.000  C
  C360     1.0000 0.50000  0.28580  0.02390  Biso   1.000  C
  C361     1.0000 0.03580  0.25000  0.27390  Biso   1.000  C
  C362     1.0000 0.96420  0.25000  0.27390  Biso   1.000  C
  C363     1.0000 0.03580  0.75000  0.72610  Biso   1.000  C
  C364     1.0000 0.96420  0.75000  0.72610  Biso   1.000  C
  C365     1.0000 0.00000  0.21420  0.47610  Biso   1.000  C
  C366     1.0000 0.50000  0.78580  0.97610  Biso   1.000  C
  C367     1.0000 0.50000  0.21420  0.02390  Biso   1.000  C
  C368     1.0000 0.00000  0.78580  0.52390  Biso   1.000  C
  N17      1.0000 0.56680  0.75000  0.79420  Biso   1.000  N
  N18      1.0000 0.43320  0.75000  0.79420  Biso   1.000  N
  N19      1.0000 0.56680  0.25000  0.20580  Biso   1.000  N
  N20      1.0000 0.43320  0.25000  0.20580  Biso   1.000  N
  N21      1.0000 0.50000  0.68320  0.95580  Biso   1.000  N
  N22      1.0000 0.00000  0.31680  0.45580  Biso   1.000  N
  N23      1.0000 0.00000  0.68320  0.54420  Biso   1.000  N
  N24      1.0000 0.50000  0.31680  0.04420  Biso   1.000  N
  N25      1.0000 0.06680  0.25000  0.29420  Biso   1.000  N
  N26      1.0000 0.93320  0.25000  0.29420  Biso   1.000  N
  N27      1.0000 0.06680  0.75000  0.70580  Biso   1.000  N
  N28      1.0000 0.93320  0.75000  0.70580  Biso   1.000  N
  N29      1.0000 0.00000  0.18320  0.45580  Biso   1.000  N
  N30      1.0000 0.50000  0.81680  0.95580  Biso   1.000  N
  N31      1.0000 0.50000  0.18320  0.04420  Biso   1.000  N
  N32      1.0000 0.00000  0.81680  0.54420  Biso   1.000  N
  H193     1.0000 0.61080  0.75000  0.79420  Biso   1.000  H
  H194     1.0000 0.38920  0.75000  0.79420  Biso   1.000  H
  H195     1.0000 0.61080  0.25000  0.20580  Biso   1.000  H
  H196     1.0000 0.38920  0.25000  0.20580  Biso   1.000  H
  H197     1.0000 0.50000  0.63920  0.95580  Biso   1.000  H
  H198     1.0000 0.00000  0.36080  0.45580  Biso   1.000  H
  H199     1.0000 0.00000  0.63920  0.54420  Biso   1.000  H
  H200     1.0000 0.50000  0.36080  0.04420  Biso   1.000  H
  H201     1.0000 0.11080  0.25000  0.29420  Biso   1.000  H
  H202     1.0000 0.88920  0.25000  0.29420  Biso   1.000  H
  H203     1.0000 0.11080  0.75000  0.70580  Biso   1.000  H
  H204     1.0000 0.88920  0.75000  0.70580  Biso   1.000  H
  H205     1.0000 0.00000  0.13920  0.45580  Biso   1.000  H
  H206     1.0000 0.50000  0.86080  0.95580  Biso   1.000  H
  H207     1.0000 0.50000  0.13920  0.04420  Biso   1.000  H
  H208     1.0000 0.00000  0.86080  0.54420  Biso   1.000  H
  H209     1.0000 0.54460  0.75000  0.80650  Biso   1.000  H
  H210     1.0000 0.45540  0.75000  0.80650  Biso   1.000  H
  H211     1.0000 0.54460  0.25000  0.19350  Biso   1.000  H
  H212     1.0000 0.45540  0.25000  0.19350  Biso   1.000  H
  H213     1.0000 0.50000  0.70540  0.94350  Biso   1.000  H
  H214     1.0000 0.00000  0.29460  0.44350  Biso   1.000  H
  H215     1.0000 0.00000  0.70540  0.55650  Biso   1.000  H
  H216     1.0000 0.50000  0.29460  0.05650  Biso   1.000  H
  H217     1.0000 0.04460  0.25000  0.30650  Biso   1.000  H
  H218     1.0000 0.95540  0.25000  0.30650  Biso   1.000  H
  H219     1.0000 0.04460  0.75000  0.69350  Biso   1.000  H
  H220     1.0000 0.95540  0.75000  0.69350  Biso   1.000  H
  H221     1.0000 0.00000  0.20540  0.44350  Biso   1.000  H
  H222     1.0000 0.50000  0.79460  0.94350  Biso   1.000  H
  H223     1.0000 0.50000  0.20540  0.05650  Biso   1.000  H
  H224     1.0000 0.00000  0.79460  0.55650  Biso   1.000  H
  C369     1.0000 0.53970  0.69670  0.75670  Biso   1.000  C
  C370     1.0000 0.46030  0.80330  0.75670  Biso   1.000  C
  C371     1.0000 0.53970  0.30330  0.24330  Biso   1.000  C
  C372     1.0000 0.46030  0.19670  0.24330  Biso   1.000  C
  C373     1.0000 0.55330  0.71030  0.99330  Biso   1.000  C
  C374     1.0000 0.94670  0.28970  0.49330  Biso   1.000  C
  C375     1.0000 0.94670  0.71030  0.50670  Biso   1.000  C
  C376     1.0000 0.55330  0.28970  0.00670  Biso   1.000  C
  C377     1.0000 0.03970  0.19670  0.25670  Biso   1.000  C
  C378     1.0000 0.96030  0.30330  0.25670  Biso   1.000  C
  C379     1.0000 0.03970  0.80330  0.74330  Biso   1.000  C
  C380     1.0000 0.96030  0.69670  0.74330  Biso   1.000  C
  C381     1.0000 0.05330  0.21030  0.49330  Biso   1.000  C
  C382     1.0000 0.44670  0.78970  0.99330  Biso   1.000  C
  C383     1.0000 0.44670  0.21030  0.00670  Biso   1.000  C
  C384     1.0000 0.05330  0.78970  0.50670  Biso   1.000  C
  C385     1.0000 0.46030  0.30330  0.24330  Biso   1.000  C
  C386     1.0000 0.53970  0.19670  0.24330  Biso   1.000  C
  C387     1.0000 0.46030  0.69670  0.75670  Biso   1.000  C
  C388     1.0000 0.53970  0.80330  0.75670  Biso   1.000  C
  C389     1.0000 0.94670  0.78970  0.50670  Biso   1.000  C
  C390     1.0000 0.55330  0.21030  0.00670  Biso   1.000  C
  C391     1.0000 0.55330  0.78970  0.99330  Biso   1.000  C
  C392     1.0000 0.94670  0.21030  0.49330  Biso   1.000  C
  C393     1.0000 0.96030  0.80330  0.74330  Biso   1.000  C
  C394     1.0000 0.03970  0.69670  0.74330  Biso   1.000  C
  C395     1.0000 0.96030  0.19670  0.25670  Biso   1.000  C
  C396     1.0000 0.03970  0.30330  0.25670  Biso   1.000  C
  C397     1.0000 0.44670  0.28970  0.00670  Biso   1.000  C
  C398     1.0000 0.05330  0.71030  0.50670  Biso   1.000  C
  C399     1.0000 0.05330  0.28970  0.49330  Biso   1.000  C
  C400     1.0000 0.44670  0.71030  0.99330  Biso   1.000  C
  H225     1.0000 0.56330  0.65560  0.75820  Biso   1.000  H
  H226     1.0000 0.43670  0.84440  0.75820  Biso   1.000  H
  H227     1.0000 0.56330  0.34440  0.24180  Biso   1.000  H
  H228     1.0000 0.43670  0.15560  0.24180  Biso   1.000  H
  H229     1.0000 0.59440  0.68670  0.99180  Biso   1.000  H
  H230     1.0000 0.90560  0.31330  0.49180  Biso   1.000  H
  H231     1.0000 0.90560  0.68670  0.50820  Biso   1.000  H
  H232     1.0000 0.59440  0.31330  0.00820  Biso   1.000  H
  H233     1.0000 0.06330  0.15560  0.25820  Biso   1.000  H
  H234     1.0000 0.93670  0.34440  0.25820  Biso   1.000  H
  H235     1.0000 0.06330  0.84440  0.74180  Biso   1.000  H
  H236     1.0000 0.93670  0.65560  0.74180  Biso   1.000  H
  H237     1.0000 0.09440  0.18670  0.49180  Biso   1.000  H
  H238     1.0000 0.40560  0.81330  0.99180  Biso   1.000  H
  H239     1.0000 0.40560  0.18670  0.00820  Biso   1.000  H
  H240     1.0000 0.09440  0.81330  0.50820  Biso   1.000  H
  H241     1.0000 0.43670  0.34440  0.24180  Biso   1.000  H
  H242     1.0000 0.56330  0.15560  0.24180  Biso   1.000  H
  H243     1.0000 0.43670  0.65560  0.75820  Biso   1.000  H
  H244     1.0000 0.56330  0.84440  0.75820  Biso   1.000  H
  H245     1.0000 0.90560  0.81330  0.50820  Biso   1.000  H
  H246     1.0000 0.59440  0.18670  0.00820  Biso   1.000  H
  H247     1.0000 0.59440  0.81330  0.99180  Biso   1.000  H
  H248     1.0000 0.90560  0.18670  0.49180  Biso   1.000  H
  H249     1.0000 0.93670  0.84440  0.74180  Biso   1.000  H
  H250     1.0000 0.06330  0.65560  0.74180  Biso   1.000  H
  H251     1.0000 0.93670  0.15560  0.25820  Biso   1.000  H
  H252     1.0000 0.06330  0.34440  0.25820  Biso   1.000  H
  H253     1.0000 0.40560  0.31330  0.00820  Biso   1.000  H
  H254     1.0000 0.09440  0.68670  0.50820  Biso   1.000  H
  H255     1.0000 0.09440  0.31330  0.49180  Biso   1.000  H
  H256     1.0000 0.40560  0.68670  0.99180  Biso   1.000  H
  N33      1.0000 0.55900  0.62540  0.75860  Biso   1.000  N
  N34      1.0000 0.44100  0.87460  0.75860  Biso   1.000  N
  N35      1.0000 0.55900  0.37460  0.24140  Biso   1.000  N
  N36      1.0000 0.44100  0.12540  0.24140  Biso   1.000  N
  N37      1.0000 0.62460  0.69100  0.99140  Biso   1.000  N
  N38      1.0000 0.87540  0.30900  0.49140  Biso   1.000  N
  N39      1.0000 0.87540  0.69100  0.50860  Biso   1.000  N
  N40      1.0000 0.62460  0.30900  0.00860  Biso   1.000  N
  N41      1.0000 0.05900  0.12540  0.25860  Biso   1.000  N
  N42      1.0000 0.94100  0.37460  0.25860  Biso   1.000  N
  N43      1.0000 0.05900  0.87460  0.74140  Biso   1.000  N
  N44      1.0000 0.94100  0.62540  0.74140  Biso   1.000  N
  N45      1.0000 0.12460  0.19100  0.49140  Biso   1.000  N
  N46      1.0000 0.37540  0.80900  0.99140  Biso   1.000  N
  N47      1.0000 0.37540  0.19100  0.00860  Biso   1.000  N
  N48      1.0000 0.12460  0.80900  0.50860  Biso   1.000  N
  N49      1.0000 0.44100  0.37460  0.24140  Biso   1.000  N
  N50      1.0000 0.55900  0.12540  0.24140  Biso   1.000  N
  N51      1.0000 0.44100  0.62540  0.75860  Biso   1.000  N
  N52      1.0000 0.55900  0.87460  0.75860  Biso   1.000  N
  N53      1.0000 0.87540  0.80900  0.50860  Biso   1.000  N
  N54      1.0000 0.62460  0.19100  0.00860  Biso   1.000  N
  N55      1.0000 0.62460  0.80900  0.99140  Biso   1.000  N
  N56      1.0000 0.87540  0.19100  0.49140  Biso   1.000  N
  N57      1.0000 0.94100  0.87460  0.74140  Biso   1.000  N
  N58      1.0000 0.05900  0.62540  0.74140  Biso   1.000  N
  N59      1.0000 0.94100  0.12540  0.25860  Biso   1.000  N
  N60      1.0000 0.05900  0.37460  0.25860  Biso   1.000  N
  N61      1.0000 0.37540  0.30900  0.00860  Biso   1.000  N
  N62      1.0000 0.12460  0.69100  0.50860  Biso   1.000  N
  N63      1.0000 0.12460  0.30900  0.49140  Biso   1.000  N
  N64      1.0000 0.37540  0.69100  0.99140  Biso   1.000  N
  H257     1.0000 0.60680  0.62030  0.75720  Biso   1.000  H
  H258     1.0000 0.39320  0.87970  0.75720  Biso   1.000  H
  H259     1.0000 0.60680  0.37970  0.24280  Biso   1.000  H
  H260     1.0000 0.39320  0.12030  0.24280  Biso   1.000  H
  H261     1.0000 0.62970  0.64320  0.99280  Biso   1.000  H
  H262     1.0000 0.87030  0.35680  0.49280  Biso   1.000  H
  H263     1.0000 0.87030  0.64320  0.50720  Biso   1.000  H
  H264     1.0000 0.62970  0.35680  0.00720  Biso   1.000  H
  H265     1.0000 0.10680  0.12030  0.25720  Biso   1.000  H
  H266     1.0000 0.89320  0.37970  0.25720  Biso   1.000  H
  H267     1.0000 0.10680  0.87970  0.74280  Biso   1.000  H
  H268     1.0000 0.89320  0.62030  0.74280  Biso   1.000  H
  H269     1.0000 0.12970  0.14320  0.49280  Biso   1.000  H
  H270     1.0000 0.37030  0.85680  0.99280  Biso   1.000  H
  H271     1.0000 0.37030  0.14320  0.00720  Biso   1.000  H
  H272     1.0000 0.12970  0.85680  0.50720  Biso   1.000  H
  H273     1.0000 0.39320  0.37970  0.24280  Biso   1.000  H
  H274     1.0000 0.60680  0.12030  0.24280  Biso   1.000  H
  H275     1.0000 0.39320  0.62030  0.75720  Biso   1.000  H
  H276     1.0000 0.60680  0.87970  0.75720  Biso   1.000  H
  H277     1.0000 0.87030  0.85680  0.50720  Biso   1.000  H
  H278     1.0000 0.62970  0.14320  0.00720  Biso   1.000  H
  H279     1.0000 0.62970  0.85680  0.99280  Biso   1.000  H
  H280     1.0000 0.87030  0.14320  0.49280  Biso   1.000  H
  H281     1.0000 0.89320  0.87970  0.74280  Biso   1.000  H
  H282     1.0000 0.10680  0.62030  0.74280  Biso   1.000  H
  H283     1.0000 0.89320  0.12030  0.25720  Biso   1.000  H
  H284     1.0000 0.10680  0.37970  0.25720  Biso   1.000  H
  H285     1.0000 0.37030  0.35680  0.00720  Biso   1.000  H
  H286     1.0000 0.12970  0.64320  0.50720  Biso   1.000  H
  H287     1.0000 0.12970  0.35680  0.49280  Biso   1.000  H
  H288     1.0000 0.37030  0.64320  0.99280  Biso   1.000  H
  H289     1.0000 0.53380  0.58840  0.75900  Biso   1.000  H
  H290     1.0000 0.46620  0.91160  0.75900  Biso   1.000  H
  H291     1.0000 0.53380  0.41160  0.24100  Biso   1.000  H
  H292     1.0000 0.46620  0.08840  0.24100  Biso   1.000  H
  H293     1.0000 0.66160  0.71620  0.99100  Biso   1.000  H
  H294     1.0000 0.83840  0.28380  0.49100  Biso   1.000  H
  H295     1.0000 0.83840  0.71620  0.50900  Biso   1.000  H
  H296     1.0000 0.66160  0.28380  0.00900  Biso   1.000  H
  H297     1.0000 0.03380  0.08840  0.25900  Biso   1.000  H
  H298     1.0000 0.96620  0.41160  0.25900  Biso   1.000  H
  H299     1.0000 0.03380  0.91160  0.74100  Biso   1.000  H
  H300     1.0000 0.96620  0.58840  0.74100  Biso   1.000  H
  H301     1.0000 0.16160  0.21620  0.49100  Biso   1.000  H
  H302     1.0000 0.33840  0.78380  0.99100  Biso   1.000  H
  H303     1.0000 0.33840  0.21620  0.00900  Biso   1.000  H
  H304     1.0000 0.16160  0.78380  0.50900  Biso   1.000  H
  H305     1.0000 0.46620  0.41160  0.24100  Biso   1.000  H
  H306     1.0000 0.53380  0.08840  0.24100  Biso   1.000  H
  H307     1.0000 0.46620  0.58840  0.75900  Biso   1.000  H
  H308     1.0000 0.53380  0.91160  0.75900  Biso   1.000  H
  H309     1.0000 0.83840  0.78380  0.50900  Biso   1.000  H
  H310     1.0000 0.66160  0.21620  0.00900  Biso   1.000  H
  H311     1.0000 0.66160  0.78380  0.99100  Biso   1.000  H
  H312     1.0000 0.83840  0.21620  0.49100  Biso   1.000  H
  H313     1.0000 0.96620  0.91160  0.74100  Biso   1.000  H
  H314     1.0000 0.03380  0.58840  0.74100  Biso   1.000  H
  H315     1.0000 0.96620  0.08840  0.25900  Biso   1.000  H
  H316     1.0000 0.03380  0.41160  0.25900  Biso   1.000  H
  H317     1.0000 0.33840  0.28380  0.00900  Biso   1.000  H
  H318     1.0000 0.16160  0.71620  0.50900  Biso   1.000  H
  H319     1.0000 0.16160  0.28380  0.49100  Biso   1.000  H
  H320     1.0000 0.33840  0.71620  0.99100  Biso   1.000  H
  H321     1.0000 0.48800  0.29480  0.56180  Biso   1.000  H
  H322     1.0000 0.51200  0.20520  0.56180  Biso   1.000  H
  H323     1.0000 0.48800  0.70520  0.43820  Biso   1.000  H
  H324     1.0000 0.51200  0.79480  0.43820  Biso   1.000  H
  H325     1.0000 0.95520  0.76200  0.18820  Biso   1.000  H
  H326     1.0000 0.54480  0.23800  0.68820  Biso   1.000  H
  H327     1.0000 0.54480  0.76200  0.31180  Biso   1.000  H
  H328     1.0000 0.95520  0.23800  0.81180  Biso   1.000  H
  H329     1.0000 0.98800  0.79480  0.06180  Biso   1.000  H
  H330     1.0000 0.01200  0.70520  0.06180  Biso   1.000  H
  H331     1.0000 0.98800  0.20520  0.93820  Biso   1.000  H
  H332     1.0000 0.01200  0.29480  0.93820  Biso   1.000  H
  H333     1.0000 0.45520  0.26200  0.68820  Biso   1.000  H
  H334     1.0000 0.04480  0.73800  0.18820  Biso   1.000  H
  H335     1.0000 0.04480  0.26200  0.81180  Biso   1.000  H
  H336     1.0000 0.45520  0.73800  0.31180  Biso   1.000  H
  H337     1.0000 0.51200  0.70520  0.43820  Biso   1.000  H
  H338     1.0000 0.48800  0.79480  0.43820  Biso   1.000  H
  H339     1.0000 0.51200  0.29480  0.56180  Biso   1.000  H
  H340     1.0000 0.48800  0.20520  0.56180  Biso   1.000  H
  H341     1.0000 0.54480  0.73800  0.31180  Biso   1.000  H
  H342     1.0000 0.95520  0.26200  0.81180  Biso   1.000  H
  H343     1.0000 0.95520  0.73800  0.18820  Biso   1.000  H
  H344     1.0000 0.54480  0.26200  0.68820  Biso   1.000  H
  H345     1.0000 0.01200  0.20520  0.93820  Biso   1.000  H
  H346     1.0000 0.98800  0.29480  0.93820  Biso   1.000  H
  H347     1.0000 0.01200  0.79480  0.06180  Biso   1.000  H
  H348     1.0000 0.98800  0.70520  0.06180  Biso   1.000  H
  H349     1.0000 0.04480  0.23800  0.81180  Biso   1.000  H
  H350     1.0000 0.45520  0.76200  0.31180  Biso   1.000  H
  H351     1.0000 0.45520  0.23800  0.68820  Biso   1.000  H
  H352     1.0000 0.04480  0.76200  0.18820  Biso   1.000  H
  H353     1.0000 0.46720  0.21720  0.56180  Biso   1.000  H
  H354     1.0000 0.53280  0.28280  0.56180  Biso   1.000  H
  H355     1.0000 0.46720  0.78280  0.43820  Biso   1.000  H
  H356     1.0000 0.53280  0.71720  0.43820  Biso   1.000  H
  H357     1.0000 0.03280  0.78280  0.18820  Biso   1.000  H
  H358     1.0000 0.46720  0.21720  0.68820  Biso   1.000  H
  H359     1.0000 0.46720  0.78280  0.31180  Biso   1.000  H
  H360     1.0000 0.03280  0.21720  0.81180  Biso   1.000  H
  H361     1.0000 0.96720  0.71720  0.06180  Biso   1.000  H
  H362     1.0000 0.03280  0.78280  0.06180  Biso   1.000  H
  H363     1.0000 0.96720  0.28280  0.93820  Biso   1.000  H
  H364     1.0000 0.03280  0.21720  0.93820  Biso   1.000  H
  H365     1.0000 0.53280  0.28280  0.68820  Biso   1.000  H
  H366     1.0000 0.96720  0.71720  0.18820  Biso   1.000  H
  H367     1.0000 0.96720  0.28280  0.81180  Biso   1.000  H
  H368     1.0000 0.53280  0.71720  0.31180  Biso   1.000  H
  H369     1.0000 0.53280  0.78280  0.43820  Biso   1.000  H
  H370     1.0000 0.46720  0.71720  0.43820  Biso   1.000  H
  H371     1.0000 0.53280  0.21720  0.56180  Biso   1.000  H
  H372     1.0000 0.46720  0.28280  0.56180  Biso   1.000  H
  H373     1.0000 0.46720  0.71720  0.31180  Biso   1.000  H
  H374     1.0000 0.03280  0.28280  0.81180  Biso   1.000  H
  H375     1.0000 0.03280  0.71720  0.18820  Biso   1.000  H
  H376     1.0000 0.46720  0.28280  0.68820  Biso   1.000  H
  H377     1.0000 0.03280  0.28280  0.93820  Biso   1.000  H
  H378     1.0000 0.96720  0.21720  0.93820  Biso   1.000  H
  H379     1.0000 0.03280  0.71720  0.06180  Biso   1.000  H
  H380     1.0000 0.96720  0.78280  0.06180  Biso   1.000  H
  H381     1.0000 0.96720  0.21720  0.81180  Biso   1.000  H
  H382     1.0000 0.53280  0.78280  0.31180  Biso   1.000  H
  H383     1.0000 0.53280  0.21720  0.68820  Biso   1.000  H
  H384     1.0000 0.96720  0.78280  0.18820  Biso   1.000  H
  H385     1.0000 0.55890  0.75000  0.78740  Biso   1.000  H
  H386     1.0000 0.44110  0.75000  0.78740  Biso   1.000  H
  H387     1.0000 0.55890  0.25000  0.21260  Biso   1.000  H
  H388     1.0000 0.44110  0.25000  0.21260  Biso   1.000  H
  H389     1.0000 0.50000  0.69110  0.96260  Biso   1.000  H
  H390     1.0000 0.00000  0.30890  0.46260  Biso   1.000  H
  H391     1.0000 0.00000  0.69110  0.53740  Biso   1.000  H
  H392     1.0000 0.50000  0.30890  0.03740  Biso   1.000  H
  H393     1.0000 0.05890  0.25000  0.28740  Biso   1.000  H
  H394     1.0000 0.94110  0.25000  0.28740  Biso   1.000  H
  H395     1.0000 0.05890  0.75000  0.71260  Biso   1.000  H
  H396     1.0000 0.94110  0.75000  0.71260  Biso   1.000  H
  H397     1.0000 0.00000  0.19110  0.46260  Biso   1.000  H
  H398     1.0000 0.50000  0.80890  0.96260  Biso   1.000  H
  H399     1.0000 0.50000  0.19110  0.03740  Biso   1.000  H
  H400     1.0000 0.00000  0.80890  0.53740  Biso   1.000  H
