data_image0
_cell_length_a       19.627
_cell_length_b       19.627
_cell_length_c       60.175
_cell_angle_alpha    90
_cell_angle_beta     90
_cell_angle_gamma    90

_symmetry_space_group_name_H-M    "P 1"
_symmetry_int_tables_number       1

loop_
  _symmetry_equiv_pos_as_xyz
  'x, y, z'

loop_
  _atom_site_label
  _atom_site_occupancy
  _atom_site_fract_x
  _atom_site_fract_y
  _atom_site_fract_z
  _atom_site_thermal_displace_type
  _atom_site_B_iso_or_equiv
  _atom_site_type_symbol
  Cu1      1.0000 0.18392  0.75000  0.24719  Biso   1.000  Cu
  Cu2      1.0000 0.81608  0.75000  0.24719  Biso   1.000  Cu
  Cu3      1.0000 0.18392  0.25000  0.75281  Biso   1.000  Cu
  Cu4      1.0000 0.81608  0.25000  0.75281  Biso   1.000  Cu
  Cu5      1.0000 0.50000  0.06608  0.50281  Biso   1.000  Cu
  Cu6      1.0000 0.00000  0.93392  0.00281  Biso   1.000  Cu
  Cu7      1.0000 0.00000  0.06608  0.99719  Biso   1.000  Cu
  Cu8      1.0000 0.50000  0.93392  0.49719  Biso   1.000  Cu
  Cu9      1.0000 0.68392  0.25000  0.74719  Biso   1.000  Cu
  Cu10     1.0000 0.31608  0.25000  0.74719  Biso   1.000  Cu
  Cu11     1.0000 0.68392  0.75000  0.25281  Biso   1.000  Cu
  Cu12     1.0000 0.31608  0.75000  0.25281  Biso   1.000  Cu
  Cu13     1.0000 0.00000  0.56608  0.00281  Biso   1.000  Cu
  Cu14     1.0000 0.50000  0.43392  0.50281  Biso   1.000  Cu
  Cu15     1.0000 0.50000  0.56608  0.49719  Biso   1.000  Cu
  Cu16     1.0000 0.00000  0.43392  0.99719  Biso   1.000  Cu
  Cu17     1.0000 0.00000  0.25000  0.35314  Biso   1.000  Cu
  Cu18     1.0000 0.00000  0.75000  0.64686  Biso   1.000  Cu
  Cu19     1.0000 0.00000  0.25000  0.39686  Biso   1.000  Cu
  Cu20     1.0000 0.50000  0.75000  0.89686  Biso   1.000  Cu
  Cu21     1.0000 0.50000  0.25000  0.10314  Biso   1.000  Cu
  Cu22     1.0000 0.00000  0.75000  0.60314  Biso   1.000  Cu
  Cu23     1.0000 0.50000  0.75000  0.85314  Biso   1.000  Cu
  Cu24     1.0000 0.50000  0.25000  0.14686  Biso   1.000  Cu
  O1       1.0000 0.29993  0.68079  0.27541  Biso   1.000  O
  O2       1.0000 0.70007  0.81921  0.27541  Biso   1.000  O
  O3       1.0000 0.29993  0.31921  0.72459  Biso   1.000  O
  O4       1.0000 0.70007  0.18079  0.72459  Biso   1.000  O
  O5       1.0000 0.56921  0.95007  0.47459  Biso   1.000  O
  O6       1.0000 0.93079  0.04993  0.97459  Biso   1.000  O
  O7       1.0000 0.93079  0.95007  0.02541  Biso   1.000  O
  O8       1.0000 0.56921  0.04993  0.52541  Biso   1.000  O
  O9       1.0000 0.79993  0.18079  0.77541  Biso   1.000  O
  O10      1.0000 0.20007  0.31921  0.77541  Biso   1.000  O
  O11      1.0000 0.79993  0.81921  0.22459  Biso   1.000  O
  O12      1.0000 0.20007  0.68079  0.22459  Biso   1.000  O
  O13      1.0000 0.06921  0.45007  0.97459  Biso   1.000  O
  O14      1.0000 0.43079  0.54993  0.47459  Biso   1.000  O
  O15      1.0000 0.43079  0.45007  0.52541  Biso   1.000  O
  O16      1.0000 0.06921  0.54993  0.02541  Biso   1.000  O
  O17      1.0000 0.70007  0.31921  0.72459  Biso   1.000  O
  O18      1.0000 0.29993  0.18079  0.72459  Biso   1.000  O
  O19      1.0000 0.70007  0.68079  0.27541  Biso   1.000  O
  O20      1.0000 0.29993  0.81921  0.27541  Biso   1.000  O
  O21      1.0000 0.93079  0.54993  0.02541  Biso   1.000  O
  O22      1.0000 0.56921  0.45007  0.52541  Biso   1.000  O
  O23      1.0000 0.56921  0.54993  0.47459  Biso   1.000  O
  O24      1.0000 0.93079  0.45007  0.97459  Biso   1.000  O
  O25      1.0000 0.20007  0.81921  0.22459  Biso   1.000  O
  O26      1.0000 0.79993  0.68079  0.22459  Biso   1.000  O
  O27      1.0000 0.20007  0.18079  0.77541  Biso   1.000  O
  O28      1.0000 0.79993  0.31921  0.77541  Biso   1.000  O
  O29      1.0000 0.43079  0.04993  0.52541  Biso   1.000  O
  O30      1.0000 0.06921  0.95007  0.02541  Biso   1.000  O
  O31      1.0000 0.06921  0.04993  0.97459  Biso   1.000  O
  O32      1.0000 0.43079  0.95007  0.47459  Biso   1.000  O
  O33      1.0000 0.18764  0.68021  0.27055  Biso   1.000  O
  O34      1.0000 0.81236  0.81979  0.27055  Biso   1.000  O
  O35      1.0000 0.18764  0.31979  0.72945  Biso   1.000  O
  O36      1.0000 0.81236  0.18021  0.72945  Biso   1.000  O
  O37      1.0000 0.56979  0.06236  0.47945  Biso   1.000  O
  O38      1.0000 0.93021  0.93764  0.97945  Biso   1.000  O
  O39      1.0000 0.93021  0.06236  0.02055  Biso   1.000  O
  O40      1.0000 0.56979  0.93764  0.52055  Biso   1.000  O
  O41      1.0000 0.68764  0.18021  0.77055  Biso   1.000  O
  O42      1.0000 0.31236  0.31979  0.77055  Biso   1.000  O
  O43      1.0000 0.68764  0.81979  0.22945  Biso   1.000  O
  O44      1.0000 0.31236  0.68021  0.22945  Biso   1.000  O
  O45      1.0000 0.06979  0.56236  0.97945  Biso   1.000  O
  O46      1.0000 0.43021  0.43764  0.47945  Biso   1.000  O
  O47      1.0000 0.43021  0.56236  0.52055  Biso   1.000  O
  O48      1.0000 0.06979  0.43764  0.02055  Biso   1.000  O
  O49      1.0000 0.81236  0.31979  0.72945  Biso   1.000  O
  O50      1.0000 0.18764  0.18021  0.72945  Biso   1.000  O
  O51      1.0000 0.81236  0.68021  0.27055  Biso   1.000  O
  O52      1.0000 0.18764  0.81979  0.27055  Biso   1.000  O
  O53      1.0000 0.93021  0.43764  0.02055  Biso   1.000  O
  O54      1.0000 0.56979  0.56236  0.52055  Biso   1.000  O
  O55      1.0000 0.56979  0.43764  0.47945  Biso   1.000  O
  O56      1.0000 0.93021  0.56236  0.97945  Biso   1.000  O
  O57      1.0000 0.31236  0.81979  0.22945  Biso   1.000  O
  O58      1.0000 0.68764  0.68021  0.22945  Biso   1.000  O
  O59      1.0000 0.31236  0.18021  0.77055  Biso   1.000  O
  O60      1.0000 0.68764  0.31979  0.77055  Biso   1.000  O
  O61      1.0000 0.43021  0.93764  0.52055  Biso   1.000  O
  O62      1.0000 0.06979  0.06236  0.02055  Biso   1.000  O
  O63      1.0000 0.06979  0.93764  0.97945  Biso   1.000  O
  O64      1.0000 0.43021  0.06236  0.47945  Biso   1.000  O
  O65      1.0000 0.00000  0.25000  0.31711  Biso   1.000  O
  O66      1.0000 0.00000  0.75000  0.68289  Biso   1.000  O
  O67      1.0000 0.00000  0.25000  0.43289  Biso   1.000  O
  O68      1.0000 0.50000  0.75000  0.93289  Biso   1.000  O
  O69      1.0000 0.50000  0.25000  0.06711  Biso   1.000  O
  O70      1.0000 0.00000  0.75000  0.56711  Biso   1.000  O
  O71      1.0000 0.50000  0.75000  0.81711  Biso   1.000  O
  O72      1.0000 0.50000  0.25000  0.18289  Biso   1.000  O
  O73      1.0000 0.07031  0.32066  0.35657  Biso   1.000  O
  O74      1.0000 0.92969  0.17934  0.35657  Biso   1.000  O
  O75      1.0000 0.07031  0.67934  0.64343  Biso   1.000  O
  O76      1.0000 0.92969  0.82066  0.64343  Biso   1.000  O
  O77      1.0000 0.92934  0.17969  0.39343  Biso   1.000  O
  O78      1.0000 0.57066  0.82031  0.89343  Biso   1.000  O
  O79      1.0000 0.57066  0.17969  0.10657  Biso   1.000  O
  O80      1.0000 0.92934  0.82031  0.60657  Biso   1.000  O
  O81      1.0000 0.57031  0.82066  0.85657  Biso   1.000  O
  O82      1.0000 0.42969  0.67934  0.85657  Biso   1.000  O
  O83      1.0000 0.57031  0.17934  0.14343  Biso   1.000  O
  O84      1.0000 0.42969  0.32066  0.14343  Biso   1.000  O
  O85      1.0000 0.42934  0.67969  0.89343  Biso   1.000  O
  O86      1.0000 0.07066  0.32031  0.39343  Biso   1.000  O
  O87      1.0000 0.07066  0.67969  0.60657  Biso   1.000  O
  O88      1.0000 0.42934  0.32031  0.10657  Biso   1.000  O
  O89      1.0000 0.92969  0.67934  0.64343  Biso   1.000  O
  O90      1.0000 0.07031  0.82066  0.64343  Biso   1.000  O
  O91      1.0000 0.92969  0.32066  0.35657  Biso   1.000  O
  O92      1.0000 0.07031  0.17934  0.35657  Biso   1.000  O
  O93      1.0000 0.57066  0.32031  0.10657  Biso   1.000  O
  O94      1.0000 0.92934  0.67969  0.60657  Biso   1.000  O
  O95      1.0000 0.92934  0.32031  0.39343  Biso   1.000  O
  O96      1.0000 0.57066  0.67969  0.89343  Biso   1.000  O
  O97      1.0000 0.42969  0.17934  0.14343  Biso   1.000  O
  O98      1.0000 0.57031  0.32066  0.14343  Biso   1.000  O
  O99      1.0000 0.42969  0.82066  0.85657  Biso   1.000  O
  O100     1.0000 0.57031  0.67934  0.85657  Biso   1.000  O
  O101     1.0000 0.07066  0.82031  0.60657  Biso   1.000  O
  O102     1.0000 0.42934  0.17969  0.10657  Biso   1.000  O
  O103     1.0000 0.42934  0.82031  0.89343  Biso   1.000  O
  O104     1.0000 0.07066  0.17969  0.39343  Biso   1.000  O
  O105     1.0000 0.00000  0.55550  0.24190  Biso   1.000  O
  O106     1.0000 0.00000  0.94450  0.24190  Biso   1.000  O
  O107     1.0000 0.00000  0.44450  0.75810  Biso   1.000  O
  O108     1.0000 0.00000  0.05550  0.75810  Biso   1.000  O
  O109     1.0000 0.69450  0.25000  0.50810  Biso   1.000  O
  O110     1.0000 0.80550  0.75000  0.00810  Biso   1.000  O
  O111     1.0000 0.80550  0.25000  0.99190  Biso   1.000  O
  O112     1.0000 0.69450  0.75000  0.49190  Biso   1.000  O
  O113     1.0000 0.50000  0.05550  0.74190  Biso   1.000  O
  O114     1.0000 0.50000  0.44450  0.74190  Biso   1.000  O
  O115     1.0000 0.50000  0.94450  0.25810  Biso   1.000  O
  O116     1.0000 0.50000  0.55550  0.25810  Biso   1.000  O
  O117     1.0000 0.19450  0.75000  0.00810  Biso   1.000  O
  O118     1.0000 0.30550  0.25000  0.50810  Biso   1.000  O
  O119     1.0000 0.30550  0.75000  0.49190  Biso   1.000  O
  O120     1.0000 0.19450  0.25000  0.99190  Biso   1.000  O
  O121     1.0000 0.08540  0.48570  0.23050  Biso   1.000  O
  O122     1.0000 0.91460  0.01430  0.23050  Biso   1.000  O
  O123     1.0000 0.08540  0.51430  0.76950  Biso   1.000  O
  O124     1.0000 0.91460  0.98570  0.76950  Biso   1.000  O
  O125     1.0000 0.76430  0.16460  0.51950  Biso   1.000  O
  O126     1.0000 0.73570  0.83540  0.01950  Biso   1.000  O
  O127     1.0000 0.73570  0.16460  0.98050  Biso   1.000  O
  O128     1.0000 0.76430  0.83540  0.48050  Biso   1.000  O
  O129     1.0000 0.58540  0.98570  0.73050  Biso   1.000  O
  O130     1.0000 0.41460  0.51430  0.73050  Biso   1.000  O
  O131     1.0000 0.58540  0.01430  0.26950  Biso   1.000  O
  O132     1.0000 0.41460  0.48570  0.26950  Biso   1.000  O
  O133     1.0000 0.26430  0.66460  0.01950  Biso   1.000  O
  O134     1.0000 0.23570  0.33540  0.51950  Biso   1.000  O
  O135     1.0000 0.23570  0.66460  0.48050  Biso   1.000  O
  O136     1.0000 0.26430  0.33540  0.98050  Biso   1.000  O
  O137     1.0000 0.91460  0.51430  0.76950  Biso   1.000  O
  O138     1.0000 0.08540  0.98570  0.76950  Biso   1.000  O
  O139     1.0000 0.91460  0.48570  0.23050  Biso   1.000  O
  O140     1.0000 0.08540  0.01430  0.23050  Biso   1.000  O
  O141     1.0000 0.73570  0.33540  0.98050  Biso   1.000  O
  O142     1.0000 0.76430  0.66460  0.48050  Biso   1.000  O
  O143     1.0000 0.76430  0.33540  0.51950  Biso   1.000  O
  O144     1.0000 0.73570  0.66460  0.01950  Biso   1.000  O
  O145     1.0000 0.41460  0.01430  0.26950  Biso   1.000  O
  O146     1.0000 0.58540  0.48570  0.26950  Biso   1.000  O
  O147     1.0000 0.41460  0.98570  0.73050  Biso   1.000  O
  O148     1.0000 0.58540  0.51430  0.73050  Biso   1.000  O
  O149     1.0000 0.23570  0.83540  0.48050  Biso   1.000  O
  O150     1.0000 0.26430  0.16460  0.98050  Biso   1.000  O
  O151     1.0000 0.26430  0.83540  0.01950  Biso   1.000  O
  O152     1.0000 0.23570  0.16460  0.51950  Biso   1.000  O
  N1       1.0000 0.07190  0.75000  0.24497  Biso   1.000  N
  N2       1.0000 0.92810  0.75000  0.24497  Biso   1.000  N
  N3       1.0000 0.07190  0.25000  0.75503  Biso   1.000  N
  N4       1.0000 0.92810  0.25000  0.75503  Biso   1.000  N
  N5       1.0000 0.50000  0.17810  0.50503  Biso   1.000  N
  N6       1.0000 0.00000  0.82190  0.00503  Biso   1.000  N
  N7       1.0000 0.00000  0.17810  0.99497  Biso   1.000  N
  N8       1.0000 0.50000  0.82190  0.49497  Biso   1.000  N
  N9       1.0000 0.57190  0.25000  0.74497  Biso   1.000  N
  N10      1.0000 0.42810  0.25000  0.74497  Biso   1.000  N
  N11      1.0000 0.57190  0.75000  0.25503  Biso   1.000  N
  N12      1.0000 0.42810  0.75000  0.25503  Biso   1.000  N
  N13      1.0000 0.00000  0.67810  0.00503  Biso   1.000  N
  N14      1.0000 0.50000  0.32190  0.50503  Biso   1.000  N
  N15      1.0000 0.50000  0.67810  0.49497  Biso   1.000  N
  N16      1.0000 0.00000  0.32190  0.99497  Biso   1.000  N
  C1       1.0000 0.24020  0.66070  0.28014  Biso   1.000  C
  C2       1.0000 0.75980  0.83930  0.28014  Biso   1.000  C
  C3       1.0000 0.24020  0.33930  0.71986  Biso   1.000  C
  C4       1.0000 0.75980  0.16070  0.71986  Biso   1.000  C
  C5       1.0000 0.58930  0.00980  0.46986  Biso   1.000  C
  C6       1.0000 0.91070  0.99020  0.96986  Biso   1.000  C
  C7       1.0000 0.91070  0.00980  0.03014  Biso   1.000  C
  C8       1.0000 0.58930  0.99020  0.53014  Biso   1.000  C
  C9       1.0000 0.74020  0.16070  0.78014  Biso   1.000  C
  C10      1.0000 0.25980  0.33930  0.78014  Biso   1.000  C
  C11      1.0000 0.74020  0.83930  0.21986  Biso   1.000  C
  C12      1.0000 0.25980  0.66070  0.21986  Biso   1.000  C
  C13      1.0000 0.08930  0.50980  0.96986  Biso   1.000  C
  C14      1.0000 0.41070  0.49020  0.46986  Biso   1.000  C
  C15      1.0000 0.41070  0.50980  0.53014  Biso   1.000  C
  C16      1.0000 0.08930  0.49020  0.03014  Biso   1.000  C
  C17      1.0000 0.75980  0.33930  0.71986  Biso   1.000  C
  C18      1.0000 0.24020  0.16070  0.71986  Biso   1.000  C
  C19      1.0000 0.75980  0.66070  0.28014  Biso   1.000  C
  C20      1.0000 0.24020  0.83930  0.28014  Biso   1.000  C
  C21      1.0000 0.91070  0.49020  0.03014  Biso   1.000  C
  C22      1.0000 0.58930  0.50980  0.53014  Biso   1.000  C
  C23      1.0000 0.58930  0.49020  0.46986  Biso   1.000  C
  C24      1.0000 0.91070  0.50980  0.96986  Biso   1.000  C
  C25      1.0000 0.25980  0.83930  0.21986  Biso   1.000  C
  C26      1.0000 0.74020  0.66070  0.21986  Biso   1.000  C
  C27      1.0000 0.25980  0.16070  0.78014  Biso   1.000  C
  C28      1.0000 0.74020  0.33930  0.78014  Biso   1.000  C
  C29      1.0000 0.41070  0.99020  0.53014  Biso   1.000  C
  C30      1.0000 0.08930  0.00980  0.03014  Biso   1.000  C
  C31      1.0000 0.08930  0.99020  0.96986  Biso   1.000  C
  C32      1.0000 0.41070  0.00980  0.46986  Biso   1.000  C
  C33      1.0000 0.23190  0.61410  0.29902  Biso   1.000  C
  C34      1.0000 0.76810  0.88590  0.29902  Biso   1.000  C
  C35      1.0000 0.23190  0.38590  0.70098  Biso   1.000  C
  C36      1.0000 0.76810  0.11410  0.70098  Biso   1.000  C
  C37      1.0000 0.63590  0.01810  0.45098  Biso   1.000  C
  C38      1.0000 0.86410  0.98190  0.95098  Biso   1.000  C
  C39      1.0000 0.86410  0.01810  0.04902  Biso   1.000  C
  C40      1.0000 0.63590  0.98190  0.54902  Biso   1.000  C
  C41      1.0000 0.73190  0.11410  0.79902  Biso   1.000  C
  C42      1.0000 0.26810  0.38590  0.79902  Biso   1.000  C
  C43      1.0000 0.73190  0.88590  0.20098  Biso   1.000  C
  C44      1.0000 0.26810  0.61410  0.20098  Biso   1.000  C
  C45      1.0000 0.13590  0.51810  0.95098  Biso   1.000  C
  C46      1.0000 0.36410  0.48190  0.45098  Biso   1.000  C
  C47      1.0000 0.36410  0.51810  0.54902  Biso   1.000  C
  C48      1.0000 0.13590  0.48190  0.04902  Biso   1.000  C
  C49      1.0000 0.76810  0.38590  0.70098  Biso   1.000  C
  C50      1.0000 0.23190  0.11410  0.70098  Biso   1.000  C
  C51      1.0000 0.76810  0.61410  0.29902  Biso   1.000  C
  C52      1.0000 0.23190  0.88590  0.29902  Biso   1.000  C
  C53      1.0000 0.86410  0.48190  0.04902  Biso   1.000  C
  C54      1.0000 0.63590  0.51810  0.54902  Biso   1.000  C
  C55      1.0000 0.63590  0.48190  0.45098  Biso   1.000  C
  C56      1.0000 0.86410  0.51810  0.95098  Biso   1.000  C
  C57      1.0000 0.26810  0.88590  0.20098  Biso   1.000  C
  C58      1.0000 0.73190  0.61410  0.20098  Biso   1.000  C
  C59      1.0000 0.26810  0.11410  0.79902  Biso   1.000  C
  C60      1.0000 0.73190  0.38590  0.79902  Biso   1.000  C
  C61      1.0000 0.36410  0.98190  0.54902  Biso   1.000  C
  C62      1.0000 0.13590  0.01810  0.04902  Biso   1.000  C
  C63      1.0000 0.13590  0.98190  0.95098  Biso   1.000  C
  C64      1.0000 0.36410  0.01810  0.45098  Biso   1.000  C
  C65      1.0000 0.16930  0.58920  0.30492  Biso   1.000  C
  C66      1.0000 0.83070  0.91080  0.30492  Biso   1.000  C
  C67      1.0000 0.16930  0.41080  0.69508  Biso   1.000  C
  C68      1.0000 0.83070  0.08920  0.69508  Biso   1.000  C
  C69      1.0000 0.66080  0.08070  0.44508  Biso   1.000  C
  C70      1.0000 0.83920  0.91930  0.94508  Biso   1.000  C
  C71      1.0000 0.83920  0.08070  0.05492  Biso   1.000  C
  C72      1.0000 0.66080  0.91930  0.55492  Biso   1.000  C
  C73      1.0000 0.66930  0.08920  0.80492  Biso   1.000  C
  C74      1.0000 0.33070  0.41080  0.80492  Biso   1.000  C
  C75      1.0000 0.66930  0.91080  0.19508  Biso   1.000  C
  C76      1.0000 0.33070  0.58920  0.19508  Biso   1.000  C
  C77      1.0000 0.16080  0.58070  0.94508  Biso   1.000  C
  C78      1.0000 0.33920  0.41930  0.44508  Biso   1.000  C
  C79      1.0000 0.33920  0.58070  0.55492  Biso   1.000  C
  C80      1.0000 0.16080  0.41930  0.05492  Biso   1.000  C
  C81      1.0000 0.83070  0.41080  0.69508  Biso   1.000  C
  C82      1.0000 0.16930  0.08920  0.69508  Biso   1.000  C
  C83      1.0000 0.83070  0.58920  0.30492  Biso   1.000  C
  C84      1.0000 0.16930  0.91080  0.30492  Biso   1.000  C
  C85      1.0000 0.83920  0.41930  0.05492  Biso   1.000  C
  C86      1.0000 0.66080  0.58070  0.55492  Biso   1.000  C
  C87      1.0000 0.66080  0.41930  0.44508  Biso   1.000  C
  C88      1.0000 0.83920  0.58070  0.94508  Biso   1.000  C
  C89      1.0000 0.33070  0.91080  0.19508  Biso   1.000  C
  C90      1.0000 0.66930  0.58920  0.19508  Biso   1.000  C
  C91      1.0000 0.33070  0.08920  0.80492  Biso   1.000  C
  C92      1.0000 0.66930  0.41080  0.80492  Biso   1.000  C
  C93      1.0000 0.33920  0.91930  0.55492  Biso   1.000  C
  C94      1.0000 0.16080  0.08070  0.05492  Biso   1.000  C
  C95      1.0000 0.16080  0.91930  0.94508  Biso   1.000  C
  C96      1.0000 0.33920  0.08070  0.44508  Biso   1.000  C
  H1       1.0000 0.13170  0.60020  0.29620  Biso   1.000  H
  H2       1.0000 0.86830  0.89980  0.29620  Biso   1.000  H
  H3       1.0000 0.13170  0.39980  0.70380  Biso   1.000  H
  H4       1.0000 0.86830  0.10020  0.70380  Biso   1.000  H
  H5       1.0000 0.64980  0.11830  0.45380  Biso   1.000  H
  H6       1.0000 0.85020  0.88170  0.95380  Biso   1.000  H
  H7       1.0000 0.85020  0.11830  0.04620  Biso   1.000  H
  H8       1.0000 0.64980  0.88170  0.54620  Biso   1.000  H
  H9       1.0000 0.63170  0.10020  0.79620  Biso   1.000  H
  H10      1.0000 0.36830  0.39980  0.79620  Biso   1.000  H
  H11      1.0000 0.63170  0.89980  0.20380  Biso   1.000  H
  H12      1.0000 0.36830  0.60020  0.20380  Biso   1.000  H
  H13      1.0000 0.14980  0.61830  0.95380  Biso   1.000  H
  H14      1.0000 0.35020  0.38170  0.45380  Biso   1.000  H
  H15      1.0000 0.35020  0.61830  0.54620  Biso   1.000  H
  H16      1.0000 0.14980  0.38170  0.04620  Biso   1.000  H
  H17      1.0000 0.86830  0.39980  0.70380  Biso   1.000  H
  H18      1.0000 0.13170  0.10020  0.70380  Biso   1.000  H
  H19      1.0000 0.86830  0.60020  0.29620  Biso   1.000  H
  H20      1.0000 0.13170  0.89980  0.29620  Biso   1.000  H
  H21      1.0000 0.85020  0.38170  0.04620  Biso   1.000  H
  H22      1.0000 0.64980  0.61830  0.54620  Biso   1.000  H
  H23      1.0000 0.64980  0.38170  0.45380  Biso   1.000  H
  H24      1.0000 0.85020  0.61830  0.95380  Biso   1.000  H
  H25      1.0000 0.36830  0.89980  0.20380  Biso   1.000  H
  H26      1.0000 0.63170  0.60020  0.20380  Biso   1.000  H
  H27      1.0000 0.36830  0.10020  0.79620  Biso   1.000  H
  H28      1.0000 0.63170  0.39980  0.79620  Biso   1.000  H
  H29      1.0000 0.35020  0.88170  0.54620  Biso   1.000  H
  H30      1.0000 0.14980  0.11830  0.04620  Biso   1.000  H
  H31      1.0000 0.14980  0.88170  0.95380  Biso   1.000  H
  H32      1.0000 0.35020  0.11830  0.45380  Biso   1.000  H
  C97      1.0000 0.28850  0.59280  0.31159  Biso   1.000  C
  C98      1.0000 0.71150  0.90720  0.31159  Biso   1.000  C
  C99      1.0000 0.28850  0.40720  0.68841  Biso   1.000  C
  C100     1.0000 0.71150  0.09280  0.68841  Biso   1.000  C
  C101     1.0000 0.65720  0.96150  0.43841  Biso   1.000  C
  C102     1.0000 0.84280  0.03850  0.93841  Biso   1.000  C
  C103     1.0000 0.84280  0.96150  0.06159  Biso   1.000  C
  C104     1.0000 0.65720  0.03850  0.56159  Biso   1.000  C
  C105     1.0000 0.78850  0.09280  0.81159  Biso   1.000  C
  C106     1.0000 0.21150  0.40720  0.81159  Biso   1.000  C
  C107     1.0000 0.78850  0.90720  0.18841  Biso   1.000  C
  C108     1.0000 0.21150  0.59280  0.18841  Biso   1.000  C
  C109     1.0000 0.15720  0.46150  0.93841  Biso   1.000  C
  C110     1.0000 0.34280  0.53850  0.43841  Biso   1.000  C
  C111     1.0000 0.34280  0.46150  0.56159  Biso   1.000  C
  C112     1.0000 0.15720  0.53850  0.06159  Biso   1.000  C
  C113     1.0000 0.71150  0.40720  0.68841  Biso   1.000  C
  C114     1.0000 0.28850  0.09280  0.68841  Biso   1.000  C
  C115     1.0000 0.71150  0.59280  0.31159  Biso   1.000  C
  C116     1.0000 0.28850  0.90720  0.31159  Biso   1.000  C
  C117     1.0000 0.84280  0.53850  0.06159  Biso   1.000  C
  C118     1.0000 0.65720  0.46150  0.56159  Biso   1.000  C
  C119     1.0000 0.65720  0.53850  0.43841  Biso   1.000  C
  C120     1.0000 0.84280  0.46150  0.93841  Biso   1.000  C
  C121     1.0000 0.21150  0.90720  0.18841  Biso   1.000  C
  C122     1.0000 0.78850  0.59280  0.18841  Biso   1.000  C
  C123     1.0000 0.21150  0.09280  0.81159  Biso   1.000  C
  C124     1.0000 0.78850  0.40720  0.81159  Biso   1.000  C
  C125     1.0000 0.34280  0.03850  0.56159  Biso   1.000  C
  C126     1.0000 0.15720  0.96150  0.06159  Biso   1.000  C
  C127     1.0000 0.15720  0.03850  0.93841  Biso   1.000  C
  C128     1.0000 0.34280  0.96150  0.43841  Biso   1.000  C
  H33      1.0000 0.33210  0.60680  0.30770  Biso   1.000  H
  H34      1.0000 0.66790  0.89320  0.30770  Biso   1.000  H
  H35      1.0000 0.33210  0.39320  0.69230  Biso   1.000  H
  H36      1.0000 0.66790  0.10680  0.69230  Biso   1.000  H
  H37      1.0000 0.64320  0.91790  0.44230  Biso   1.000  H
  H38      1.0000 0.85680  0.08210  0.94230  Biso   1.000  H
  H39      1.0000 0.85680  0.91790  0.05770  Biso   1.000  H
  H40      1.0000 0.64320  0.08210  0.55770  Biso   1.000  H
  H41      1.0000 0.83210  0.10680  0.80770  Biso   1.000  H
  H42      1.0000 0.16790  0.39320  0.80770  Biso   1.000  H
  H43      1.0000 0.83210  0.89320  0.19230  Biso   1.000  H
  H44      1.0000 0.16790  0.60680  0.19230  Biso   1.000  H
  H45      1.0000 0.14320  0.41790  0.94230  Biso   1.000  H
  H46      1.0000 0.35680  0.58210  0.44230  Biso   1.000  H
  H47      1.0000 0.35680  0.41790  0.55770  Biso   1.000  H
  H48      1.0000 0.14320  0.58210  0.05770  Biso   1.000  H
  H49      1.0000 0.66790  0.39320  0.69230  Biso   1.000  H
  H50      1.0000 0.33210  0.10680  0.69230  Biso   1.000  H
  H51      1.0000 0.66790  0.60680  0.30770  Biso   1.000  H
  H52      1.0000 0.33210  0.89320  0.30770  Biso   1.000  H
  H53      1.0000 0.85680  0.58210  0.05770  Biso   1.000  H
  H54      1.0000 0.64320  0.41790  0.55770  Biso   1.000  H
  H55      1.0000 0.64320  0.58210  0.44230  Biso   1.000  H
  H56      1.0000 0.85680  0.41790  0.94230  Biso   1.000  H
  H57      1.0000 0.16790  0.89320  0.19230  Biso   1.000  H
  H58      1.0000 0.83210  0.60680  0.19230  Biso   1.000  H
  H59      1.0000 0.16790  0.10680  0.80770  Biso   1.000  H
  H60      1.0000 0.83210  0.39320  0.80770  Biso   1.000  H
  H61      1.0000 0.35680  0.08210  0.55770  Biso   1.000  H
  H62      1.0000 0.14320  0.91790  0.05770  Biso   1.000  H
  H63      1.0000 0.14320  0.08210  0.94230  Biso   1.000  H
  H64      1.0000 0.35680  0.91790  0.44230  Biso   1.000  H
  C129     1.0000 0.16020  0.54810  0.32335  Biso   1.000  C
  C130     1.0000 0.83980  0.95190  0.32335  Biso   1.000  C
  C131     1.0000 0.16020  0.45190  0.67665  Biso   1.000  C
  C132     1.0000 0.83980  0.04810  0.67665  Biso   1.000  C
  C133     1.0000 0.70190  0.08980  0.42665  Biso   1.000  C
  C134     1.0000 0.79810  0.91020  0.92665  Biso   1.000  C
  C135     1.0000 0.79810  0.08980  0.07335  Biso   1.000  C
  C136     1.0000 0.70190  0.91020  0.57335  Biso   1.000  C
  C137     1.0000 0.66020  0.04810  0.82335  Biso   1.000  C
  C138     1.0000 0.33980  0.45190  0.82335  Biso   1.000  C
  C139     1.0000 0.66020  0.95190  0.17665  Biso   1.000  C
  C140     1.0000 0.33980  0.54810  0.17665  Biso   1.000  C
  C141     1.0000 0.20190  0.58980  0.92665  Biso   1.000  C
  C142     1.0000 0.29810  0.41020  0.42665  Biso   1.000  C
  C143     1.0000 0.29810  0.58980  0.57335  Biso   1.000  C
  C144     1.0000 0.20190  0.41020  0.07335  Biso   1.000  C
  C145     1.0000 0.83980  0.45190  0.67665  Biso   1.000  C
  C146     1.0000 0.16020  0.04810  0.67665  Biso   1.000  C
  C147     1.0000 0.83980  0.54810  0.32335  Biso   1.000  C
  C148     1.0000 0.16020  0.95190  0.32335  Biso   1.000  C
  C149     1.0000 0.79810  0.41020  0.07335  Biso   1.000  C
  C150     1.0000 0.70190  0.58980  0.57335  Biso   1.000  C
  C151     1.0000 0.70190  0.41020  0.42665  Biso   1.000  C
  C152     1.0000 0.79810  0.58980  0.92665  Biso   1.000  C
  C153     1.0000 0.33980  0.95190  0.17665  Biso   1.000  C
  C154     1.0000 0.66020  0.54810  0.17665  Biso   1.000  C
  C155     1.0000 0.33980  0.04810  0.82335  Biso   1.000  C
  C156     1.0000 0.66020  0.45190  0.82335  Biso   1.000  C
  C157     1.0000 0.29810  0.91020  0.57335  Biso   1.000  C
  C158     1.0000 0.20190  0.08980  0.07335  Biso   1.000  C
  C159     1.0000 0.20190  0.91020  0.92665  Biso   1.000  C
  C160     1.0000 0.29810  0.08980  0.42665  Biso   1.000  C
  H65      1.0000 0.11650  0.53440  0.32730  Biso   1.000  H
  H66      1.0000 0.88350  0.96560  0.32730  Biso   1.000  H
  H67      1.0000 0.11650  0.46560  0.67270  Biso   1.000  H
  H68      1.0000 0.88350  0.03440  0.67270  Biso   1.000  H
  H69      1.0000 0.71560  0.13350  0.42270  Biso   1.000  H
  H70      1.0000 0.78440  0.86650  0.92270  Biso   1.000  H
  H71      1.0000 0.78440  0.13350  0.07730  Biso   1.000  H
  H72      1.0000 0.71560  0.86650  0.57730  Biso   1.000  H
  H73      1.0000 0.61650  0.03440  0.82730  Biso   1.000  H
  H74      1.0000 0.38350  0.46560  0.82730  Biso   1.000  H
  H75      1.0000 0.61650  0.96560  0.17270  Biso   1.000  H
  H76      1.0000 0.38350  0.53440  0.17270  Biso   1.000  H
  H77      1.0000 0.21560  0.63350  0.92270  Biso   1.000  H
  H78      1.0000 0.28440  0.36650  0.42270  Biso   1.000  H
  H79      1.0000 0.28440  0.63350  0.57730  Biso   1.000  H
  H80      1.0000 0.21560  0.36650  0.07730  Biso   1.000  H
  H81      1.0000 0.88350  0.46560  0.67270  Biso   1.000  H
  H82      1.0000 0.11650  0.03440  0.67270  Biso   1.000  H
  H83      1.0000 0.88350  0.53440  0.32730  Biso   1.000  H
  H84      1.0000 0.11650  0.96560  0.32730  Biso   1.000  H
  H85      1.0000 0.78440  0.36650  0.07730  Biso   1.000  H
  H86      1.0000 0.71560  0.63350  0.57730  Biso   1.000  H
  H87      1.0000 0.71560  0.36650  0.42270  Biso   1.000  H
  H88      1.0000 0.78440  0.63350  0.92270  Biso   1.000  H
  H89      1.0000 0.38350  0.96560  0.17270  Biso   1.000  H
  H90      1.0000 0.61650  0.53440  0.17270  Biso   1.000  H
  H91      1.0000 0.38350  0.03440  0.82730  Biso   1.000  H
  H92      1.0000 0.61650  0.46560  0.82730  Biso   1.000  H
  H93      1.0000 0.28440  0.86650  0.57730  Biso   1.000  H
  H94      1.0000 0.21560  0.13350  0.07730  Biso   1.000  H
  H95      1.0000 0.21560  0.86650  0.92270  Biso   1.000  H
  H96      1.0000 0.28440  0.13350  0.42270  Biso   1.000  H
  C161     1.0000 0.27870  0.55050  0.32990  Biso   1.000  C
  C162     1.0000 0.72130  0.94950  0.32990  Biso   1.000  C
  C163     1.0000 0.27870  0.44950  0.67010  Biso   1.000  C
  C164     1.0000 0.72130  0.05050  0.67010  Biso   1.000  C
  C165     1.0000 0.69950  0.97130  0.42010  Biso   1.000  C
  C166     1.0000 0.80050  0.02870  0.92010  Biso   1.000  C
  C167     1.0000 0.80050  0.97130  0.07990  Biso   1.000  C
  C168     1.0000 0.69950  0.02870  0.57990  Biso   1.000  C
  C169     1.0000 0.77870  0.05050  0.82990  Biso   1.000  C
  C170     1.0000 0.22130  0.44950  0.82990  Biso   1.000  C
  C171     1.0000 0.77870  0.94950  0.17010  Biso   1.000  C
  C172     1.0000 0.22130  0.55050  0.17010  Biso   1.000  C
  C173     1.0000 0.19950  0.47130  0.92010  Biso   1.000  C
  C174     1.0000 0.30050  0.52870  0.42010  Biso   1.000  C
  C175     1.0000 0.30050  0.47130  0.57990  Biso   1.000  C
  C176     1.0000 0.19950  0.52870  0.07990  Biso   1.000  C
  C177     1.0000 0.72130  0.44950  0.67010  Biso   1.000  C
  C178     1.0000 0.27870  0.05050  0.67010  Biso   1.000  C
  C179     1.0000 0.72130  0.55050  0.32990  Biso   1.000  C
  C180     1.0000 0.27870  0.94950  0.32990  Biso   1.000  C
  C181     1.0000 0.80050  0.52870  0.07990  Biso   1.000  C
  C182     1.0000 0.69950  0.47130  0.57990  Biso   1.000  C
  C183     1.0000 0.69950  0.52870  0.42010  Biso   1.000  C
  C184     1.0000 0.80050  0.47130  0.92010  Biso   1.000  C
  C185     1.0000 0.22130  0.94950  0.17010  Biso   1.000  C
  C186     1.0000 0.77870  0.55050  0.17010  Biso   1.000  C
  C187     1.0000 0.22130  0.05050  0.82990  Biso   1.000  C
  C188     1.0000 0.77870  0.44950  0.82990  Biso   1.000  C
  C189     1.0000 0.30050  0.02870  0.57990  Biso   1.000  C
  C190     1.0000 0.19950  0.97130  0.07990  Biso   1.000  C
  C191     1.0000 0.19950  0.02870  0.92010  Biso   1.000  C
  C192     1.0000 0.30050  0.97130  0.42010  Biso   1.000  C
  H97      1.0000 0.31620  0.53750  0.33830  Biso   1.000  H
  H98      1.0000 0.68380  0.96250  0.33830  Biso   1.000  H
  H99      1.0000 0.31620  0.46250  0.66170  Biso   1.000  H
  H100     1.0000 0.68380  0.03750  0.66170  Biso   1.000  H
  H101     1.0000 0.71250  0.93380  0.41170  Biso   1.000  H
  H102     1.0000 0.78750  0.06620  0.91170  Biso   1.000  H
  H103     1.0000 0.78750  0.93380  0.08830  Biso   1.000  H
  H104     1.0000 0.71250  0.06620  0.58830  Biso   1.000  H
  H105     1.0000 0.81620  0.03750  0.83830  Biso   1.000  H
  H106     1.0000 0.18380  0.46250  0.83830  Biso   1.000  H
  H107     1.0000 0.81620  0.96250  0.16170  Biso   1.000  H
  H108     1.0000 0.18380  0.53750  0.16170  Biso   1.000  H
  H109     1.0000 0.21250  0.43380  0.91170  Biso   1.000  H
  H110     1.0000 0.28750  0.56620  0.41170  Biso   1.000  H
  H111     1.0000 0.28750  0.43380  0.58830  Biso   1.000  H
  H112     1.0000 0.21250  0.56620  0.08830  Biso   1.000  H
  H113     1.0000 0.68380  0.46250  0.66170  Biso   1.000  H
  H114     1.0000 0.31620  0.03750  0.66170  Biso   1.000  H
  H115     1.0000 0.68380  0.53750  0.33830  Biso   1.000  H
  H116     1.0000 0.31620  0.96250  0.33830  Biso   1.000  H
  H117     1.0000 0.78750  0.56620  0.08830  Biso   1.000  H
  H118     1.0000 0.71250  0.43380  0.58830  Biso   1.000  H
  H119     1.0000 0.71250  0.56620  0.41170  Biso   1.000  H
  H120     1.0000 0.78750  0.43380  0.91170  Biso   1.000  H
  H121     1.0000 0.18380  0.96250  0.16170  Biso   1.000  H
  H122     1.0000 0.81620  0.53750  0.16170  Biso   1.000  H
  H123     1.0000 0.18380  0.03750  0.83830  Biso   1.000  H
  H124     1.0000 0.81620  0.46250  0.83830  Biso   1.000  H
  H125     1.0000 0.28750  0.06620  0.58830  Biso   1.000  H
  H126     1.0000 0.21250  0.93380  0.08830  Biso   1.000  H
  H127     1.0000 0.21250  0.06620  0.91170  Biso   1.000  H
  H128     1.0000 0.28750  0.93380  0.41170  Biso   1.000  H
  C193     1.0000 0.21470  0.52750  0.33583  Biso   1.000  C
  C194     1.0000 0.78530  0.97250  0.33583  Biso   1.000  C
  C195     1.0000 0.21470  0.47250  0.66417  Biso   1.000  C
  C196     1.0000 0.78530  0.02750  0.66417  Biso   1.000  C
  C197     1.0000 0.72250  0.03530  0.41417  Biso   1.000  C
  C198     1.0000 0.77750  0.96470  0.91417  Biso   1.000  C
  C199     1.0000 0.77750  0.03530  0.08583  Biso   1.000  C
  C200     1.0000 0.72250  0.96470  0.58583  Biso   1.000  C
  C201     1.0000 0.71470  0.02750  0.83583  Biso   1.000  C
  C202     1.0000 0.28530  0.47250  0.83583  Biso   1.000  C
  C203     1.0000 0.71470  0.97250  0.16417  Biso   1.000  C
  C204     1.0000 0.28530  0.52750  0.16417  Biso   1.000  C
  C205     1.0000 0.22250  0.53530  0.91417  Biso   1.000  C
  C206     1.0000 0.27750  0.46470  0.41417  Biso   1.000  C
  C207     1.0000 0.27750  0.53530  0.58583  Biso   1.000  C
  C208     1.0000 0.22250  0.46470  0.08583  Biso   1.000  C
  C209     1.0000 0.78530  0.47250  0.66417  Biso   1.000  C
  C210     1.0000 0.21470  0.02750  0.66417  Biso   1.000  C
  C211     1.0000 0.78530  0.52750  0.33583  Biso   1.000  C
  C212     1.0000 0.21470  0.97250  0.33583  Biso   1.000  C
  C213     1.0000 0.77750  0.46470  0.08583  Biso   1.000  C
  C214     1.0000 0.72250  0.53530  0.58583  Biso   1.000  C
  C215     1.0000 0.72250  0.46470  0.41417  Biso   1.000  C
  C216     1.0000 0.77750  0.53530  0.91417  Biso   1.000  C
  C217     1.0000 0.28530  0.97250  0.16417  Biso   1.000  C
  C218     1.0000 0.71470  0.52750  0.16417  Biso   1.000  C
  C219     1.0000 0.28530  0.02750  0.83583  Biso   1.000  C
  C220     1.0000 0.71470  0.47250  0.83583  Biso   1.000  C
  C221     1.0000 0.27750  0.96470  0.58583  Biso   1.000  C
  C222     1.0000 0.22250  0.03530  0.08583  Biso   1.000  C
  C223     1.0000 0.22250  0.96470  0.91417  Biso   1.000  C
  C224     1.0000 0.27750  0.03530  0.41417  Biso   1.000  C
  C225     1.0000 0.20480  0.48380  0.35578  Biso   1.000  C
  C226     1.0000 0.79520  0.01620  0.35578  Biso   1.000  C
  C227     1.0000 0.20480  0.51620  0.64422  Biso   1.000  C
  C228     1.0000 0.79520  0.98380  0.64422  Biso   1.000  C
  C229     1.0000 0.76620  0.04520  0.39422  Biso   1.000  C
  C230     1.0000 0.73380  0.95480  0.89422  Biso   1.000  C
  C231     1.0000 0.73380  0.04520  0.10578  Biso   1.000  C
  C232     1.0000 0.76620  0.95480  0.60578  Biso   1.000  C
  C233     1.0000 0.70480  0.98380  0.85578  Biso   1.000  C
  C234     1.0000 0.29520  0.51620  0.85578  Biso   1.000  C
  C235     1.0000 0.70480  0.01620  0.14422  Biso   1.000  C
  C236     1.0000 0.29520  0.48380  0.14422  Biso   1.000  C
  C237     1.0000 0.26620  0.54520  0.89422  Biso   1.000  C
  C238     1.0000 0.23380  0.45480  0.39422  Biso   1.000  C
  C239     1.0000 0.23380  0.54520  0.60578  Biso   1.000  C
  C240     1.0000 0.26620  0.45480  0.10578  Biso   1.000  C
  C241     1.0000 0.79520  0.51620  0.64422  Biso   1.000  C
  C242     1.0000 0.20480  0.98380  0.64422  Biso   1.000  C
  C243     1.0000 0.79520  0.48380  0.35578  Biso   1.000  C
  C244     1.0000 0.20480  0.01620  0.35578  Biso   1.000  C
  C245     1.0000 0.73380  0.45480  0.10578  Biso   1.000  C
  C246     1.0000 0.76620  0.54520  0.60578  Biso   1.000  C
  C247     1.0000 0.76620  0.45480  0.39422  Biso   1.000  C
  C248     1.0000 0.73380  0.54520  0.89422  Biso   1.000  C
  C249     1.0000 0.29520  0.01620  0.14422  Biso   1.000  C
  C250     1.0000 0.70480  0.48380  0.14422  Biso   1.000  C
  C251     1.0000 0.29520  0.98380  0.85578  Biso   1.000  C
  C252     1.0000 0.70480  0.51620  0.85578  Biso   1.000  C
  C253     1.0000 0.23380  0.95480  0.60578  Biso   1.000  C
  C254     1.0000 0.26620  0.04520  0.10578  Biso   1.000  C
  C255     1.0000 0.26620  0.95480  0.89422  Biso   1.000  C
  C256     1.0000 0.23380  0.04520  0.39422  Biso   1.000  C
  C257     1.0000 0.24430  0.49430  0.37500  Biso   1.000  C
  C258     1.0000 0.75570  0.00570  0.37500  Biso   1.000  C
  C259     1.0000 0.24430  0.50570  0.62500  Biso   1.000  C
  C260     1.0000 0.75570  0.99430  0.62500  Biso   1.000  C
  C261     1.0000 0.74430  0.99430  0.87500  Biso   1.000  C
  C262     1.0000 0.74430  0.00570  0.12500  Biso   1.000  C
  C263     1.0000 0.25570  0.50570  0.87500  Biso   1.000  C
  C264     1.0000 0.25570  0.49430  0.12500  Biso   1.000  C
  C265     1.0000 0.75570  0.50570  0.62500  Biso   1.000  C
  C266     1.0000 0.24430  0.99430  0.62500  Biso   1.000  C
  C267     1.0000 0.75570  0.49430  0.37500  Biso   1.000  C
  C268     1.0000 0.24430  0.00570  0.37500  Biso   1.000  C
  C269     1.0000 0.74430  0.49430  0.12500  Biso   1.000  C
  C270     1.0000 0.74430  0.50570  0.87500  Biso   1.000  C
  C271     1.0000 0.25570  0.00570  0.12500  Biso   1.000  C
  C272     1.0000 0.25570  0.99430  0.87500  Biso   1.000  C
  H129     1.0000 0.27790  0.52790  0.37500  Biso   1.000  H
  H130     1.0000 0.72210  0.97210  0.37500  Biso   1.000  H
  H131     1.0000 0.27790  0.47210  0.62500  Biso   1.000  H
  H132     1.0000 0.72210  0.02790  0.62500  Biso   1.000  H
  H133     1.0000 0.77790  0.02790  0.87500  Biso   1.000  H
  H134     1.0000 0.77790  0.97210  0.12500  Biso   1.000  H
  H135     1.0000 0.22210  0.47210  0.87500  Biso   1.000  H
  H136     1.0000 0.22210  0.52790  0.12500  Biso   1.000  H
  H137     1.0000 0.72210  0.47210  0.62500  Biso   1.000  H
  H138     1.0000 0.27790  0.02790  0.62500  Biso   1.000  H
  H139     1.0000 0.72210  0.52790  0.37500  Biso   1.000  H
  H140     1.0000 0.27790  0.97210  0.37500  Biso   1.000  H
  H141     1.0000 0.77790  0.52790  0.12500  Biso   1.000  H
  H142     1.0000 0.77790  0.47210  0.87500  Biso   1.000  H
  H143     1.0000 0.22210  0.97210  0.12500  Biso   1.000  H
  H144     1.0000 0.22210  0.02790  0.87500  Biso   1.000  H
  C273     1.0000 0.15650  0.43260  0.35626  Biso   1.000  C
  C274     1.0000 0.84350  0.06740  0.35626  Biso   1.000  C
  C275     1.0000 0.15650  0.56740  0.64374  Biso   1.000  C
  C276     1.0000 0.84350  0.93260  0.64374  Biso   1.000  C
  C277     1.0000 0.81740  0.09350  0.39374  Biso   1.000  C
  C278     1.0000 0.68260  0.90650  0.89374  Biso   1.000  C
  C279     1.0000 0.68260  0.09350  0.10626  Biso   1.000  C
  C280     1.0000 0.81740  0.90650  0.60626  Biso   1.000  C
  C281     1.0000 0.65650  0.93260  0.85626  Biso   1.000  C
  C282     1.0000 0.34350  0.56740  0.85626  Biso   1.000  C
  C283     1.0000 0.65650  0.06740  0.14374  Biso   1.000  C
  C284     1.0000 0.34350  0.43260  0.14374  Biso   1.000  C
  C285     1.0000 0.31740  0.59350  0.89374  Biso   1.000  C
  C286     1.0000 0.18260  0.40650  0.39374  Biso   1.000  C
  C287     1.0000 0.18260  0.59350  0.60626  Biso   1.000  C
  C288     1.0000 0.31740  0.40650  0.10626  Biso   1.000  C
  C289     1.0000 0.84350  0.56740  0.64374  Biso   1.000  C
  C290     1.0000 0.15650  0.93260  0.64374  Biso   1.000  C
  C291     1.0000 0.84350  0.43260  0.35626  Biso   1.000  C
  C292     1.0000 0.15650  0.06740  0.35626  Biso   1.000  C
  C293     1.0000 0.68260  0.40650  0.10626  Biso   1.000  C
  C294     1.0000 0.81740  0.59350  0.60626  Biso   1.000  C
  C295     1.0000 0.81740  0.40650  0.39374  Biso   1.000  C
  C296     1.0000 0.68260  0.59350  0.89374  Biso   1.000  C
  C297     1.0000 0.34350  0.06740  0.14374  Biso   1.000  C
  C298     1.0000 0.65650  0.43260  0.14374  Biso   1.000  C
  C299     1.0000 0.34350  0.93260  0.85626  Biso   1.000  C
  C300     1.0000 0.65650  0.56740  0.85626  Biso   1.000  C
  C301     1.0000 0.18260  0.90650  0.60626  Biso   1.000  C
  C302     1.0000 0.31740  0.09350  0.10626  Biso   1.000  C
  C303     1.0000 0.31740  0.90650  0.89374  Biso   1.000  C
  C304     1.0000 0.18260  0.09350  0.39374  Biso   1.000  C
  H145     1.0000 0.13140  0.42360  0.34350  Biso   1.000  H
  H146     1.0000 0.86860  0.07640  0.34350  Biso   1.000  H
  H147     1.0000 0.13140  0.57640  0.65650  Biso   1.000  H
  H148     1.0000 0.86860  0.92360  0.65650  Biso   1.000  H
  H149     1.0000 0.82640  0.11860  0.40650  Biso   1.000  H
  H150     1.0000 0.67360  0.88140  0.90650  Biso   1.000  H
  H151     1.0000 0.67360  0.11860  0.09350  Biso   1.000  H
  H152     1.0000 0.82640  0.88140  0.59350  Biso   1.000  H
  H153     1.0000 0.63140  0.92360  0.84350  Biso   1.000  H
  H154     1.0000 0.36860  0.57640  0.84350  Biso   1.000  H
  H155     1.0000 0.63140  0.07640  0.15650  Biso   1.000  H
  H156     1.0000 0.36860  0.42360  0.15650  Biso   1.000  H
  H157     1.0000 0.32640  0.61860  0.90650  Biso   1.000  H
  H158     1.0000 0.17360  0.38140  0.40650  Biso   1.000  H
  H159     1.0000 0.17360  0.61860  0.59350  Biso   1.000  H
  H160     1.0000 0.32640  0.38140  0.09350  Biso   1.000  H
  H161     1.0000 0.86860  0.57640  0.65650  Biso   1.000  H
  H162     1.0000 0.13140  0.92360  0.65650  Biso   1.000  H
  H163     1.0000 0.86860  0.42360  0.34350  Biso   1.000  H
  H164     1.0000 0.13140  0.07640  0.34350  Biso   1.000  H
  H165     1.0000 0.67360  0.38140  0.09350  Biso   1.000  H
  H166     1.0000 0.82640  0.61860  0.59350  Biso   1.000  H
  H167     1.0000 0.82640  0.38140  0.40650  Biso   1.000  H
  H168     1.0000 0.67360  0.61860  0.90650  Biso   1.000  H
  H169     1.0000 0.36860  0.07640  0.15650  Biso   1.000  H
  H170     1.0000 0.63140  0.42360  0.15650  Biso   1.000  H
  H171     1.0000 0.36860  0.92360  0.84350  Biso   1.000  H
  H172     1.0000 0.63140  0.57640  0.84350  Biso   1.000  H
  H173     1.0000 0.17360  0.88140  0.59350  Biso   1.000  H
  H174     1.0000 0.32640  0.11860  0.09350  Biso   1.000  H
  H175     1.0000 0.32640  0.88140  0.90650  Biso   1.000  H
  H176     1.0000 0.17360  0.11860  0.40650  Biso   1.000  H
  C305     1.0000 0.14440  0.39440  0.37500  Biso   1.000  C
  C306     1.0000 0.85560  0.10560  0.37500  Biso   1.000  C
  C307     1.0000 0.14440  0.60560  0.62500  Biso   1.000  C
  C308     1.0000 0.85560  0.89440  0.62500  Biso   1.000  C
  C309     1.0000 0.64440  0.89440  0.87500  Biso   1.000  C
  C310     1.0000 0.64440  0.10560  0.12500  Biso   1.000  C
  C311     1.0000 0.35560  0.60560  0.87500  Biso   1.000  C
  C312     1.0000 0.35560  0.39440  0.12500  Biso   1.000  C
  C313     1.0000 0.85560  0.60560  0.62500  Biso   1.000  C
  C314     1.0000 0.14440  0.89440  0.62500  Biso   1.000  C
  C315     1.0000 0.85560  0.39440  0.37500  Biso   1.000  C
  C316     1.0000 0.14440  0.10560  0.37500  Biso   1.000  C
  C317     1.0000 0.64440  0.39440  0.12500  Biso   1.000  C
  C318     1.0000 0.64440  0.60560  0.87500  Biso   1.000  C
  C319     1.0000 0.35560  0.10560  0.12500  Biso   1.000  C
  C320     1.0000 0.35560  0.89440  0.87500  Biso   1.000  C
  C321     1.0000 0.09090  0.34090  0.37500  Biso   1.000  C
  C322     1.0000 0.90910  0.15910  0.37500  Biso   1.000  C
  C323     1.0000 0.09090  0.65910  0.62500  Biso   1.000  C
  C324     1.0000 0.90910  0.84090  0.62500  Biso   1.000  C
  C325     1.0000 0.59090  0.84090  0.87500  Biso   1.000  C
  C326     1.0000 0.59090  0.15910  0.12500  Biso   1.000  C
  C327     1.0000 0.40910  0.65910  0.87500  Biso   1.000  C
  C328     1.0000 0.40910  0.34090  0.12500  Biso   1.000  C
  C329     1.0000 0.90910  0.65910  0.62500  Biso   1.000  C
  C330     1.0000 0.09090  0.84090  0.62500  Biso   1.000  C
  C331     1.0000 0.90910  0.34090  0.37500  Biso   1.000  C
  C332     1.0000 0.09090  0.15910  0.37500  Biso   1.000  C
  C333     1.0000 0.59090  0.34090  0.12500  Biso   1.000  C
  C334     1.0000 0.59090  0.65910  0.87500  Biso   1.000  C
  C335     1.0000 0.40910  0.15910  0.12500  Biso   1.000  C
  C336     1.0000 0.40910  0.84090  0.87500  Biso   1.000  C
  C337     1.0000 0.04090  0.69560  0.24450  Biso   1.000  C
  C338     1.0000 0.95910  0.80440  0.24450  Biso   1.000  C
  C339     1.0000 0.04090  0.30440  0.75550  Biso   1.000  C
  C340     1.0000 0.95910  0.19560  0.75550  Biso   1.000  C
  C341     1.0000 0.55440  0.20910  0.50550  Biso   1.000  C
  C342     1.0000 0.94560  0.79090  0.00550  Biso   1.000  C
  C343     1.0000 0.94560  0.20910  0.99450  Biso   1.000  C
  C344     1.0000 0.55440  0.79090  0.49450  Biso   1.000  C
  C345     1.0000 0.54090  0.19560  0.74450  Biso   1.000  C
  C346     1.0000 0.45910  0.30440  0.74450  Biso   1.000  C
  C347     1.0000 0.54090  0.80440  0.25550  Biso   1.000  C
  C348     1.0000 0.45910  0.69560  0.25550  Biso   1.000  C
  C349     1.0000 0.05440  0.70910  0.00550  Biso   1.000  C
  C350     1.0000 0.44560  0.29090  0.50550  Biso   1.000  C
  C351     1.0000 0.44560  0.70910  0.49450  Biso   1.000  C
  C352     1.0000 0.05440  0.29090  0.99450  Biso   1.000  C
  C353     1.0000 0.95910  0.30440  0.75550  Biso   1.000  C
  C354     1.0000 0.04090  0.19560  0.75550  Biso   1.000  C
  C355     1.0000 0.95910  0.69560  0.24450  Biso   1.000  C
  C356     1.0000 0.04090  0.80440  0.24450  Biso   1.000  C
  C357     1.0000 0.94560  0.29090  0.99450  Biso   1.000  C
  C358     1.0000 0.55440  0.70910  0.49450  Biso   1.000  C
  C359     1.0000 0.55440  0.29090  0.50550  Biso   1.000  C
  C360     1.0000 0.94560  0.70910  0.00550  Biso   1.000  C
  C361     1.0000 0.45910  0.80440  0.25550  Biso   1.000  C
  C362     1.0000 0.54090  0.69560  0.25550  Biso   1.000  C
  C363     1.0000 0.45910  0.19560  0.74450  Biso   1.000  C
  C364     1.0000 0.54090  0.30440  0.74450  Biso   1.000  C
  C365     1.0000 0.44560  0.79090  0.49450  Biso   1.000  C
  C366     1.0000 0.05440  0.20910  0.99450  Biso   1.000  C
  C367     1.0000 0.05440  0.79090  0.00550  Biso   1.000  C
  C368     1.0000 0.44560  0.20910  0.50550  Biso   1.000  C
  C369     1.0000 0.02030  0.62440  0.24322  Biso   1.000  C
  C370     1.0000 0.97970  0.87560  0.24322  Biso   1.000  C
  C371     1.0000 0.02030  0.37560  0.75678  Biso   1.000  C
  C372     1.0000 0.97970  0.12440  0.75678  Biso   1.000  C
  C373     1.0000 0.62560  0.22970  0.50678  Biso   1.000  C
  C374     1.0000 0.87440  0.77030  0.00678  Biso   1.000  C
  C375     1.0000 0.87440  0.22970  0.99322  Biso   1.000  C
  C376     1.0000 0.62560  0.77030  0.49322  Biso   1.000  C
  C377     1.0000 0.52030  0.12440  0.74322  Biso   1.000  C
  C378     1.0000 0.47970  0.37560  0.74322  Biso   1.000  C
  C379     1.0000 0.52030  0.87560  0.25678  Biso   1.000  C
  C380     1.0000 0.47970  0.62440  0.25678  Biso   1.000  C
  C381     1.0000 0.12560  0.72970  0.00678  Biso   1.000  C
  C382     1.0000 0.37440  0.27030  0.50678  Biso   1.000  C
  C383     1.0000 0.37440  0.72970  0.49322  Biso   1.000  C
  C384     1.0000 0.12560  0.27030  0.99322  Biso   1.000  C
  C385     1.0000 0.97970  0.37560  0.75678  Biso   1.000  C
  C386     1.0000 0.02030  0.12440  0.75678  Biso   1.000  C
  C387     1.0000 0.97970  0.62440  0.24322  Biso   1.000  C
  C388     1.0000 0.02030  0.87560  0.24322  Biso   1.000  C
  C389     1.0000 0.87440  0.27030  0.99322  Biso   1.000  C
  C390     1.0000 0.62560  0.72970  0.49322  Biso   1.000  C
  C391     1.0000 0.62560  0.27030  0.50678  Biso   1.000  C
  C392     1.0000 0.87440  0.72970  0.00678  Biso   1.000  C
  C393     1.0000 0.47970  0.87560  0.25678  Biso   1.000  C
  C394     1.0000 0.52030  0.62440  0.25678  Biso   1.000  C
  C395     1.0000 0.47970  0.12440  0.74322  Biso   1.000  C
  C396     1.0000 0.52030  0.37560  0.74322  Biso   1.000  C
  C397     1.0000 0.37440  0.77030  0.49322  Biso   1.000  C
  C398     1.0000 0.12560  0.22970  0.99322  Biso   1.000  C
  C399     1.0000 0.12560  0.77030  0.00678  Biso   1.000  C
  C400     1.0000 0.37440  0.22970  0.50678  Biso   1.000  C
  C401     1.0000 0.06370  0.52250  0.24670  Biso   1.000  C
  C402     1.0000 0.93630  0.97750  0.24670  Biso   1.000  C
  C403     1.0000 0.06370  0.47750  0.75330  Biso   1.000  C
  C404     1.0000 0.93630  0.02250  0.75330  Biso   1.000  C
  C405     1.0000 0.72750  0.18630  0.50330  Biso   1.000  C
  C406     1.0000 0.77250  0.81370  0.00330  Biso   1.000  C
  C407     1.0000 0.77250  0.18630  0.99670  Biso   1.000  C
  C408     1.0000 0.72750  0.81370  0.49670  Biso   1.000  C
  C409     1.0000 0.56370  0.02250  0.74670  Biso   1.000  C
  C410     1.0000 0.43630  0.47750  0.74670  Biso   1.000  C
  C411     1.0000 0.56370  0.97750  0.25330  Biso   1.000  C
  C412     1.0000 0.43630  0.52250  0.25330  Biso   1.000  C
  C413     1.0000 0.22750  0.68630  0.00330  Biso   1.000  C
  C414     1.0000 0.27250  0.31370  0.50330  Biso   1.000  C
  C415     1.0000 0.27250  0.68630  0.49670  Biso   1.000  C
  C416     1.0000 0.22750  0.31370  0.99670  Biso   1.000  C
  C417     1.0000 0.93630  0.47750  0.75330  Biso   1.000  C
  C418     1.0000 0.06370  0.02250  0.75330  Biso   1.000  C
  C419     1.0000 0.93630  0.52250  0.24670  Biso   1.000  C
  C420     1.0000 0.06370  0.97750  0.24670  Biso   1.000  C
  C421     1.0000 0.77250  0.31370  0.99670  Biso   1.000  C
  C422     1.0000 0.72750  0.68630  0.49670  Biso   1.000  C
  C423     1.0000 0.72750  0.31370  0.50330  Biso   1.000  C
  C424     1.0000 0.77250  0.68630  0.00330  Biso   1.000  C
  C425     1.0000 0.43630  0.97750  0.25330  Biso   1.000  C
  C426     1.0000 0.56370  0.52250  0.25330  Biso   1.000  C
  C427     1.0000 0.43630  0.02250  0.74670  Biso   1.000  C
  C428     1.0000 0.56370  0.47750  0.74670  Biso   1.000  C
  C429     1.0000 0.27250  0.81370  0.49670  Biso   1.000  C
  C430     1.0000 0.22750  0.18630  0.99670  Biso   1.000  C
  C431     1.0000 0.22750  0.81370  0.00330  Biso   1.000  C
  C432     1.0000 0.27250  0.18630  0.50330  Biso   1.000  C
  C433     1.0000 0.05430  0.48910  0.26880  Biso   1.000  C
  C434     1.0000 0.94570  0.01090  0.26880  Biso   1.000  C
  C435     1.0000 0.05430  0.51090  0.73120  Biso   1.000  C
  C436     1.0000 0.94570  0.98910  0.73120  Biso   1.000  C
  C437     1.0000 0.76090  0.19570  0.48120  Biso   1.000  C
  C438     1.0000 0.73910  0.80430  0.98120  Biso   1.000  C
  C439     1.0000 0.73910  0.19570  0.01880  Biso   1.000  C
  C440     1.0000 0.76090  0.80430  0.51880  Biso   1.000  C
  C441     1.0000 0.55430  0.98910  0.76880  Biso   1.000  C
  C442     1.0000 0.44570  0.51090  0.76880  Biso   1.000  C
  C443     1.0000 0.55430  0.01090  0.23120  Biso   1.000  C
  C444     1.0000 0.44570  0.48910  0.23120  Biso   1.000  C
  C445     1.0000 0.26090  0.69570  0.98120  Biso   1.000  C
  C446     1.0000 0.23910  0.30430  0.48120  Biso   1.000  C
  C447     1.0000 0.23910  0.69570  0.51880  Biso   1.000  C
  C448     1.0000 0.26090  0.30430  0.01880  Biso   1.000  C
  C449     1.0000 0.94570  0.51090  0.73120  Biso   1.000  C
  C450     1.0000 0.05430  0.98910  0.73120  Biso   1.000  C
  C451     1.0000 0.94570  0.48910  0.26880  Biso   1.000  C
  C452     1.0000 0.05430  0.01090  0.26880  Biso   1.000  C
  C453     1.0000 0.73910  0.30430  0.01880  Biso   1.000  C
  C454     1.0000 0.76090  0.69570  0.51880  Biso   1.000  C
  C455     1.0000 0.76090  0.30430  0.48120  Biso   1.000  C
  C456     1.0000 0.73910  0.69570  0.98120  Biso   1.000  C
  C457     1.0000 0.44570  0.01090  0.23120  Biso   1.000  C
  C458     1.0000 0.55430  0.48910  0.23120  Biso   1.000  C
  C459     1.0000 0.44570  0.98910  0.76880  Biso   1.000  C
  C460     1.0000 0.55430  0.51090  0.76880  Biso   1.000  C
  C461     1.0000 0.23910  0.80430  0.51880  Biso   1.000  C
  C462     1.0000 0.26090  0.19570  0.01880  Biso   1.000  C
  C463     1.0000 0.26090  0.80430  0.98120  Biso   1.000  C
  C464     1.0000 0.23910  0.19570  0.48120  Biso   1.000  C
  H177     1.0000 0.02650  0.27650  0.31010  Biso   1.000  H
  H178     1.0000 0.97350  0.22350  0.31010  Biso   1.000  H
  H179     1.0000 0.02650  0.72350  0.68990  Biso   1.000  H
  H180     1.0000 0.97350  0.77650  0.68990  Biso   1.000  H
  H181     1.0000 0.97350  0.22350  0.43990  Biso   1.000  H
  H182     1.0000 0.52650  0.77650  0.93990  Biso   1.000  H
  H183     1.0000 0.52650  0.22350  0.06010  Biso   1.000  H
  H184     1.0000 0.97350  0.77650  0.56010  Biso   1.000  H
  H185     1.0000 0.52650  0.77650  0.81010  Biso   1.000  H
  H186     1.0000 0.47350  0.72350  0.81010  Biso   1.000  H
  H187     1.0000 0.52650  0.22350  0.18990  Biso   1.000  H
  H188     1.0000 0.47350  0.27650  0.18990  Biso   1.000  H
  H189     1.0000 0.47350  0.72350  0.93990  Biso   1.000  H
  H190     1.0000 0.02650  0.27650  0.43990  Biso   1.000  H
  H191     1.0000 0.02650  0.72350  0.56010  Biso   1.000  H
  H192     1.0000 0.47350  0.27650  0.06010  Biso   1.000  H
  H193     1.0000 0.97350  0.72350  0.68990  Biso   1.000  H
  H194     1.0000 0.02650  0.77650  0.68990  Biso   1.000  H
  H195     1.0000 0.97350  0.27650  0.31010  Biso   1.000  H
  H196     1.0000 0.02650  0.22350  0.31010  Biso   1.000  H
  H197     1.0000 0.52650  0.27650  0.06010  Biso   1.000  H
  H198     1.0000 0.97350  0.72350  0.56010  Biso   1.000  H
  H199     1.0000 0.97350  0.27650  0.43990  Biso   1.000  H
  H200     1.0000 0.52650  0.72350  0.93990  Biso   1.000  H
  H201     1.0000 0.47350  0.22350  0.18990  Biso   1.000  H
  H202     1.0000 0.52650  0.27650  0.18990  Biso   1.000  H
  H203     1.0000 0.47350  0.77650  0.81010  Biso   1.000  H
  H204     1.0000 0.52650  0.72350  0.81010  Biso   1.000  H
  H205     1.0000 0.02650  0.77650  0.56010  Biso   1.000  H
  H206     1.0000 0.47350  0.22350  0.06010  Biso   1.000  H
  H207     1.0000 0.47350  0.77650  0.93990  Biso   1.000  H
  H208     1.0000 0.02650  0.22350  0.43990  Biso   1.000  H
  O153     1.0000 0.00000  0.75000  0.30560  Biso   1.000  O
  O154     1.0000 0.00000  0.25000  0.69440  Biso   1.000  O
  O155     1.0000 0.50000  0.25000  0.44440  Biso   1.000  O
  O156     1.0000 0.00000  0.75000  0.94440  Biso   1.000  O
  O157     1.0000 0.00000  0.25000  0.05560  Biso   1.000  O
  O158     1.0000 0.50000  0.75000  0.55560  Biso   1.000  O
  O159     1.0000 0.50000  0.25000  0.80560  Biso   1.000  O
  O160     1.0000 0.50000  0.75000  0.19440  Biso   1.000  O
  C465     1.0000 0.93430  0.75000  0.33800  Biso   1.000  C
  C466     1.0000 0.06570  0.75000  0.33800  Biso   1.000  C
  C467     1.0000 0.93430  0.25000  0.66200  Biso   1.000  C
  C468     1.0000 0.06570  0.25000  0.66200  Biso   1.000  C
  C469     1.0000 0.50000  0.31570  0.41200  Biso   1.000  C
  C470     1.0000 0.00000  0.68430  0.91200  Biso   1.000  C
  C471     1.0000 0.00000  0.31570  0.08800  Biso   1.000  C
  C472     1.0000 0.50000  0.68430  0.58800  Biso   1.000  C
  C473     1.0000 0.43430  0.25000  0.83800  Biso   1.000  C
  C474     1.0000 0.56570  0.25000  0.83800  Biso   1.000  C
  C475     1.0000 0.43430  0.75000  0.16200  Biso   1.000  C
  C476     1.0000 0.56570  0.75000  0.16200  Biso   1.000  C
  C477     1.0000 0.00000  0.81570  0.91200  Biso   1.000  C
  C478     1.0000 0.50000  0.18430  0.41200  Biso   1.000  C
  C479     1.0000 0.50000  0.81570  0.58800  Biso   1.000  C
  C480     1.0000 0.00000  0.18430  0.08800  Biso   1.000  C
  H209     1.0000 0.94000  0.75000  0.35380  Biso   1.000  H
  H210     1.0000 0.06000  0.75000  0.35380  Biso   1.000  H
  H211     1.0000 0.94000  0.25000  0.64620  Biso   1.000  H
  H212     1.0000 0.06000  0.25000  0.64620  Biso   1.000  H
  H213     1.0000 0.50000  0.31000  0.39620  Biso   1.000  H
  H214     1.0000 0.00000  0.69000  0.89620  Biso   1.000  H
  H215     1.0000 0.00000  0.31000  0.10380  Biso   1.000  H
  H216     1.0000 0.50000  0.69000  0.60380  Biso   1.000  H
  H217     1.0000 0.44000  0.25000  0.85380  Biso   1.000  H
  H218     1.0000 0.56000  0.25000  0.85380  Biso   1.000  H
  H219     1.0000 0.44000  0.75000  0.14620  Biso   1.000  H
  H220     1.0000 0.56000  0.75000  0.14620  Biso   1.000  H
  H221     1.0000 0.00000  0.81000  0.89620  Biso   1.000  H
  H222     1.0000 0.50000  0.19000  0.39620  Biso   1.000  H
  H223     1.0000 0.50000  0.81000  0.60380  Biso   1.000  H
  H224     1.0000 0.00000  0.19000  0.10380  Biso   1.000  H
  H225     1.0000 0.90950  0.78990  0.33350  Biso   1.000  H
  H226     1.0000 0.09050  0.71010  0.33350  Biso   1.000  H
  H227     1.0000 0.90950  0.21010  0.66650  Biso   1.000  H
  H228     1.0000 0.09050  0.28990  0.66650  Biso   1.000  H
  H229     1.0000 0.46010  0.34050  0.41650  Biso   1.000  H
  H230     1.0000 0.03990  0.65950  0.91650  Biso   1.000  H
  H231     1.0000 0.03990  0.34050  0.08350  Biso   1.000  H
  H232     1.0000 0.46010  0.65950  0.58350  Biso   1.000  H
  H233     1.0000 0.40950  0.28990  0.83350  Biso   1.000  H
  H234     1.0000 0.59050  0.21010  0.83350  Biso   1.000  H
  H235     1.0000 0.40950  0.71010  0.16650  Biso   1.000  H
  H236     1.0000 0.59050  0.78990  0.16650  Biso   1.000  H
  H237     1.0000 0.96010  0.84050  0.91650  Biso   1.000  H
  H238     1.0000 0.53990  0.15950  0.41650  Biso   1.000  H
  H239     1.0000 0.53990  0.84050  0.58350  Biso   1.000  H
  H240     1.0000 0.96010  0.15950  0.08350  Biso   1.000  H
  H241     1.0000 0.09050  0.21010  0.66650  Biso   1.000  H
  H242     1.0000 0.90950  0.28990  0.66650  Biso   1.000  H
  H243     1.0000 0.09050  0.78990  0.33350  Biso   1.000  H
  H244     1.0000 0.90950  0.71010  0.33350  Biso   1.000  H
  H245     1.0000 0.03990  0.15950  0.08350  Biso   1.000  H
  H246     1.0000 0.46010  0.84050  0.58350  Biso   1.000  H
  H247     1.0000 0.46010  0.15950  0.41650  Biso   1.000  H
  H248     1.0000 0.03990  0.84050  0.91650  Biso   1.000  H
  H249     1.0000 0.59050  0.71010  0.16650  Biso   1.000  H
  H250     1.0000 0.40950  0.78990  0.16650  Biso   1.000  H
  H251     1.0000 0.59050  0.28990  0.83350  Biso   1.000  H
  H252     1.0000 0.40950  0.21010  0.83350  Biso   1.000  H
  H253     1.0000 0.53990  0.65950  0.58350  Biso   1.000  H
  H254     1.0000 0.96010  0.34050  0.08350  Biso   1.000  H
  H255     1.0000 0.96010  0.65950  0.91650  Biso   1.000  H
  H256     1.0000 0.53990  0.34050  0.41650  Biso   1.000  H
  C481     1.0000 0.00000  0.75000  0.32760  Biso   1.000  C
  C482     1.0000 0.00000  0.25000  0.67240  Biso   1.000  C
  C483     1.0000 0.50000  0.25000  0.42240  Biso   1.000  C
  C484     1.0000 0.00000  0.75000  0.92240  Biso   1.000  C
  C485     1.0000 0.00000  0.25000  0.07760  Biso   1.000  C
  C486     1.0000 0.50000  0.75000  0.57760  Biso   1.000  C
  C487     1.0000 0.50000  0.25000  0.82760  Biso   1.000  C
  C488     1.0000 0.50000  0.75000  0.17240  Biso   1.000  C
  O161     1.0000 0.05530  0.75000  0.33880  Biso   1.000  O
  O162     1.0000 0.94470  0.75000  0.33880  Biso   1.000  O
  O163     1.0000 0.05530  0.25000  0.66120  Biso   1.000  O
  O164     1.0000 0.94470  0.25000  0.66120  Biso   1.000  O
  O165     1.0000 0.50000  0.19470  0.41120  Biso   1.000  O
  O166     1.0000 0.00000  0.80530  0.91120  Biso   1.000  O
  O167     1.0000 0.00000  0.19470  0.08880  Biso   1.000  O
  O168     1.0000 0.50000  0.80530  0.58880  Biso   1.000  O
  O169     1.0000 0.55530  0.25000  0.83880  Biso   1.000  O
  O170     1.0000 0.44470  0.25000  0.83880  Biso   1.000  O
  O171     1.0000 0.55530  0.75000  0.16120  Biso   1.000  O
  O172     1.0000 0.44470  0.75000  0.16120  Biso   1.000  O
  O173     1.0000 0.00000  0.69470  0.91120  Biso   1.000  O
  O174     1.0000 0.50000  0.30530  0.41120  Biso   1.000  O
  O175     1.0000 0.50000  0.69470  0.58880  Biso   1.000  O
  O176     1.0000 0.00000  0.30530  0.08880  Biso   1.000  O
  H257     1.0000 0.02120  0.77970  0.13410  Biso   1.000  H
  H258     1.0000 0.97880  0.72030  0.13410  Biso   1.000  H
  H259     1.0000 0.02120  0.22030  0.86590  Biso   1.000  H
  H260     1.0000 0.97880  0.27970  0.86590  Biso   1.000  H
  H261     1.0000 0.47030  0.22880  0.61590  Biso   1.000  H
  H262     1.0000 0.02970  0.77120  0.11590  Biso   1.000  H
  H263     1.0000 0.02970  0.22880  0.88410  Biso   1.000  H
  H264     1.0000 0.47030  0.77120  0.38410  Biso   1.000  H
  H265     1.0000 0.52120  0.27970  0.63410  Biso   1.000  H
  H266     1.0000 0.47880  0.22030  0.63410  Biso   1.000  H
  H267     1.0000 0.52120  0.72030  0.36590  Biso   1.000  H
  H268     1.0000 0.47880  0.77970  0.36590  Biso   1.000  H
  H269     1.0000 0.97030  0.72880  0.11590  Biso   1.000  H
  H270     1.0000 0.52970  0.27120  0.61590  Biso   1.000  H
  H271     1.0000 0.52970  0.72880  0.38410  Biso   1.000  H
  H272     1.0000 0.97030  0.27120  0.88410  Biso   1.000  H
  H273     1.0000 0.97880  0.22030  0.86590  Biso   1.000  H
  H274     1.0000 0.02120  0.27970  0.86590  Biso   1.000  H
  H275     1.0000 0.97880  0.77970  0.13410  Biso   1.000  H
  H276     1.0000 0.02120  0.72030  0.13410  Biso   1.000  H
  H277     1.0000 0.02970  0.27120  0.88410  Biso   1.000  H
  H278     1.0000 0.47030  0.72880  0.38410  Biso   1.000  H
  H279     1.0000 0.47030  0.27120  0.61590  Biso   1.000  H
  H280     1.0000 0.02970  0.72880  0.11590  Biso   1.000  H
  H281     1.0000 0.47880  0.72030  0.36590  Biso   1.000  H
  H282     1.0000 0.52120  0.77970  0.36590  Biso   1.000  H
  H283     1.0000 0.47880  0.27970  0.63410  Biso   1.000  H
  H284     1.0000 0.52120  0.22030  0.63410  Biso   1.000  H
  H285     1.0000 0.52970  0.77120  0.38410  Biso   1.000  H
  H286     1.0000 0.97030  0.22880  0.88410  Biso   1.000  H
  H287     1.0000 0.97030  0.77120  0.11590  Biso   1.000  H
  H288     1.0000 0.52970  0.22880  0.61590  Biso   1.000  H
  H289     1.0000 0.00000  0.70460  0.13880  Biso   1.000  H
  H290     1.0000 0.00000  0.79540  0.13880  Biso   1.000  H
  H291     1.0000 0.00000  0.29540  0.86120  Biso   1.000  H
  H292     1.0000 0.00000  0.20460  0.86120  Biso   1.000  H
  H293     1.0000 0.54540  0.25000  0.61120  Biso   1.000  H
  H294     1.0000 0.95460  0.75000  0.11120  Biso   1.000  H
  H295     1.0000 0.95460  0.25000  0.88880  Biso   1.000  H
  H296     1.0000 0.54540  0.75000  0.38880  Biso   1.000  H
  H297     1.0000 0.50000  0.20460  0.63880  Biso   1.000  H
  H298     1.0000 0.50000  0.29540  0.63880  Biso   1.000  H
  H299     1.0000 0.50000  0.79540  0.36120  Biso   1.000  H
  H300     1.0000 0.50000  0.70460  0.36120  Biso   1.000  H
  H301     1.0000 0.04540  0.75000  0.11120  Biso   1.000  H
  H302     1.0000 0.45460  0.25000  0.61120  Biso   1.000  H
  H303     1.0000 0.45460  0.75000  0.38880  Biso   1.000  H
  H304     1.0000 0.04540  0.25000  0.88880  Biso   1.000  H
  H305     1.0000 0.95460  0.76570  0.14770  Biso   1.000  H
  H306     1.0000 0.04540  0.73430  0.14770  Biso   1.000  H
  H307     1.0000 0.95460  0.23430  0.85230  Biso   1.000  H
  H308     1.0000 0.04540  0.26570  0.85230  Biso   1.000  H
  H309     1.0000 0.48430  0.29540  0.60230  Biso   1.000  H
  H310     1.0000 0.01570  0.70460  0.10230  Biso   1.000  H
  H311     1.0000 0.01570  0.29540  0.89770  Biso   1.000  H
  H312     1.0000 0.48430  0.70460  0.39770  Biso   1.000  H
  H313     1.0000 0.45460  0.26570  0.64770  Biso   1.000  H
  H314     1.0000 0.54540  0.23430  0.64770  Biso   1.000  H
  H315     1.0000 0.45460  0.73430  0.35230  Biso   1.000  H
  H316     1.0000 0.54540  0.76570  0.35230  Biso   1.000  H
  H317     1.0000 0.98430  0.79540  0.10230  Biso   1.000  H
  H318     1.0000 0.51570  0.20460  0.60230  Biso   1.000  H
  H319     1.0000 0.51570  0.79540  0.39770  Biso   1.000  H
  H320     1.0000 0.98430  0.20460  0.89770  Biso   1.000  H
  H321     1.0000 0.04540  0.23430  0.85230  Biso   1.000  H
  H322     1.0000 0.95460  0.26570  0.85230  Biso   1.000  H
  H323     1.0000 0.04540  0.76570  0.14770  Biso   1.000  H
  H324     1.0000 0.95460  0.73430  0.14770  Biso   1.000  H
  H325     1.0000 0.01570  0.20460  0.89770  Biso   1.000  H
  H326     1.0000 0.48430  0.79540  0.39770  Biso   1.000  H
  H327     1.0000 0.48430  0.20460  0.60230  Biso   1.000  H
  H328     1.0000 0.01570  0.79540  0.10230  Biso   1.000  H
  H329     1.0000 0.54540  0.73430  0.35230  Biso   1.000  H
  H330     1.0000 0.45460  0.76570  0.35230  Biso   1.000  H
  H331     1.0000 0.54540  0.26570  0.64770  Biso   1.000  H
  H332     1.0000 0.45460  0.23430  0.64770  Biso   1.000  H
  H333     1.0000 0.51570  0.70460  0.39770  Biso   1.000  H
  H334     1.0000 0.98430  0.29540  0.89770  Biso   1.000  H
  H335     1.0000 0.98430  0.70460  0.10230  Biso   1.000  H
  H336     1.0000 0.51570  0.29540  0.60230  Biso   1.000  H
  H337     1.0000 0.05950  0.75000  0.28030  Biso   1.000  H
  H338     1.0000 0.94050  0.75000  0.28030  Biso   1.000  H
  H339     1.0000 0.05950  0.25000  0.71970  Biso   1.000  H
  H340     1.0000 0.94050  0.25000  0.71970  Biso   1.000  H
  H341     1.0000 0.50000  0.19050  0.46970  Biso   1.000  H
  H342     1.0000 0.00000  0.80950  0.96970  Biso   1.000  H
  H343     1.0000 0.00000  0.19050  0.03030  Biso   1.000  H
  H344     1.0000 0.50000  0.80950  0.53030  Biso   1.000  H
  H345     1.0000 0.55950  0.25000  0.78030  Biso   1.000  H
  H346     1.0000 0.44050  0.25000  0.78030  Biso   1.000  H
  H347     1.0000 0.55950  0.75000  0.21970  Biso   1.000  H
  H348     1.0000 0.44050  0.75000  0.21970  Biso   1.000  H
  H349     1.0000 0.00000  0.69050  0.96970  Biso   1.000  H
  H350     1.0000 0.50000  0.30950  0.46970  Biso   1.000  H
  H351     1.0000 0.50000  0.69050  0.53030  Biso   1.000  H
  H352     1.0000 0.00000  0.30950  0.03030  Biso   1.000  H
  H353     1.0000 0.08360  0.71000  0.29320  Biso   1.000  H
  H354     1.0000 0.91640  0.79000  0.29320  Biso   1.000  H
  H355     1.0000 0.08360  0.29000  0.70680  Biso   1.000  H
  H356     1.0000 0.91640  0.21000  0.70680  Biso   1.000  H
  H357     1.0000 0.54000  0.16640  0.45680  Biso   1.000  H
  H358     1.0000 0.96000  0.83360  0.95680  Biso   1.000  H
  H359     1.0000 0.96000  0.16640  0.04320  Biso   1.000  H
  H360     1.0000 0.54000  0.83360  0.54320  Biso   1.000  H
  H361     1.0000 0.58360  0.21000  0.79320  Biso   1.000  H
  H362     1.0000 0.41640  0.29000  0.79320  Biso   1.000  H
  H363     1.0000 0.58360  0.79000  0.20680  Biso   1.000  H
  H364     1.0000 0.41640  0.71000  0.20680  Biso   1.000  H
  H365     1.0000 0.04000  0.66640  0.95680  Biso   1.000  H
  H366     1.0000 0.46000  0.33360  0.45680  Biso   1.000  H
  H367     1.0000 0.46000  0.66640  0.54320  Biso   1.000  H
  H368     1.0000 0.04000  0.33360  0.04320  Biso   1.000  H
  H369     1.0000 0.91640  0.29000  0.70680  Biso   1.000  H
  H370     1.0000 0.08360  0.21000  0.70680  Biso   1.000  H
  H371     1.0000 0.91640  0.71000  0.29320  Biso   1.000  H
  H372     1.0000 0.08360  0.79000  0.29320  Biso   1.000  H
  H373     1.0000 0.96000  0.33360  0.04320  Biso   1.000  H
  H374     1.0000 0.54000  0.66640  0.54320  Biso   1.000  H
  H375     1.0000 0.54000  0.33360  0.45680  Biso   1.000  H
  H376     1.0000 0.96000  0.66640  0.95680  Biso   1.000  H
  H377     1.0000 0.41640  0.79000  0.20680  Biso   1.000  H
  H378     1.0000 0.58360  0.71000  0.20680  Biso   1.000  H
  H379     1.0000 0.41640  0.21000  0.79320  Biso   1.000  H
  H380     1.0000 0.58360  0.29000  0.79320  Biso   1.000  H
  H381     1.0000 0.46000  0.83360  0.54320  Biso   1.000  H
  H382     1.0000 0.04000  0.16640  0.04320  Biso   1.000  H
  H383     1.0000 0.04000  0.83360  0.95680  Biso   1.000  H
  H384     1.0000 0.46000  0.16640  0.45680  Biso   1.000  H
  H385     1.0000 0.08540  0.45150  0.26980  Biso   1.000  H
  H386     1.0000 0.91460  0.04850  0.26980  Biso   1.000  H
  H387     1.0000 0.08540  0.54850  0.73020  Biso   1.000  H
  H388     1.0000 0.91460  0.95150  0.73020  Biso   1.000  H
  H389     1.0000 0.79850  0.16460  0.48020  Biso   1.000  H
  H390     1.0000 0.70150  0.83540  0.98020  Biso   1.000  H
  H391     1.0000 0.70150  0.16460  0.01980  Biso   1.000  H
  H392     1.0000 0.79850  0.83540  0.51980  Biso   1.000  H
  H393     1.0000 0.58540  0.95150  0.76980  Biso   1.000  H
  H394     1.0000 0.41460  0.54850  0.76980  Biso   1.000  H
  H395     1.0000 0.58540  0.04850  0.23020  Biso   1.000  H
  H396     1.0000 0.41460  0.45150  0.23020  Biso   1.000  H
  H397     1.0000 0.29850  0.66460  0.98020  Biso   1.000  H
  H398     1.0000 0.20150  0.33540  0.48020  Biso   1.000  H
  H399     1.0000 0.20150  0.66460  0.51980  Biso   1.000  H
  H400     1.0000 0.29850  0.33540  0.01980  Biso   1.000  H
  H401     1.0000 0.91460  0.54850  0.73020  Biso   1.000  H
  H402     1.0000 0.08540  0.95150  0.73020  Biso   1.000  H
  H403     1.0000 0.91460  0.45150  0.26980  Biso   1.000  H
  H404     1.0000 0.08540  0.04850  0.26980  Biso   1.000  H
  H405     1.0000 0.70150  0.33540  0.01980  Biso   1.000  H
  H406     1.0000 0.79850  0.66460  0.51980  Biso   1.000  H
  H407     1.0000 0.79850  0.33540  0.48020  Biso   1.000  H
  H408     1.0000 0.70150  0.66460  0.98020  Biso   1.000  H
  H409     1.0000 0.41460  0.04850  0.23020  Biso   1.000  H
  H410     1.0000 0.58540  0.45150  0.23020  Biso   1.000  H
  H411     1.0000 0.41460  0.95150  0.76980  Biso   1.000  H
  H412     1.0000 0.58540  0.54850  0.76980  Biso   1.000  H
  H413     1.0000 0.20150  0.83540  0.51980  Biso   1.000  H
  H414     1.0000 0.29850  0.16460  0.01980  Biso   1.000  H
  H415     1.0000 0.29850  0.83540  0.98020  Biso   1.000  H
  H416     1.0000 0.20150  0.16460  0.48020  Biso   1.000  H
  H417     1.0000 0.01260  0.47770  0.27630  Biso   1.000  H
  H418     1.0000 0.98740  0.02230  0.27630  Biso   1.000  H
  H419     1.0000 0.01260  0.52230  0.72370  Biso   1.000  H
  H420     1.0000 0.98740  0.97770  0.72370  Biso   1.000  H
  H421     1.0000 0.77230  0.23740  0.47370  Biso   1.000  H
  H422     1.0000 0.72770  0.76260  0.97370  Biso   1.000  H
  H423     1.0000 0.72770  0.23740  0.02630  Biso   1.000  H
  H424     1.0000 0.77230  0.76260  0.52630  Biso   1.000  H
  H425     1.0000 0.51260  0.97770  0.77630  Biso   1.000  H
  H426     1.0000 0.48740  0.52230  0.77630  Biso   1.000  H
  H427     1.0000 0.51260  0.02230  0.22370  Biso   1.000  H
  H428     1.0000 0.48740  0.47770  0.22370  Biso   1.000  H
  H429     1.0000 0.27230  0.73740  0.97370  Biso   1.000  H
  H430     1.0000 0.22770  0.26260  0.47370  Biso   1.000  H
  H431     1.0000 0.22770  0.73740  0.52630  Biso   1.000  H
  H432     1.0000 0.27230  0.26260  0.02630  Biso   1.000  H
  H433     1.0000 0.98740  0.52230  0.72370  Biso   1.000  H
  H434     1.0000 0.01260  0.97770  0.72370  Biso   1.000  H
  H435     1.0000 0.98740  0.47770  0.27630  Biso   1.000  H
  H436     1.0000 0.01260  0.02230  0.27630  Biso   1.000  H
  H437     1.0000 0.72770  0.26260  0.02630  Biso   1.000  H
  H438     1.0000 0.77230  0.73740  0.52630  Biso   1.000  H
  H439     1.0000 0.77230  0.26260  0.47370  Biso   1.000  H
  H440     1.0000 0.72770  0.73740  0.97370  Biso   1.000  H
  H441     1.0000 0.48740  0.02230  0.22370  Biso   1.000  H
  H442     1.0000 0.51260  0.47770  0.22370  Biso   1.000  H
  H443     1.0000 0.48740  0.97770  0.77630  Biso   1.000  H
  H444     1.0000 0.51260  0.52230  0.77630  Biso   1.000  H
  H445     1.0000 0.22770  0.76260  0.52630  Biso   1.000  H
  H446     1.0000 0.27230  0.23740  0.02630  Biso   1.000  H
  H447     1.0000 0.27230  0.76260  0.97370  Biso   1.000  H
  H448     1.0000 0.22770  0.23740  0.47370  Biso   1.000  H
  H449     1.0000 0.07420  0.52860  0.27570  Biso   1.000  H
  H450     1.0000 0.92580  0.97140  0.27570  Biso   1.000  H
  H451     1.0000 0.07420  0.47140  0.72430  Biso   1.000  H
  H452     1.0000 0.92580  0.02860  0.72430  Biso   1.000  H
  H453     1.0000 0.72140  0.17580  0.47430  Biso   1.000  H
  H454     1.0000 0.77860  0.82420  0.97430  Biso   1.000  H
  H455     1.0000 0.77860  0.17580  0.02570  Biso   1.000  H
  H456     1.0000 0.72140  0.82420  0.52570  Biso   1.000  H
  H457     1.0000 0.57420  0.02860  0.77570  Biso   1.000  H
  H458     1.0000 0.42580  0.47140  0.77570  Biso   1.000  H
  H459     1.0000 0.57420  0.97140  0.22430  Biso   1.000  H
  H460     1.0000 0.42580  0.52860  0.22430  Biso   1.000  H
  H461     1.0000 0.22140  0.67580  0.97430  Biso   1.000  H
  H462     1.0000 0.27860  0.32420  0.47430  Biso   1.000  H
  H463     1.0000 0.27860  0.67580  0.52570  Biso   1.000  H
  H464     1.0000 0.22140  0.32420  0.02570  Biso   1.000  H
  H465     1.0000 0.92580  0.47140  0.72430  Biso   1.000  H
  H466     1.0000 0.07420  0.02860  0.72430  Biso   1.000  H
  H467     1.0000 0.92580  0.52860  0.27570  Biso   1.000  H
  H468     1.0000 0.07420  0.97140  0.27570  Biso   1.000  H
  H469     1.0000 0.77860  0.32420  0.02570  Biso   1.000  H
  H470     1.0000 0.72140  0.67580  0.52570  Biso   1.000  H
  H471     1.0000 0.72140  0.32420  0.47430  Biso   1.000  H
  H472     1.0000 0.77860  0.67580  0.97430  Biso   1.000  H
  H473     1.0000 0.42580  0.97140  0.22430  Biso   1.000  H
  H474     1.0000 0.57420  0.52860  0.22430  Biso   1.000  H
  H475     1.0000 0.42580  0.02860  0.77570  Biso   1.000  H
  H476     1.0000 0.57420  0.47140  0.77570  Biso   1.000  H
  H477     1.0000 0.27860  0.82420  0.52570  Biso   1.000  H
  H478     1.0000 0.22140  0.17580  0.02570  Biso   1.000  H
  H479     1.0000 0.22140  0.82420  0.97430  Biso   1.000  H
  H480     1.0000 0.27860  0.17580  0.47430  Biso   1.000  H
  H481     1.0000 0.06450  0.61190  0.23720  Biso   1.000  H
  H482     1.0000 0.93550  0.88810  0.23720  Biso   1.000  H
  H483     1.0000 0.06450  0.38810  0.76280  Biso   1.000  H
  H484     1.0000 0.93550  0.11190  0.76280  Biso   1.000  H
  H485     1.0000 0.63810  0.18550  0.51280  Biso   1.000  H
  H486     1.0000 0.86190  0.81450  0.01280  Biso   1.000  H
  H487     1.0000 0.86190  0.18550  0.98720  Biso   1.000  H
  H488     1.0000 0.63810  0.81450  0.48720  Biso   1.000  H
  H489     1.0000 0.56450  0.11190  0.73720  Biso   1.000  H
  H490     1.0000 0.43550  0.38810  0.73720  Biso   1.000  H
  H491     1.0000 0.56450  0.88810  0.26280  Biso   1.000  H
  H492     1.0000 0.43550  0.61190  0.26280  Biso   1.000  H
  H493     1.0000 0.13810  0.68550  0.01280  Biso   1.000  H
  H494     1.0000 0.36190  0.31450  0.51280  Biso   1.000  H
  H495     1.0000 0.36190  0.68550  0.48720  Biso   1.000  H
  H496     1.0000 0.13810  0.31450  0.98720  Biso   1.000  H
  H497     1.0000 0.93550  0.38810  0.76280  Biso   1.000  H
  H498     1.0000 0.06450  0.11190  0.76280  Biso   1.000  H
  H499     1.0000 0.93550  0.61190  0.23720  Biso   1.000  H
  H500     1.0000 0.06450  0.88810  0.23720  Biso   1.000  H
  H501     1.0000 0.86190  0.31450  0.98720  Biso   1.000  H
  H502     1.0000 0.63810  0.68550  0.48720  Biso   1.000  H
  H503     1.0000 0.63810  0.31450  0.51280  Biso   1.000  H
  H504     1.0000 0.86190  0.68550  0.01280  Biso   1.000  H
  H505     1.0000 0.43550  0.88810  0.26280  Biso   1.000  H
  H506     1.0000 0.56450  0.61190  0.26280  Biso   1.000  H
  H507     1.0000 0.43550  0.11190  0.73720  Biso   1.000  H
  H508     1.0000 0.56450  0.38810  0.73720  Biso   1.000  H
  H509     1.0000 0.36190  0.81450  0.48720  Biso   1.000  H
  H510     1.0000 0.13810  0.18550  0.98720  Biso   1.000  H
  H511     1.0000 0.13810  0.81450  0.01280  Biso   1.000  H
  H512     1.0000 0.36190  0.18550  0.51280  Biso   1.000  H
  H513     1.0000 0.02540  0.62020  0.25920  Biso   1.000  H
  H514     1.0000 0.97460  0.87980  0.25920  Biso   1.000  H
  H515     1.0000 0.02540  0.37980  0.74080  Biso   1.000  H
  H516     1.0000 0.97460  0.12020  0.74080  Biso   1.000  H
  H517     1.0000 0.62980  0.22460  0.49080  Biso   1.000  H
  H518     1.0000 0.87020  0.77540  0.99080  Biso   1.000  H
  H519     1.0000 0.87020  0.22460  0.00920  Biso   1.000  H
  H520     1.0000 0.62980  0.77540  0.50920  Biso   1.000  H
  H521     1.0000 0.52540  0.12020  0.75920  Biso   1.000  H
  H522     1.0000 0.47460  0.37980  0.75920  Biso   1.000  H
  H523     1.0000 0.52540  0.87980  0.24080  Biso   1.000  H
  H524     1.0000 0.47460  0.62020  0.24080  Biso   1.000  H
  H525     1.0000 0.12980  0.72460  0.99080  Biso   1.000  H
  H526     1.0000 0.37020  0.27540  0.49080  Biso   1.000  H
  H527     1.0000 0.37020  0.72460  0.50920  Biso   1.000  H
  H528     1.0000 0.12980  0.27540  0.00920  Biso   1.000  H
  H529     1.0000 0.97460  0.37980  0.74080  Biso   1.000  H
  H530     1.0000 0.02540  0.12020  0.74080  Biso   1.000  H
  H531     1.0000 0.97460  0.62020  0.25920  Biso   1.000  H
  H532     1.0000 0.02540  0.87980  0.25920  Biso   1.000  H
  H533     1.0000 0.87020  0.27540  0.00920  Biso   1.000  H
  H534     1.0000 0.62980  0.72460  0.50920  Biso   1.000  H
  H535     1.0000 0.62980  0.27540  0.49080  Biso   1.000  H
  H536     1.0000 0.87020  0.72460  0.99080  Biso   1.000  H
  H537     1.0000 0.47460  0.87980  0.24080  Biso   1.000  H
  H538     1.0000 0.52540  0.62020  0.24080  Biso   1.000  H
  H539     1.0000 0.47460  0.12020  0.75920  Biso   1.000  H
  H540     1.0000 0.52540  0.37980  0.75920  Biso   1.000  H
  H541     1.0000 0.37020  0.77540  0.50920  Biso   1.000  H
  H542     1.0000 0.12980  0.22460  0.00920  Biso   1.000  H
  H543     1.0000 0.12980  0.77540  0.99080  Biso   1.000  H
  H544     1.0000 0.37020  0.22460  0.49080  Biso   1.000  H
  H545     1.0000 0.06670  0.65410  0.24420  Biso   1.000  H
  H546     1.0000 0.93330  0.84590  0.24420  Biso   1.000  H
  H547     1.0000 0.06670  0.34590  0.75580  Biso   1.000  H
  H548     1.0000 0.93330  0.15410  0.75580  Biso   1.000  H
  H549     1.0000 0.59590  0.18330  0.50580  Biso   1.000  H
  H550     1.0000 0.90410  0.81670  0.00580  Biso   1.000  H
  H551     1.0000 0.90410  0.18330  0.99420  Biso   1.000  H
  H552     1.0000 0.59590  0.81670  0.49420  Biso   1.000  H
  H553     1.0000 0.56670  0.15410  0.74420  Biso   1.000  H
  H554     1.0000 0.43330  0.34590  0.74420  Biso   1.000  H
  H555     1.0000 0.56670  0.84590  0.25580  Biso   1.000  H
  H556     1.0000 0.43330  0.65410  0.25580  Biso   1.000  H
  H557     1.0000 0.09590  0.68330  0.00580  Biso   1.000  H
  H558     1.0000 0.40410  0.31670  0.50580  Biso   1.000  H
  H559     1.0000 0.40410  0.68330  0.49420  Biso   1.000  H
  H560     1.0000 0.09590  0.31670  0.99420  Biso   1.000  H
  H561     1.0000 0.93330  0.34590  0.75580  Biso   1.000  H
  H562     1.0000 0.06670  0.15410  0.75580  Biso   1.000  H
  H563     1.0000 0.93330  0.65410  0.24420  Biso   1.000  H
  H564     1.0000 0.06670  0.84590  0.24420  Biso   1.000  H
  H565     1.0000 0.90410  0.31670  0.99420  Biso   1.000  H
  H566     1.0000 0.59590  0.68330  0.49420  Biso   1.000  H
  H567     1.0000 0.59590  0.31670  0.50580  Biso   1.000  H
  H568     1.0000 0.90410  0.68330  0.00580  Biso   1.000  H
  H569     1.0000 0.43330  0.84590  0.25580  Biso   1.000  H
  H570     1.0000 0.56670  0.65410  0.25580  Biso   1.000  H
  H571     1.0000 0.43330  0.15410  0.74420  Biso   1.000  H
  H572     1.0000 0.56670  0.34590  0.74420  Biso   1.000  H
  H573     1.0000 0.40410  0.81670  0.49420  Biso   1.000  H
  H574     1.0000 0.09590  0.18330  0.99420  Biso   1.000  H
  H575     1.0000 0.09590  0.81670  0.00580  Biso   1.000  H
  H576     1.0000 0.40410  0.18330  0.50580  Biso   1.000  H
  H577     1.0000 0.06020  0.75000  0.21270  Biso   1.000  H
  H578     1.0000 0.93980  0.75000  0.21270  Biso   1.000  H
  H579     1.0000 0.06020  0.25000  0.78730  Biso   1.000  H
  H580     1.0000 0.93980  0.25000  0.78730  Biso   1.000  H
  H581     1.0000 0.50000  0.18980  0.53730  Biso   1.000  H
  H582     1.0000 0.00000  0.81020  0.03730  Biso   1.000  H
  H583     1.0000 0.00000  0.18980  0.96270  Biso   1.000  H
  H584     1.0000 0.50000  0.81020  0.46270  Biso   1.000  H
  H585     1.0000 0.56020  0.25000  0.71270  Biso   1.000  H
  H586     1.0000 0.43980  0.25000  0.71270  Biso   1.000  H
  H587     1.0000 0.56020  0.75000  0.28730  Biso   1.000  H
  H588     1.0000 0.43980  0.75000  0.28730  Biso   1.000  H
  H589     1.0000 0.00000  0.68980  0.03730  Biso   1.000  H
  H590     1.0000 0.50000  0.31020  0.53730  Biso   1.000  H
  H591     1.0000 0.50000  0.68980  0.46270  Biso   1.000  H
  H592     1.0000 0.00000  0.31020  0.96270  Biso   1.000  H
  H593     1.0000 0.07610  0.78940  0.19930  Biso   1.000  H
  H594     1.0000 0.92390  0.71060  0.19930  Biso   1.000  H
  H595     1.0000 0.07610  0.21060  0.80070  Biso   1.000  H
  H596     1.0000 0.92390  0.28940  0.80070  Biso   1.000  H
  H597     1.0000 0.46060  0.17390  0.55070  Biso   1.000  H
  H598     1.0000 0.03940  0.82610  0.05070  Biso   1.000  H
  H599     1.0000 0.03940  0.17390  0.94930  Biso   1.000  H
  H600     1.0000 0.46060  0.82610  0.44930  Biso   1.000  H
  H601     1.0000 0.57610  0.28940  0.69930  Biso   1.000  H
  H602     1.0000 0.42390  0.21060  0.69930  Biso   1.000  H
  H603     1.0000 0.57610  0.71060  0.30070  Biso   1.000  H
  H604     1.0000 0.42390  0.78940  0.30070  Biso   1.000  H
  H605     1.0000 0.96060  0.67390  0.05070  Biso   1.000  H
  H606     1.0000 0.53940  0.32610  0.55070  Biso   1.000  H
  H607     1.0000 0.53940  0.67390  0.44930  Biso   1.000  H
  H608     1.0000 0.96060  0.32610  0.94930  Biso   1.000  H
  H609     1.0000 0.92390  0.21060  0.80070  Biso   1.000  H
  H610     1.0000 0.07610  0.28940  0.80070  Biso   1.000  H
  H611     1.0000 0.92390  0.78940  0.19930  Biso   1.000  H
  H612     1.0000 0.07610  0.71060  0.19930  Biso   1.000  H
  H613     1.0000 0.03940  0.32610  0.94930  Biso   1.000  H
  H614     1.0000 0.46060  0.67390  0.44930  Biso   1.000  H
  H615     1.0000 0.46060  0.32610  0.55070  Biso   1.000  H
  H616     1.0000 0.03940  0.67390  0.05070  Biso   1.000  H
  H617     1.0000 0.42390  0.71060  0.30070  Biso   1.000  H
  H618     1.0000 0.57610  0.78940  0.30070  Biso   1.000  H
  H619     1.0000 0.42390  0.28940  0.69930  Biso   1.000  H
  H620     1.0000 0.57610  0.21060  0.69930  Biso   1.000  H
  H621     1.0000 0.53940  0.82610  0.44930  Biso   1.000  H
  H622     1.0000 0.96060  0.17390  0.94930  Biso   1.000  H
  H623     1.0000 0.96060  0.82610  0.05070  Biso   1.000  H
  H624     1.0000 0.53940  0.17390  0.55070  Biso   1.000  H
  O177     1.0000 0.00000  0.75000  0.18390  Biso   1.000  O
  O178     1.0000 0.00000  0.25000  0.81610  Biso   1.000  O
  O179     1.0000 0.50000  0.25000  0.56610  Biso   1.000  O
  O180     1.0000 0.00000  0.75000  0.06610  Biso   1.000  O
  O181     1.0000 0.00000  0.25000  0.93390  Biso   1.000  O
  O182     1.0000 0.50000  0.75000  0.43390  Biso   1.000  O
  O183     1.0000 0.50000  0.25000  0.68390  Biso   1.000  O
  O184     1.0000 0.50000  0.75000  0.31610  Biso   1.000  O
  O185     1.0000 0.10250  0.75000  0.16570  Biso   1.000  O
  O186     1.0000 0.89750  0.75000  0.16570  Biso   1.000  O
  O187     1.0000 0.10250  0.25000  0.83430  Biso   1.000  O
  O188     1.0000 0.89750  0.25000  0.83430  Biso   1.000  O
  O189     1.0000 0.50000  0.14750  0.58430  Biso   1.000  O
  O190     1.0000 0.00000  0.85250  0.08430  Biso   1.000  O
  O191     1.0000 0.00000  0.14750  0.91570  Biso   1.000  O
  O192     1.0000 0.50000  0.85250  0.41570  Biso   1.000  O
  O193     1.0000 0.60250  0.25000  0.66570  Biso   1.000  O
  O194     1.0000 0.39750  0.25000  0.66570  Biso   1.000  O
  O195     1.0000 0.60250  0.75000  0.33430  Biso   1.000  O
  O196     1.0000 0.39750  0.75000  0.33430  Biso   1.000  O
  O197     1.0000 0.00000  0.64750  0.08430  Biso   1.000  O
  O198     1.0000 0.50000  0.35250  0.58430  Biso   1.000  O
  O199     1.0000 0.50000  0.64750  0.41570  Biso   1.000  O
  O200     1.0000 0.00000  0.35250  0.91570  Biso   1.000  O
  C489     1.0000 0.04750  0.75000  0.20200  Biso   1.000  C
  C490     1.0000 0.95250  0.75000  0.20200  Biso   1.000  C
  C491     1.0000 0.04750  0.25000  0.79800  Biso   1.000  C
  C492     1.0000 0.95250  0.25000  0.79800  Biso   1.000  C
  C493     1.0000 0.50000  0.20250  0.54800  Biso   1.000  C
  C494     1.0000 0.00000  0.79750  0.04800  Biso   1.000  C
  C495     1.0000 0.00000  0.20250  0.95200  Biso   1.000  C
  C496     1.0000 0.50000  0.79750  0.45200  Biso   1.000  C
  C497     1.0000 0.54750  0.25000  0.70200  Biso   1.000  C
  C498     1.0000 0.45250  0.25000  0.70200  Biso   1.000  C
  C499     1.0000 0.54750  0.75000  0.29800  Biso   1.000  C
  C500     1.0000 0.45250  0.75000  0.29800  Biso   1.000  C
  C501     1.0000 0.00000  0.70250  0.04800  Biso   1.000  C
  C502     1.0000 0.50000  0.29750  0.54800  Biso   1.000  C
  C503     1.0000 0.50000  0.70250  0.45200  Biso   1.000  C
  C504     1.0000 0.00000  0.29750  0.95200  Biso   1.000  C
  C505     1.0000 0.03760  0.75000  0.16400  Biso   1.000  C
  C506     1.0000 0.96240  0.75000  0.16400  Biso   1.000  C
  C507     1.0000 0.03760  0.25000  0.83600  Biso   1.000  C
  C508     1.0000 0.96240  0.25000  0.83600  Biso   1.000  C
  C509     1.0000 0.50000  0.21240  0.58600  Biso   1.000  C
  C510     1.0000 0.00000  0.78760  0.08600  Biso   1.000  C
  C511     1.0000 0.00000  0.21240  0.91400  Biso   1.000  C
  C512     1.0000 0.50000  0.78760  0.41400  Biso   1.000  C
  C513     1.0000 0.53760  0.25000  0.66400  Biso   1.000  C
  C514     1.0000 0.46240  0.25000  0.66400  Biso   1.000  C
  C515     1.0000 0.53760  0.75000  0.33600  Biso   1.000  C
  C516     1.0000 0.46240  0.75000  0.33600  Biso   1.000  C
  C517     1.0000 0.00000  0.71240  0.08600  Biso   1.000  C
  C518     1.0000 0.50000  0.28760  0.58600  Biso   1.000  C
  C519     1.0000 0.50000  0.71240  0.41400  Biso   1.000  C
  C520     1.0000 0.00000  0.28760  0.91400  Biso   1.000  C
  C521     1.0000 0.00000  0.75000  0.14470  Biso   1.000  C
  C522     1.0000 0.00000  0.25000  0.85530  Biso   1.000  C
  C523     1.0000 0.50000  0.25000  0.60530  Biso   1.000  C
  C524     1.0000 0.00000  0.75000  0.10530  Biso   1.000  C
  C525     1.0000 0.00000  0.25000  0.89470  Biso   1.000  C
  C526     1.0000 0.50000  0.75000  0.39470  Biso   1.000  C
  C527     1.0000 0.50000  0.25000  0.64470  Biso   1.000  C
  C528     1.0000 0.50000  0.75000  0.35530  Biso   1.000  C
  C529     1.0000 0.05590  0.75000  0.29040  Biso   1.000  C
  C530     1.0000 0.94410  0.75000  0.29040  Biso   1.000  C
  C531     1.0000 0.05590  0.25000  0.70960  Biso   1.000  C
  C532     1.0000 0.94410  0.25000  0.70960  Biso   1.000  C
  C533     1.0000 0.50000  0.19410  0.45960  Biso   1.000  C
  C534     1.0000 0.00000  0.80590  0.95960  Biso   1.000  C
  C535     1.0000 0.00000  0.19410  0.04040  Biso   1.000  C
  C536     1.0000 0.50000  0.80590  0.54040  Biso   1.000  C
  C537     1.0000 0.55590  0.25000  0.79040  Biso   1.000  C
  C538     1.0000 0.44410  0.25000  0.79040  Biso   1.000  C
  C539     1.0000 0.55590  0.75000  0.20960  Biso   1.000  C
  C540     1.0000 0.44410  0.75000  0.20960  Biso   1.000  C
  C541     1.0000 0.00000  0.69410  0.95960  Biso   1.000  C
  C542     1.0000 0.50000  0.30590  0.45960  Biso   1.000  C
  C543     1.0000 0.50000  0.69410  0.54040  Biso   1.000  C
  C544     1.0000 0.00000  0.30590  0.04040  Biso   1.000  C
  C545     1.0000 0.03620  0.75000  0.22660  Biso   1.000  C
  C546     1.0000 0.96380  0.75000  0.22660  Biso   1.000  C
  C547     1.0000 0.03620  0.25000  0.77340  Biso   1.000  C
  C548     1.0000 0.96380  0.25000  0.77340  Biso   1.000  C
  C549     1.0000 0.50000  0.21380  0.52340  Biso   1.000  C
  C550     1.0000 0.00000  0.78620  0.02340  Biso   1.000  C
  C551     1.0000 0.00000  0.21380  0.97660  Biso   1.000  C
  C552     1.0000 0.50000  0.78620  0.47660  Biso   1.000  C
  C553     1.0000 0.53620  0.25000  0.72660  Biso   1.000  C
  C554     1.0000 0.46380  0.25000  0.72660  Biso   1.000  C
  C555     1.0000 0.53620  0.75000  0.27340  Biso   1.000  C
  C556     1.0000 0.46380  0.75000  0.27340  Biso   1.000  C
  C557     1.0000 0.00000  0.71380  0.02340  Biso   1.000  C
  C558     1.0000 0.50000  0.28620  0.52340  Biso   1.000  C
  C559     1.0000 0.50000  0.71380  0.47660  Biso   1.000  C
  C560     1.0000 0.00000  0.28620  0.97660  Biso   1.000  C
  C561     1.0000 0.03480  0.75000  0.26650  Biso   1.000  C
  C562     1.0000 0.96520  0.75000  0.26650  Biso   1.000  C
  C563     1.0000 0.03480  0.25000  0.73350  Biso   1.000  C
  C564     1.0000 0.96520  0.25000  0.73350  Biso   1.000  C
  C565     1.0000 0.50000  0.21520  0.48350  Biso   1.000  C
  C566     1.0000 0.00000  0.78480  0.98350  Biso   1.000  C
  C567     1.0000 0.00000  0.21520  0.01650  Biso   1.000  C
  C568     1.0000 0.50000  0.78480  0.51650  Biso   1.000  C
  C569     1.0000 0.53480  0.25000  0.76650  Biso   1.000  C
  C570     1.0000 0.46520  0.25000  0.76650  Biso   1.000  C
  C571     1.0000 0.53480  0.75000  0.23350  Biso   1.000  C
  C572     1.0000 0.46520  0.75000  0.23350  Biso   1.000  C
  C573     1.0000 0.00000  0.71520  0.98350  Biso   1.000  C
  C574     1.0000 0.50000  0.28480  0.48350  Biso   1.000  C
  C575     1.0000 0.50000  0.71520  0.51650  Biso   1.000  C
  C576     1.0000 0.00000  0.28480  0.01650  Biso   1.000  C
