data_image0
_cell_length_a       20.009
_cell_length_b       20.009
_cell_length_c       59.029
_cell_angle_alpha    90
_cell_angle_beta     90
_cell_angle_gamma    90

_symmetry_space_group_name_H-M    "P 1"
_symmetry_int_tables_number       1

loop_
  _symmetry_equiv_pos_as_xyz
  'x, y, z'

loop_
  _atom_site_label
  _atom_site_occupancy
  _atom_site_fract_x
  _atom_site_fract_y
  _atom_site_fract_z
  _atom_site_thermal_displace_type
  _atom_site_B_iso_or_equiv
  _atom_site_type_symbol
  Cu1      1.0000 0.00000  0.93485  0.00347  Biso   1.000  Cu
  Cu2      1.0000 0.00000  0.56515  0.00347  Biso   1.000  Cu
  Cu3      1.0000 0.00000  0.06515  0.99653  Biso   1.000  Cu
  Cu4      1.0000 0.00000  0.43485  0.99653  Biso   1.000  Cu
  Cu5      1.0000 0.31515  0.25000  0.74653  Biso   1.000  Cu
  Cu6      1.0000 0.18485  0.75000  0.24653  Biso   1.000  Cu
  Cu7      1.0000 0.18485  0.25000  0.75347  Biso   1.000  Cu
  Cu8      1.0000 0.31515  0.75000  0.25347  Biso   1.000  Cu
  Cu9      1.0000 0.50000  0.43485  0.50347  Biso   1.000  Cu
  Cu10     1.0000 0.50000  0.06515  0.50347  Biso   1.000  Cu
  Cu11     1.0000 0.50000  0.56515  0.49653  Biso   1.000  Cu
  Cu12     1.0000 0.50000  0.93485  0.49653  Biso   1.000  Cu
  Cu13     1.0000 0.81515  0.75000  0.24653  Biso   1.000  Cu
  Cu14     1.0000 0.68485  0.25000  0.74653  Biso   1.000  Cu
  Cu15     1.0000 0.68485  0.75000  0.25347  Biso   1.000  Cu
  Cu16     1.0000 0.81515  0.25000  0.75347  Biso   1.000  Cu
  Cu17     1.0000 0.50000  0.75000  0.89737  Biso   1.000  Cu
  Cu18     1.0000 0.50000  0.25000  0.10263  Biso   1.000  Cu
  Cu19     1.0000 0.50000  0.75000  0.85263  Biso   1.000  Cu
  Cu20     1.0000 0.00000  0.25000  0.35263  Biso   1.000  Cu
  Cu21     1.0000 0.00000  0.75000  0.64737  Biso   1.000  Cu
  Cu22     1.0000 0.50000  0.25000  0.14737  Biso   1.000  Cu
  Cu23     1.0000 0.00000  0.25000  0.39737  Biso   1.000  Cu
  Cu24     1.0000 0.00000  0.75000  0.60263  Biso   1.000  Cu
  O1       1.0000 0.93206  0.93276  0.97972  Biso   1.000  O
  O2       1.0000 0.06794  0.56724  0.97972  Biso   1.000  O
  O3       1.0000 0.93206  0.06724  0.02028  Biso   1.000  O
  O4       1.0000 0.06794  0.43276  0.02028  Biso   1.000  O
  O5       1.0000 0.31724  0.31794  0.77028  Biso   1.000  O
  O6       1.0000 0.18276  0.68206  0.27028  Biso   1.000  O
  O7       1.0000 0.18276  0.31794  0.72972  Biso   1.000  O
  O8       1.0000 0.31724  0.68206  0.22972  Biso   1.000  O
  O9       1.0000 0.43206  0.43276  0.47972  Biso   1.000  O
  O10      1.0000 0.56794  0.06724  0.47972  Biso   1.000  O
  O11      1.0000 0.43206  0.56724  0.52028  Biso   1.000  O
  O12      1.0000 0.56794  0.93276  0.52028  Biso   1.000  O
  O13      1.0000 0.81724  0.81794  0.27028  Biso   1.000  O
  O14      1.0000 0.68276  0.18206  0.77028  Biso   1.000  O
  O15      1.0000 0.68276  0.81794  0.22972  Biso   1.000  O
  O16      1.0000 0.81724  0.18206  0.72972  Biso   1.000  O
  O17      1.0000 0.06794  0.06724  0.02028  Biso   1.000  O
  O18      1.0000 0.93206  0.43276  0.02028  Biso   1.000  O
  O19      1.0000 0.06794  0.93276  0.97972  Biso   1.000  O
  O20      1.0000 0.93206  0.56724  0.97972  Biso   1.000  O
  O21      1.0000 0.18276  0.18206  0.72972  Biso   1.000  O
  O22      1.0000 0.31724  0.81794  0.22972  Biso   1.000  O
  O23      1.0000 0.31724  0.18206  0.77028  Biso   1.000  O
  O24      1.0000 0.18276  0.81794  0.27028  Biso   1.000  O
  O25      1.0000 0.56794  0.56724  0.52028  Biso   1.000  O
  O26      1.0000 0.43206  0.93276  0.52028  Biso   1.000  O
  O27      1.0000 0.56794  0.43276  0.47972  Biso   1.000  O
  O28      1.0000 0.43206  0.06724  0.47972  Biso   1.000  O
  O29      1.0000 0.68276  0.68206  0.22972  Biso   1.000  O
  O30      1.0000 0.81724  0.31794  0.72972  Biso   1.000  O
  O31      1.0000 0.81724  0.68206  0.27028  Biso   1.000  O
  O32      1.0000 0.68276  0.31794  0.77028  Biso   1.000  O
  O33      1.0000 0.93205  0.04575  0.97380  Biso   1.000  O
  O34      1.0000 0.06795  0.45425  0.97380  Biso   1.000  O
  O35      1.0000 0.93205  0.95425  0.02620  Biso   1.000  O
  O36      1.0000 0.06795  0.54575  0.02620  Biso   1.000  O
  O37      1.0000 0.20425  0.31795  0.77620  Biso   1.000  O
  O38      1.0000 0.29575  0.68205  0.27620  Biso   1.000  O
  O39      1.0000 0.29575  0.31795  0.72380  Biso   1.000  O
  O40      1.0000 0.20425  0.68205  0.22380  Biso   1.000  O
  O41      1.0000 0.43205  0.54575  0.47380  Biso   1.000  O
  O42      1.0000 0.56795  0.95425  0.47380  Biso   1.000  O
  O43      1.0000 0.43205  0.45425  0.52620  Biso   1.000  O
  O44      1.0000 0.56795  0.04575  0.52620  Biso   1.000  O
  O45      1.0000 0.70425  0.81795  0.27620  Biso   1.000  O
  O46      1.0000 0.79575  0.18205  0.77620  Biso   1.000  O
  O47      1.0000 0.79575  0.81795  0.22380  Biso   1.000  O
  O48      1.0000 0.70425  0.18205  0.72380  Biso   1.000  O
  O49      1.0000 0.06795  0.95425  0.02620  Biso   1.000  O
  O50      1.0000 0.93205  0.54575  0.02620  Biso   1.000  O
  O51      1.0000 0.06795  0.04575  0.97380  Biso   1.000  O
  O52      1.0000 0.93205  0.45425  0.97380  Biso   1.000  O
  O53      1.0000 0.29575  0.18205  0.72380  Biso   1.000  O
  O54      1.0000 0.20425  0.81795  0.22380  Biso   1.000  O
  O55      1.0000 0.20425  0.18205  0.77620  Biso   1.000  O
  O56      1.0000 0.29575  0.81795  0.27620  Biso   1.000  O
  O57      1.0000 0.56795  0.45425  0.52620  Biso   1.000  O
  O58      1.0000 0.43205  0.04575  0.52620  Biso   1.000  O
  O59      1.0000 0.56795  0.54575  0.47380  Biso   1.000  O
  O60      1.0000 0.43205  0.95425  0.47380  Biso   1.000  O
  O61      1.0000 0.79575  0.68205  0.22380  Biso   1.000  O
  O62      1.0000 0.70425  0.31795  0.72380  Biso   1.000  O
  O63      1.0000 0.70425  0.68205  0.27620  Biso   1.000  O
  O64      1.0000 0.79575  0.31795  0.77620  Biso   1.000  O
  O65      1.0000 0.56880  0.81880  0.89398  Biso   1.000  O
  O66      1.0000 0.43120  0.68120  0.89398  Biso   1.000  O
  O67      1.0000 0.56880  0.18120  0.10602  Biso   1.000  O
  O68      1.0000 0.43120  0.31880  0.10602  Biso   1.000  O
  O69      1.0000 0.43120  0.68120  0.85602  Biso   1.000  O
  O70      1.0000 0.06880  0.31880  0.35602  Biso   1.000  O
  O71      1.0000 0.06880  0.68120  0.64398  Biso   1.000  O
  O72      1.0000 0.43120  0.31880  0.14398  Biso   1.000  O
  O73      1.0000 0.06880  0.31880  0.39398  Biso   1.000  O
  O74      1.0000 0.93120  0.18120  0.39398  Biso   1.000  O
  O75      1.0000 0.06880  0.68120  0.60602  Biso   1.000  O
  O76      1.0000 0.93120  0.81880  0.60602  Biso   1.000  O
  O77      1.0000 0.93120  0.18120  0.35602  Biso   1.000  O
  O78      1.0000 0.56880  0.81880  0.85602  Biso   1.000  O
  O79      1.0000 0.56880  0.18120  0.14398  Biso   1.000  O
  O80      1.0000 0.93120  0.81880  0.64398  Biso   1.000  O
  O81      1.0000 0.43120  0.18120  0.10602  Biso   1.000  O
  O82      1.0000 0.56880  0.31880  0.10602  Biso   1.000  O
  O83      1.0000 0.43120  0.81880  0.89398  Biso   1.000  O
  O84      1.0000 0.56880  0.68120  0.89398  Biso   1.000  O
  O85      1.0000 0.06880  0.81880  0.64398  Biso   1.000  O
  O86      1.0000 0.43120  0.18120  0.14398  Biso   1.000  O
  O87      1.0000 0.43120  0.81880  0.85602  Biso   1.000  O
  O88      1.0000 0.06880  0.18120  0.35602  Biso   1.000  O
  O89      1.0000 0.93120  0.68120  0.60602  Biso   1.000  O
  O90      1.0000 0.06880  0.81880  0.60602  Biso   1.000  O
  O91      1.0000 0.93120  0.31880  0.39398  Biso   1.000  O
  O92      1.0000 0.06880  0.18120  0.39398  Biso   1.000  O
  O93      1.0000 0.56880  0.31880  0.14398  Biso   1.000  O
  O94      1.0000 0.93120  0.68120  0.64398  Biso   1.000  O
  O95      1.0000 0.93120  0.31880  0.35602  Biso   1.000  O
  O96      1.0000 0.56880  0.68120  0.85602  Biso   1.000  O
  O97      1.0000 0.50000  0.75000  0.93333  Biso   1.000  O
  O98      1.0000 0.50000  0.25000  0.06667  Biso   1.000  O
  O99      1.0000 0.50000  0.75000  0.81667  Biso   1.000  O
  O100     1.0000 0.00000  0.25000  0.31667  Biso   1.000  O
  O101     1.0000 0.00000  0.75000  0.68333  Biso   1.000  O
  O102     1.0000 0.50000  0.25000  0.18333  Biso   1.000  O
  O103     1.0000 0.00000  0.25000  0.43333  Biso   1.000  O
  O104     1.0000 0.00000  0.75000  0.56667  Biso   1.000  O
  O105     1.0000 0.00000  0.83200  0.00989  Biso   1.000  O
  O106     1.0000 0.00000  0.66800  0.00989  Biso   1.000  O
  O107     1.0000 0.00000  0.16800  0.99011  Biso   1.000  O
  O108     1.0000 0.00000  0.33200  0.99011  Biso   1.000  O
  O109     1.0000 0.41800  0.25000  0.74011  Biso   1.000  O
  O110     1.0000 0.08200  0.75000  0.24011  Biso   1.000  O
  O111     1.0000 0.08200  0.25000  0.75989  Biso   1.000  O
  O112     1.0000 0.41800  0.75000  0.25989  Biso   1.000  O
  O113     1.0000 0.50000  0.33200  0.50989  Biso   1.000  O
  O114     1.0000 0.50000  0.16800  0.50989  Biso   1.000  O
  O115     1.0000 0.50000  0.66800  0.49011  Biso   1.000  O
  O116     1.0000 0.50000  0.83200  0.49011  Biso   1.000  O
  O117     1.0000 0.91800  0.75000  0.24011  Biso   1.000  O
  O118     1.0000 0.58200  0.25000  0.74011  Biso   1.000  O
  O119     1.0000 0.58200  0.75000  0.25989  Biso   1.000  O
  O120     1.0000 0.91800  0.25000  0.75989  Biso   1.000  O
  C1       1.0000 0.91330  0.98640  0.96954  Biso   1.000  C
  C2       1.0000 0.08670  0.51360  0.96954  Biso   1.000  C
  C3       1.0000 0.91330  0.01360  0.03046  Biso   1.000  C
  C4       1.0000 0.08670  0.48640  0.03046  Biso   1.000  C
  C5       1.0000 0.26360  0.33670  0.78046  Biso   1.000  C
  C6       1.0000 0.23640  0.66330  0.28046  Biso   1.000  C
  C7       1.0000 0.23640  0.33670  0.71954  Biso   1.000  C
  C8       1.0000 0.26360  0.66330  0.21954  Biso   1.000  C
  C9       1.0000 0.41330  0.48640  0.46954  Biso   1.000  C
  C10      1.0000 0.58670  0.01360  0.46954  Biso   1.000  C
  C11      1.0000 0.41330  0.51360  0.53046  Biso   1.000  C
  C12      1.0000 0.58670  0.98640  0.53046  Biso   1.000  C
  C13      1.0000 0.76360  0.83670  0.28046  Biso   1.000  C
  C14      1.0000 0.73640  0.16330  0.78046  Biso   1.000  C
  C15      1.0000 0.73640  0.83670  0.21954  Biso   1.000  C
  C16      1.0000 0.76360  0.16330  0.71954  Biso   1.000  C
  C17      1.0000 0.08670  0.01360  0.03046  Biso   1.000  C
  C18      1.0000 0.91330  0.48640  0.03046  Biso   1.000  C
  C19      1.0000 0.08670  0.98640  0.96954  Biso   1.000  C
  C20      1.0000 0.91330  0.51360  0.96954  Biso   1.000  C
  C21      1.0000 0.23640  0.16330  0.71954  Biso   1.000  C
  C22      1.0000 0.26360  0.83670  0.21954  Biso   1.000  C
  C23      1.0000 0.26360  0.16330  0.78046  Biso   1.000  C
  C24      1.0000 0.23640  0.83670  0.28046  Biso   1.000  C
  C25      1.0000 0.58670  0.51360  0.53046  Biso   1.000  C
  C26      1.0000 0.41330  0.98640  0.53046  Biso   1.000  C
  C27      1.0000 0.58670  0.48640  0.46954  Biso   1.000  C
  C28      1.0000 0.41330  0.01360  0.46954  Biso   1.000  C
  C29      1.0000 0.73640  0.66330  0.21954  Biso   1.000  C
  C30      1.0000 0.76360  0.33670  0.71954  Biso   1.000  C
  C31      1.0000 0.76360  0.66330  0.28046  Biso   1.000  C
  C32      1.0000 0.73640  0.33670  0.78046  Biso   1.000  C
  C33      1.0000 0.86220  0.97760  0.95076  Biso   1.000  C
  C34      1.0000 0.13780  0.52240  0.95076  Biso   1.000  C
  C35      1.0000 0.86220  0.02240  0.04924  Biso   1.000  C
  C36      1.0000 0.13780  0.47760  0.04924  Biso   1.000  C
  C37      1.0000 0.27240  0.38780  0.79924  Biso   1.000  C
  C38      1.0000 0.22760  0.61220  0.29924  Biso   1.000  C
  C39      1.0000 0.22760  0.38780  0.70076  Biso   1.000  C
  C40      1.0000 0.27240  0.61220  0.20076  Biso   1.000  C
  C41      1.0000 0.36220  0.47760  0.45076  Biso   1.000  C
  C42      1.0000 0.63780  0.02240  0.45076  Biso   1.000  C
  C43      1.0000 0.36220  0.52240  0.54924  Biso   1.000  C
  C44      1.0000 0.63780  0.97760  0.54924  Biso   1.000  C
  C45      1.0000 0.77240  0.88780  0.29924  Biso   1.000  C
  C46      1.0000 0.72760  0.11220  0.79924  Biso   1.000  C
  C47      1.0000 0.72760  0.88780  0.20076  Biso   1.000  C
  C48      1.0000 0.77240  0.11220  0.70076  Biso   1.000  C
  C49      1.0000 0.13780  0.02240  0.04924  Biso   1.000  C
  C50      1.0000 0.86220  0.47760  0.04924  Biso   1.000  C
  C51      1.0000 0.13780  0.97760  0.95076  Biso   1.000  C
  C52      1.0000 0.86220  0.52240  0.95076  Biso   1.000  C
  C53      1.0000 0.22760  0.11220  0.70076  Biso   1.000  C
  C54      1.0000 0.27240  0.88780  0.20076  Biso   1.000  C
  C55      1.0000 0.27240  0.11220  0.79924  Biso   1.000  C
  C56      1.0000 0.22760  0.88780  0.29924  Biso   1.000  C
  C57      1.0000 0.63780  0.52240  0.54924  Biso   1.000  C
  C58      1.0000 0.36220  0.97760  0.54924  Biso   1.000  C
  C59      1.0000 0.63780  0.47760  0.45076  Biso   1.000  C
  C60      1.0000 0.36220  0.02240  0.45076  Biso   1.000  C
  C61      1.0000 0.72760  0.61220  0.20076  Biso   1.000  C
  C62      1.0000 0.77240  0.38780  0.70076  Biso   1.000  C
  C63      1.0000 0.77240  0.61220  0.29924  Biso   1.000  C
  C64      1.0000 0.72760  0.38780  0.79924  Biso   1.000  C
  C65      1.0000 0.84130  0.03140  0.93873  Biso   1.000  C
  C66      1.0000 0.15870  0.46860  0.93873  Biso   1.000  C
  C67      1.0000 0.84130  0.96860  0.06127  Biso   1.000  C
  C68      1.0000 0.15870  0.53140  0.06127  Biso   1.000  C
  C69      1.0000 0.21860  0.40870  0.81127  Biso   1.000  C
  C70      1.0000 0.28140  0.59130  0.31127  Biso   1.000  C
  C71      1.0000 0.28140  0.40870  0.68873  Biso   1.000  C
  C72      1.0000 0.21860  0.59130  0.18873  Biso   1.000  C
  C73      1.0000 0.34130  0.53140  0.43873  Biso   1.000  C
  C74      1.0000 0.65870  0.96860  0.43873  Biso   1.000  C
  C75      1.0000 0.34130  0.46860  0.56127  Biso   1.000  C
  C76      1.0000 0.65870  0.03140  0.56127  Biso   1.000  C
  C77      1.0000 0.71860  0.90870  0.31127  Biso   1.000  C
  C78      1.0000 0.78140  0.09130  0.81127  Biso   1.000  C
  C79      1.0000 0.78140  0.90870  0.18873  Biso   1.000  C
  C80      1.0000 0.71860  0.09130  0.68873  Biso   1.000  C
  C81      1.0000 0.15870  0.96860  0.06127  Biso   1.000  C
  C82      1.0000 0.84130  0.53140  0.06127  Biso   1.000  C
  C83      1.0000 0.15870  0.03140  0.93873  Biso   1.000  C
  C84      1.0000 0.84130  0.46860  0.93873  Biso   1.000  C
  C85      1.0000 0.28140  0.09130  0.68873  Biso   1.000  C
  C86      1.0000 0.21860  0.90870  0.18873  Biso   1.000  C
  C87      1.0000 0.21860  0.09130  0.81127  Biso   1.000  C
  C88      1.0000 0.28140  0.90870  0.31127  Biso   1.000  C
  C89      1.0000 0.65870  0.46860  0.56127  Biso   1.000  C
  C90      1.0000 0.34130  0.03140  0.56127  Biso   1.000  C
  C91      1.0000 0.65870  0.53140  0.43873  Biso   1.000  C
  C92      1.0000 0.34130  0.96860  0.43873  Biso   1.000  C
  C93      1.0000 0.78140  0.59130  0.18873  Biso   1.000  C
  C94      1.0000 0.71860  0.40870  0.68873  Biso   1.000  C
  C95      1.0000 0.71860  0.59130  0.31127  Biso   1.000  C
  C96      1.0000 0.78140  0.40870  0.81127  Biso   1.000  C
  H1       1.0000 0.85590  0.07400  0.94270  Biso   1.000  H
  H2       1.0000 0.14410  0.42600  0.94270  Biso   1.000  H
  H3       1.0000 0.85590  0.92600  0.05730  Biso   1.000  H
  H4       1.0000 0.14410  0.57400  0.05730  Biso   1.000  H
  H5       1.0000 0.17600  0.39410  0.80730  Biso   1.000  H
  H6       1.0000 0.32400  0.60590  0.30730  Biso   1.000  H
  H7       1.0000 0.32400  0.39410  0.69270  Biso   1.000  H
  H8       1.0000 0.17600  0.60590  0.19270  Biso   1.000  H
  H9       1.0000 0.35590  0.57400  0.44270  Biso   1.000  H
  H10      1.0000 0.64410  0.92600  0.44270  Biso   1.000  H
  H11      1.0000 0.35590  0.42600  0.55730  Biso   1.000  H
  H12      1.0000 0.64410  0.07400  0.55730  Biso   1.000  H
  H13      1.0000 0.67600  0.89410  0.30730  Biso   1.000  H
  H14      1.0000 0.82400  0.10590  0.80730  Biso   1.000  H
  H15      1.0000 0.82400  0.89410  0.19270  Biso   1.000  H
  H16      1.0000 0.67600  0.10590  0.69270  Biso   1.000  H
  H17      1.0000 0.14410  0.92600  0.05730  Biso   1.000  H
  H18      1.0000 0.85590  0.57400  0.05730  Biso   1.000  H
  H19      1.0000 0.14410  0.07400  0.94270  Biso   1.000  H
  H20      1.0000 0.85590  0.42600  0.94270  Biso   1.000  H
  H21      1.0000 0.32400  0.10590  0.69270  Biso   1.000  H
  H22      1.0000 0.17600  0.89410  0.19270  Biso   1.000  H
  H23      1.0000 0.17600  0.10590  0.80730  Biso   1.000  H
  H24      1.0000 0.32400  0.89410  0.30730  Biso   1.000  H
  H25      1.0000 0.64410  0.42600  0.55730  Biso   1.000  H
  H26      1.0000 0.35590  0.07400  0.55730  Biso   1.000  H
  H27      1.0000 0.64410  0.57400  0.44270  Biso   1.000  H
  H28      1.0000 0.35590  0.92600  0.44270  Biso   1.000  H
  H29      1.0000 0.82400  0.60590  0.19270  Biso   1.000  H
  H30      1.0000 0.67600  0.39410  0.69270  Biso   1.000  H
  H31      1.0000 0.67600  0.60590  0.30730  Biso   1.000  H
  H32      1.0000 0.82400  0.39410  0.80730  Biso   1.000  H
  C97      1.0000 0.79780  0.02300  0.92034  Biso   1.000  C
  C98      1.0000 0.20220  0.47700  0.92034  Biso   1.000  C
  C99      1.0000 0.79780  0.97700  0.07966  Biso   1.000  C
  C100     1.0000 0.20220  0.52300  0.07966  Biso   1.000  C
  C101     1.0000 0.22700  0.45220  0.82966  Biso   1.000  C
  C102     1.0000 0.27300  0.54780  0.32966  Biso   1.000  C
  C103     1.0000 0.27300  0.45220  0.67034  Biso   1.000  C
  C104     1.0000 0.22700  0.54780  0.17034  Biso   1.000  C
  C105     1.0000 0.29780  0.52300  0.42034  Biso   1.000  C
  C106     1.0000 0.70220  0.97700  0.42034  Biso   1.000  C
  C107     1.0000 0.29780  0.47700  0.57966  Biso   1.000  C
  C108     1.0000 0.70220  0.02300  0.57966  Biso   1.000  C
  C109     1.0000 0.72700  0.95220  0.32966  Biso   1.000  C
  C110     1.0000 0.77300  0.04780  0.82966  Biso   1.000  C
  C111     1.0000 0.77300  0.95220  0.17034  Biso   1.000  C
  C112     1.0000 0.72700  0.04780  0.67034  Biso   1.000  C
  C113     1.0000 0.20220  0.97700  0.07966  Biso   1.000  C
  C114     1.0000 0.79780  0.52300  0.07966  Biso   1.000  C
  C115     1.0000 0.20220  0.02300  0.92034  Biso   1.000  C
  C116     1.0000 0.79780  0.47700  0.92034  Biso   1.000  C
  C117     1.0000 0.27300  0.04780  0.67034  Biso   1.000  C
  C118     1.0000 0.22700  0.95220  0.17034  Biso   1.000  C
  C119     1.0000 0.22700  0.04780  0.82966  Biso   1.000  C
  C120     1.0000 0.27300  0.95220  0.32966  Biso   1.000  C
  C121     1.0000 0.70220  0.47700  0.57966  Biso   1.000  C
  C122     1.0000 0.29780  0.02300  0.57966  Biso   1.000  C
  C123     1.0000 0.70220  0.52300  0.42034  Biso   1.000  C
  C124     1.0000 0.29780  0.97700  0.42034  Biso   1.000  C
  C125     1.0000 0.77300  0.54780  0.17034  Biso   1.000  C
  C126     1.0000 0.72700  0.45220  0.67034  Biso   1.000  C
  C127     1.0000 0.72700  0.54780  0.32966  Biso   1.000  C
  C128     1.0000 0.77300  0.45220  0.82966  Biso   1.000  C
  H33      1.0000 0.78450  0.06030  0.91210  Biso   1.000  H
  H34      1.0000 0.21550  0.43970  0.91210  Biso   1.000  H
  H35      1.0000 0.78450  0.93970  0.08790  Biso   1.000  H
  H36      1.0000 0.21550  0.56030  0.08790  Biso   1.000  H
  H37      1.0000 0.18970  0.46550  0.83790  Biso   1.000  H
  H38      1.0000 0.31030  0.53450  0.33790  Biso   1.000  H
  H39      1.0000 0.31030  0.46550  0.66210  Biso   1.000  H
  H40      1.0000 0.18970  0.53450  0.16210  Biso   1.000  H
  H41      1.0000 0.28450  0.56030  0.41210  Biso   1.000  H
  H42      1.0000 0.71550  0.93970  0.41210  Biso   1.000  H
  H43      1.0000 0.28450  0.43970  0.58790  Biso   1.000  H
  H44      1.0000 0.71550  0.06030  0.58790  Biso   1.000  H
  H45      1.0000 0.68970  0.96550  0.33790  Biso   1.000  H
  H46      1.0000 0.81030  0.03450  0.83790  Biso   1.000  H
  H47      1.0000 0.81030  0.96550  0.16210  Biso   1.000  H
  H48      1.0000 0.68970  0.03450  0.66210  Biso   1.000  H
  H49      1.0000 0.21550  0.93970  0.08790  Biso   1.000  H
  H50      1.0000 0.78450  0.56030  0.08790  Biso   1.000  H
  H51      1.0000 0.21550  0.06030  0.91210  Biso   1.000  H
  H52      1.0000 0.78450  0.43970  0.91210  Biso   1.000  H
  H53      1.0000 0.31030  0.03450  0.66210  Biso   1.000  H
  H54      1.0000 0.18970  0.96550  0.16210  Biso   1.000  H
  H55      1.0000 0.18970  0.03450  0.83790  Biso   1.000  H
  H56      1.0000 0.31030  0.96550  0.33790  Biso   1.000  H
  H57      1.0000 0.71550  0.43970  0.58790  Biso   1.000  H
  H58      1.0000 0.28450  0.06030  0.58790  Biso   1.000  H
  H59      1.0000 0.71550  0.56030  0.41210  Biso   1.000  H
  H60      1.0000 0.28450  0.93970  0.41210  Biso   1.000  H
  H61      1.0000 0.81030  0.53450  0.16210  Biso   1.000  H
  H62      1.0000 0.68970  0.46550  0.66210  Biso   1.000  H
  H63      1.0000 0.68970  0.53450  0.33790  Biso   1.000  H
  H64      1.0000 0.81030  0.46550  0.83790  Biso   1.000  H
  C129     1.0000 0.77420  0.96070  0.91413  Biso   1.000  C
  C130     1.0000 0.22580  0.53930  0.91413  Biso   1.000  C
  C131     1.0000 0.77420  0.03930  0.08587  Biso   1.000  C
  C132     1.0000 0.22580  0.46070  0.08587  Biso   1.000  C
  C133     1.0000 0.28930  0.47580  0.83587  Biso   1.000  C
  C134     1.0000 0.21070  0.52420  0.33587  Biso   1.000  C
  C135     1.0000 0.21070  0.47580  0.66413  Biso   1.000  C
  C136     1.0000 0.28930  0.52420  0.16413  Biso   1.000  C
  C137     1.0000 0.27420  0.46070  0.41413  Biso   1.000  C
  C138     1.0000 0.72580  0.03930  0.41413  Biso   1.000  C
  C139     1.0000 0.27420  0.53930  0.58587  Biso   1.000  C
  C140     1.0000 0.72580  0.96070  0.58587  Biso   1.000  C
  C141     1.0000 0.78930  0.97580  0.33587  Biso   1.000  C
  C142     1.0000 0.71070  0.02420  0.83587  Biso   1.000  C
  C143     1.0000 0.71070  0.97580  0.16413  Biso   1.000  C
  C144     1.0000 0.78930  0.02420  0.66413  Biso   1.000  C
  C145     1.0000 0.22580  0.03930  0.08587  Biso   1.000  C
  C146     1.0000 0.77420  0.46070  0.08587  Biso   1.000  C
  C147     1.0000 0.22580  0.96070  0.91413  Biso   1.000  C
  C148     1.0000 0.77420  0.53930  0.91413  Biso   1.000  C
  C149     1.0000 0.21070  0.02420  0.66413  Biso   1.000  C
  C150     1.0000 0.28930  0.97580  0.16413  Biso   1.000  C
  C151     1.0000 0.28930  0.02420  0.83587  Biso   1.000  C
  C152     1.0000 0.21070  0.97580  0.33587  Biso   1.000  C
  C153     1.0000 0.72580  0.53930  0.58587  Biso   1.000  C
  C154     1.0000 0.27420  0.96070  0.58587  Biso   1.000  C
  C155     1.0000 0.72580  0.46070  0.41413  Biso   1.000  C
  C156     1.0000 0.27420  0.03930  0.41413  Biso   1.000  C
  C157     1.0000 0.71070  0.52420  0.16413  Biso   1.000  C
  C158     1.0000 0.78930  0.47580  0.66413  Biso   1.000  C
  C159     1.0000 0.78930  0.52420  0.33587  Biso   1.000  C
  C160     1.0000 0.71070  0.47580  0.83587  Biso   1.000  C
  C161     1.0000 0.79570  0.90650  0.92724  Biso   1.000  C
  C162     1.0000 0.20430  0.59350  0.92724  Biso   1.000  C
  C163     1.0000 0.79570  0.09350  0.07276  Biso   1.000  C
  C164     1.0000 0.20430  0.40650  0.07276  Biso   1.000  C
  C165     1.0000 0.34350  0.45430  0.82276  Biso   1.000  C
  C166     1.0000 0.15650  0.54570  0.32276  Biso   1.000  C
  C167     1.0000 0.15650  0.45430  0.67724  Biso   1.000  C
  C168     1.0000 0.34350  0.54570  0.17724  Biso   1.000  C
  C169     1.0000 0.29570  0.40650  0.42724  Biso   1.000  C
  C170     1.0000 0.70430  0.09350  0.42724  Biso   1.000  C
  C171     1.0000 0.29570  0.59350  0.57276  Biso   1.000  C
  C172     1.0000 0.70430  0.90650  0.57276  Biso   1.000  C
  C173     1.0000 0.84350  0.95430  0.32276  Biso   1.000  C
  C174     1.0000 0.65650  0.04570  0.82276  Biso   1.000  C
  C175     1.0000 0.65650  0.95430  0.17724  Biso   1.000  C
  C176     1.0000 0.84350  0.04570  0.67724  Biso   1.000  C
  C177     1.0000 0.20430  0.09350  0.07276  Biso   1.000  C
  C178     1.0000 0.79570  0.40650  0.07276  Biso   1.000  C
  C179     1.0000 0.20430  0.90650  0.92724  Biso   1.000  C
  C180     1.0000 0.79570  0.59350  0.92724  Biso   1.000  C
  C181     1.0000 0.15650  0.04570  0.67724  Biso   1.000  C
  C182     1.0000 0.34350  0.95430  0.17724  Biso   1.000  C
  C183     1.0000 0.34350  0.04570  0.82276  Biso   1.000  C
  C184     1.0000 0.15650  0.95430  0.32276  Biso   1.000  C
  C185     1.0000 0.70430  0.59350  0.57276  Biso   1.000  C
  C186     1.0000 0.29570  0.90650  0.57276  Biso   1.000  C
  C187     1.0000 0.70430  0.40650  0.42724  Biso   1.000  C
  C188     1.0000 0.29570  0.09350  0.42724  Biso   1.000  C
  C189     1.0000 0.65650  0.54570  0.17724  Biso   1.000  C
  C190     1.0000 0.84350  0.45430  0.67724  Biso   1.000  C
  C191     1.0000 0.84350  0.54570  0.32276  Biso   1.000  C
  C192     1.0000 0.65650  0.45430  0.82276  Biso   1.000  C
  H65      1.0000 0.78000  0.86400  0.92380  Biso   1.000  H
  H66      1.0000 0.22000  0.63600  0.92380  Biso   1.000  H
  H67      1.0000 0.78000  0.13600  0.07620  Biso   1.000  H
  H68      1.0000 0.22000  0.36400  0.07620  Biso   1.000  H
  H69      1.0000 0.38600  0.47000  0.82620  Biso   1.000  H
  H70      1.0000 0.11400  0.53000  0.32620  Biso   1.000  H
  H71      1.0000 0.11400  0.47000  0.67380  Biso   1.000  H
  H72      1.0000 0.38600  0.53000  0.17380  Biso   1.000  H
  H73      1.0000 0.28000  0.36400  0.42380  Biso   1.000  H
  H74      1.0000 0.72000  0.13600  0.42380  Biso   1.000  H
  H75      1.0000 0.28000  0.63600  0.57620  Biso   1.000  H
  H76      1.0000 0.72000  0.86400  0.57620  Biso   1.000  H
  H77      1.0000 0.88600  0.97000  0.32620  Biso   1.000  H
  H78      1.0000 0.61400  0.03000  0.82620  Biso   1.000  H
  H79      1.0000 0.61400  0.97000  0.17380  Biso   1.000  H
  H80      1.0000 0.88600  0.03000  0.67380  Biso   1.000  H
  H81      1.0000 0.22000  0.13600  0.07620  Biso   1.000  H
  H82      1.0000 0.78000  0.36400  0.07620  Biso   1.000  H
  H83      1.0000 0.22000  0.86400  0.92380  Biso   1.000  H
  H84      1.0000 0.78000  0.63600  0.92380  Biso   1.000  H
  H85      1.0000 0.11400  0.03000  0.67380  Biso   1.000  H
  H86      1.0000 0.38600  0.97000  0.17380  Biso   1.000  H
  H87      1.0000 0.38600  0.03000  0.82620  Biso   1.000  H
  H88      1.0000 0.11400  0.97000  0.32620  Biso   1.000  H
  H89      1.0000 0.72000  0.63600  0.57620  Biso   1.000  H
  H90      1.0000 0.28000  0.86400  0.57620  Biso   1.000  H
  H91      1.0000 0.72000  0.36400  0.42380  Biso   1.000  H
  H92      1.0000 0.28000  0.13600  0.42380  Biso   1.000  H
  H93      1.0000 0.61400  0.53000  0.17380  Biso   1.000  H
  H94      1.0000 0.88600  0.47000  0.67380  Biso   1.000  H
  H95      1.0000 0.88600  0.53000  0.32620  Biso   1.000  H
  H96      1.0000 0.61400  0.47000  0.82620  Biso   1.000  H
  C193     1.0000 0.83950  0.91420  0.94524  Biso   1.000  C
  C194     1.0000 0.16050  0.58580  0.94524  Biso   1.000  C
  C195     1.0000 0.83950  0.08580  0.05476  Biso   1.000  C
  C196     1.0000 0.16050  0.41420  0.05476  Biso   1.000  C
  C197     1.0000 0.33580  0.41050  0.80476  Biso   1.000  C
  C198     1.0000 0.16420  0.58950  0.30476  Biso   1.000  C
  C199     1.0000 0.16420  0.41050  0.69524  Biso   1.000  C
  C200     1.0000 0.33580  0.58950  0.19524  Biso   1.000  C
  C201     1.0000 0.33950  0.41420  0.44524  Biso   1.000  C
  C202     1.0000 0.66050  0.08580  0.44524  Biso   1.000  C
  C203     1.0000 0.33950  0.58580  0.55476  Biso   1.000  C
  C204     1.0000 0.66050  0.91420  0.55476  Biso   1.000  C
  C205     1.0000 0.83580  0.91050  0.30476  Biso   1.000  C
  C206     1.0000 0.66420  0.08950  0.80476  Biso   1.000  C
  C207     1.0000 0.66420  0.91050  0.19524  Biso   1.000  C
  C208     1.0000 0.83580  0.08950  0.69524  Biso   1.000  C
  C209     1.0000 0.16050  0.08580  0.05476  Biso   1.000  C
  C210     1.0000 0.83950  0.41420  0.05476  Biso   1.000  C
  C211     1.0000 0.16050  0.91420  0.94524  Biso   1.000  C
  C212     1.0000 0.83950  0.58580  0.94524  Biso   1.000  C
  C213     1.0000 0.16420  0.08950  0.69524  Biso   1.000  C
  C214     1.0000 0.33580  0.91050  0.19524  Biso   1.000  C
  C215     1.0000 0.33580  0.08950  0.80476  Biso   1.000  C
  C216     1.0000 0.16420  0.91050  0.30476  Biso   1.000  C
  C217     1.0000 0.66050  0.58580  0.55476  Biso   1.000  C
  C218     1.0000 0.33950  0.91420  0.55476  Biso   1.000  C
  C219     1.0000 0.66050  0.41420  0.44524  Biso   1.000  C
  C220     1.0000 0.33950  0.08580  0.44524  Biso   1.000  C
  C221     1.0000 0.66420  0.58950  0.19524  Biso   1.000  C
  C222     1.0000 0.83580  0.41050  0.69524  Biso   1.000  C
  C223     1.0000 0.83580  0.58950  0.30476  Biso   1.000  C
  C224     1.0000 0.66420  0.41050  0.80476  Biso   1.000  C
  H97      1.0000 0.85360  0.87720  0.95350  Biso   1.000  H
  H98      1.0000 0.14640  0.62280  0.95350  Biso   1.000  H
  H99      1.0000 0.85360  0.12280  0.04650  Biso   1.000  H
  H100     1.0000 0.14640  0.37720  0.04650  Biso   1.000  H
  H101     1.0000 0.37280  0.39640  0.79650  Biso   1.000  H
  H102     1.0000 0.12720  0.60360  0.29650  Biso   1.000  H
  H103     1.0000 0.12720  0.39640  0.70350  Biso   1.000  H
  H104     1.0000 0.37280  0.60360  0.20350  Biso   1.000  H
  H105     1.0000 0.35360  0.37720  0.45350  Biso   1.000  H
  H106     1.0000 0.64640  0.12280  0.45350  Biso   1.000  H
  H107     1.0000 0.35360  0.62280  0.54650  Biso   1.000  H
  H108     1.0000 0.64640  0.87720  0.54650  Biso   1.000  H
  H109     1.0000 0.87280  0.89640  0.29650  Biso   1.000  H
  H110     1.0000 0.62720  0.10360  0.79650  Biso   1.000  H
  H111     1.0000 0.62720  0.89640  0.20350  Biso   1.000  H
  H112     1.0000 0.87280  0.10360  0.70350  Biso   1.000  H
  H113     1.0000 0.14640  0.12280  0.04650  Biso   1.000  H
  H114     1.0000 0.85360  0.37720  0.04650  Biso   1.000  H
  H115     1.0000 0.14640  0.87720  0.95350  Biso   1.000  H
  H116     1.0000 0.85360  0.62280  0.95350  Biso   1.000  H
  H117     1.0000 0.12720  0.10360  0.70350  Biso   1.000  H
  H118     1.0000 0.37280  0.89640  0.20350  Biso   1.000  H
  H119     1.0000 0.37280  0.10360  0.79650  Biso   1.000  H
  H120     1.0000 0.12720  0.89640  0.29650  Biso   1.000  H
  H121     1.0000 0.64640  0.62280  0.54650  Biso   1.000  H
  H122     1.0000 0.35360  0.87720  0.54650  Biso   1.000  H
  H123     1.0000 0.64640  0.37720  0.45350  Biso   1.000  H
  H124     1.0000 0.35360  0.12280  0.45350  Biso   1.000  H
  H125     1.0000 0.62720  0.60360  0.20350  Biso   1.000  H
  H126     1.0000 0.87280  0.39640  0.70350  Biso   1.000  H
  H127     1.0000 0.87280  0.60360  0.29650  Biso   1.000  H
  H128     1.0000 0.62720  0.39640  0.79650  Biso   1.000  H
  C225     1.0000 0.73120  0.95090  0.89404  Biso   1.000  C
  C226     1.0000 0.26880  0.54910  0.89404  Biso   1.000  C
  C227     1.0000 0.73120  0.04910  0.10596  Biso   1.000  C
  C228     1.0000 0.26880  0.45090  0.10596  Biso   1.000  C
  C229     1.0000 0.29910  0.51880  0.85596  Biso   1.000  C
  C230     1.0000 0.20090  0.48120  0.35596  Biso   1.000  C
  C231     1.0000 0.20090  0.51880  0.64404  Biso   1.000  C
  C232     1.0000 0.29910  0.48120  0.14404  Biso   1.000  C
  C233     1.0000 0.23120  0.45090  0.39404  Biso   1.000  C
  C234     1.0000 0.76880  0.04910  0.39404  Biso   1.000  C
  C235     1.0000 0.23120  0.54910  0.60596  Biso   1.000  C
  C236     1.0000 0.76880  0.95090  0.60596  Biso   1.000  C
  C237     1.0000 0.79910  0.01880  0.35596  Biso   1.000  C
  C238     1.0000 0.70090  0.98120  0.85596  Biso   1.000  C
  C239     1.0000 0.70090  0.01880  0.14404  Biso   1.000  C
  C240     1.0000 0.79910  0.98120  0.64404  Biso   1.000  C
  C241     1.0000 0.26880  0.04910  0.10596  Biso   1.000  C
  C242     1.0000 0.73120  0.45090  0.10596  Biso   1.000  C
  C243     1.0000 0.26880  0.95090  0.89404  Biso   1.000  C
  C244     1.0000 0.73120  0.54910  0.89404  Biso   1.000  C
  C245     1.0000 0.20090  0.98120  0.64404  Biso   1.000  C
  C246     1.0000 0.29910  0.01880  0.14404  Biso   1.000  C
  C247     1.0000 0.29910  0.98120  0.85596  Biso   1.000  C
  C248     1.0000 0.20090  0.01880  0.35596  Biso   1.000  C
  C249     1.0000 0.76880  0.54910  0.60596  Biso   1.000  C
  C250     1.0000 0.23120  0.95090  0.60596  Biso   1.000  C
  C251     1.0000 0.76880  0.45090  0.39404  Biso   1.000  C
  C252     1.0000 0.23120  0.04910  0.39404  Biso   1.000  C
  C253     1.0000 0.70090  0.48120  0.14404  Biso   1.000  C
  C254     1.0000 0.79910  0.51880  0.64404  Biso   1.000  C
  C255     1.0000 0.79910  0.48120  0.35596  Biso   1.000  C
  C256     1.0000 0.70090  0.51880  0.85596  Biso   1.000  C
  C257     1.0000 0.73890  0.98890  0.87500  Biso   1.000  C
  C258     1.0000 0.26110  0.51110  0.87500  Biso   1.000  C
  C259     1.0000 0.73890  0.01110  0.12500  Biso   1.000  C
  C260     1.0000 0.26110  0.48890  0.12500  Biso   1.000  C
  C261     1.0000 0.23890  0.48890  0.37500  Biso   1.000  C
  C262     1.0000 0.23890  0.51110  0.62500  Biso   1.000  C
  C263     1.0000 0.76110  0.01110  0.37500  Biso   1.000  C
  C264     1.0000 0.76110  0.98890  0.62500  Biso   1.000  C
  C265     1.0000 0.26110  0.01110  0.12500  Biso   1.000  C
  C266     1.0000 0.73890  0.48890  0.12500  Biso   1.000  C
  C267     1.0000 0.26110  0.98890  0.87500  Biso   1.000  C
  C268     1.0000 0.73890  0.51110  0.87500  Biso   1.000  C
  C269     1.0000 0.23890  0.98890  0.62500  Biso   1.000  C
  C270     1.0000 0.23890  0.01110  0.37500  Biso   1.000  C
  C271     1.0000 0.76110  0.51110  0.62500  Biso   1.000  C
  C272     1.0000 0.76110  0.48890  0.37500  Biso   1.000  C
  H129     1.0000 0.77170  0.02170  0.87500  Biso   1.000  H
  H130     1.0000 0.22830  0.47830  0.87500  Biso   1.000  H
  H131     1.0000 0.77170  0.97830  0.12500  Biso   1.000  H
  H132     1.0000 0.22830  0.52170  0.12500  Biso   1.000  H
  H133     1.0000 0.27170  0.52170  0.37500  Biso   1.000  H
  H134     1.0000 0.27170  0.47830  0.62500  Biso   1.000  H
  H135     1.0000 0.72830  0.97830  0.37500  Biso   1.000  H
  H136     1.0000 0.72830  0.02170  0.62500  Biso   1.000  H
  H137     1.0000 0.22830  0.97830  0.12500  Biso   1.000  H
  H138     1.0000 0.77170  0.52170  0.12500  Biso   1.000  H
  H139     1.0000 0.22830  0.02170  0.87500  Biso   1.000  H
  H140     1.0000 0.77170  0.47830  0.87500  Biso   1.000  H
  H141     1.0000 0.27170  0.02170  0.62500  Biso   1.000  H
  H142     1.0000 0.27170  0.97830  0.37500  Biso   1.000  H
  H143     1.0000 0.72830  0.47830  0.62500  Biso   1.000  H
  H144     1.0000 0.72830  0.52170  0.37500  Biso   1.000  H
  C273     1.0000 0.68250  0.90360  0.89394  Biso   1.000  C
  C274     1.0000 0.31750  0.59640  0.89394  Biso   1.000  C
  C275     1.0000 0.68250  0.09640  0.10606  Biso   1.000  C
  C276     1.0000 0.31750  0.40360  0.10606  Biso   1.000  C
  C277     1.0000 0.34640  0.56750  0.85606  Biso   1.000  C
  C278     1.0000 0.15360  0.43250  0.35606  Biso   1.000  C
  C279     1.0000 0.15360  0.56750  0.64394  Biso   1.000  C
  C280     1.0000 0.34640  0.43250  0.14394  Biso   1.000  C
  C281     1.0000 0.18250  0.40360  0.39394  Biso   1.000  C
  C282     1.0000 0.81750  0.09640  0.39394  Biso   1.000  C
  C283     1.0000 0.18250  0.59640  0.60606  Biso   1.000  C
  C284     1.0000 0.81750  0.90360  0.60606  Biso   1.000  C
  C285     1.0000 0.84640  0.06750  0.35606  Biso   1.000  C
  C286     1.0000 0.65360  0.93250  0.85606  Biso   1.000  C
  C287     1.0000 0.65360  0.06750  0.14394  Biso   1.000  C
  C288     1.0000 0.84640  0.93250  0.64394  Biso   1.000  C
  C289     1.0000 0.31750  0.09640  0.10606  Biso   1.000  C
  C290     1.0000 0.68250  0.40360  0.10606  Biso   1.000  C
  C291     1.0000 0.31750  0.90360  0.89394  Biso   1.000  C
  C292     1.0000 0.68250  0.59640  0.89394  Biso   1.000  C
  C293     1.0000 0.15360  0.93250  0.64394  Biso   1.000  C
  C294     1.0000 0.34640  0.06750  0.14394  Biso   1.000  C
  C295     1.0000 0.34640  0.93250  0.85606  Biso   1.000  C
  C296     1.0000 0.15360  0.06750  0.35606  Biso   1.000  C
  C297     1.0000 0.81750  0.59640  0.60606  Biso   1.000  C
  C298     1.0000 0.18250  0.90360  0.60606  Biso   1.000  C
  C299     1.0000 0.81750  0.40360  0.39394  Biso   1.000  C
  C300     1.0000 0.18250  0.09640  0.39394  Biso   1.000  C
  C301     1.0000 0.65360  0.43250  0.14394  Biso   1.000  C
  C302     1.0000 0.84640  0.56750  0.64394  Biso   1.000  C
  C303     1.0000 0.84640  0.43250  0.35606  Biso   1.000  C
  C304     1.0000 0.65360  0.56750  0.85606  Biso   1.000  C
  H145     1.0000 0.67560  0.87770  0.90680  Biso   1.000  H
  H146     1.0000 0.32440  0.62230  0.90680  Biso   1.000  H
  H147     1.0000 0.67560  0.12230  0.09320  Biso   1.000  H
  H148     1.0000 0.32440  0.37770  0.09320  Biso   1.000  H
  H149     1.0000 0.37230  0.57440  0.84320  Biso   1.000  H
  H150     1.0000 0.12770  0.42560  0.34320  Biso   1.000  H
  H151     1.0000 0.12770  0.57440  0.65680  Biso   1.000  H
  H152     1.0000 0.37230  0.42560  0.15680  Biso   1.000  H
  H153     1.0000 0.17560  0.37770  0.40680  Biso   1.000  H
  H154     1.0000 0.82440  0.12230  0.40680  Biso   1.000  H
  H155     1.0000 0.17560  0.62230  0.59320  Biso   1.000  H
  H156     1.0000 0.82440  0.87770  0.59320  Biso   1.000  H
  H157     1.0000 0.87230  0.07440  0.34320  Biso   1.000  H
  H158     1.0000 0.62770  0.92560  0.84320  Biso   1.000  H
  H159     1.0000 0.62770  0.07440  0.15680  Biso   1.000  H
  H160     1.0000 0.87230  0.92560  0.65680  Biso   1.000  H
  H161     1.0000 0.32440  0.12230  0.09320  Biso   1.000  H
  H162     1.0000 0.67560  0.37770  0.09320  Biso   1.000  H
  H163     1.0000 0.32440  0.87770  0.90680  Biso   1.000  H
  H164     1.0000 0.67560  0.62230  0.90680  Biso   1.000  H
  H165     1.0000 0.12770  0.92560  0.65680  Biso   1.000  H
  H166     1.0000 0.37230  0.07440  0.15680  Biso   1.000  H
  H167     1.0000 0.37230  0.92560  0.84320  Biso   1.000  H
  H168     1.0000 0.12770  0.07440  0.34320  Biso   1.000  H
  H169     1.0000 0.82440  0.62230  0.59320  Biso   1.000  H
  H170     1.0000 0.17560  0.87770  0.59320  Biso   1.000  H
  H171     1.0000 0.82440  0.37770  0.40680  Biso   1.000  H
  H172     1.0000 0.17560  0.12230  0.40680  Biso   1.000  H
  H173     1.0000 0.62770  0.42560  0.15680  Biso   1.000  H
  H174     1.0000 0.87230  0.57440  0.65680  Biso   1.000  H
  H175     1.0000 0.87230  0.42560  0.34320  Biso   1.000  H
  H176     1.0000 0.62770  0.57440  0.84320  Biso   1.000  H
  C305     1.0000 0.64310  0.89310  0.87500  Biso   1.000  C
  C306     1.0000 0.35690  0.60690  0.87500  Biso   1.000  C
  C307     1.0000 0.64310  0.10690  0.12500  Biso   1.000  C
  C308     1.0000 0.35690  0.39310  0.12500  Biso   1.000  C
  C309     1.0000 0.14310  0.39310  0.37500  Biso   1.000  C
  C310     1.0000 0.14310  0.60690  0.62500  Biso   1.000  C
  C311     1.0000 0.85690  0.10690  0.37500  Biso   1.000  C
  C312     1.0000 0.85690  0.89310  0.62500  Biso   1.000  C
  C313     1.0000 0.35690  0.10690  0.12500  Biso   1.000  C
  C314     1.0000 0.64310  0.39310  0.12500  Biso   1.000  C
  C315     1.0000 0.35690  0.89310  0.87500  Biso   1.000  C
  C316     1.0000 0.64310  0.60690  0.87500  Biso   1.000  C
  C317     1.0000 0.14310  0.89310  0.62500  Biso   1.000  C
  C318     1.0000 0.14310  0.10690  0.37500  Biso   1.000  C
  C319     1.0000 0.85690  0.60690  0.62500  Biso   1.000  C
  C320     1.0000 0.85690  0.39310  0.37500  Biso   1.000  C
  C321     1.0000 0.58970  0.83970  0.87500  Biso   1.000  C
  C322     1.0000 0.41030  0.66030  0.87500  Biso   1.000  C
  C323     1.0000 0.58970  0.16030  0.12500  Biso   1.000  C
  C324     1.0000 0.41030  0.33970  0.12500  Biso   1.000  C
  C325     1.0000 0.08970  0.33970  0.37500  Biso   1.000  C
  C326     1.0000 0.08970  0.66030  0.62500  Biso   1.000  C
  C327     1.0000 0.91030  0.16030  0.37500  Biso   1.000  C
  C328     1.0000 0.91030  0.83970  0.62500  Biso   1.000  C
  C329     1.0000 0.41030  0.16030  0.12500  Biso   1.000  C
  C330     1.0000 0.58970  0.33970  0.12500  Biso   1.000  C
  C331     1.0000 0.41030  0.83970  0.87500  Biso   1.000  C
  C332     1.0000 0.58970  0.66030  0.87500  Biso   1.000  C
  C333     1.0000 0.08970  0.83970  0.62500  Biso   1.000  C
  C334     1.0000 0.08970  0.16030  0.37500  Biso   1.000  C
  C335     1.0000 0.91030  0.66030  0.62500  Biso   1.000  C
  C336     1.0000 0.91030  0.33970  0.37500  Biso   1.000  C
  H177     1.0000 0.52610  0.77600  0.94050  Biso   1.000  H
  H178     1.0000 0.47390  0.72400  0.94050  Biso   1.000  H
  H179     1.0000 0.52610  0.22400  0.05950  Biso   1.000  H
  H180     1.0000 0.47390  0.27600  0.05950  Biso   1.000  H
  H181     1.0000 0.47400  0.72390  0.80950  Biso   1.000  H
  H182     1.0000 0.02600  0.27610  0.30950  Biso   1.000  H
  H183     1.0000 0.02600  0.72390  0.69050  Biso   1.000  H
  H184     1.0000 0.47400  0.27610  0.19050  Biso   1.000  H
  H185     1.0000 0.02610  0.27600  0.44050  Biso   1.000  H
  H186     1.0000 0.97390  0.22400  0.44050  Biso   1.000  H
  H187     1.0000 0.02610  0.72400  0.55950  Biso   1.000  H
  H188     1.0000 0.97390  0.77600  0.55950  Biso   1.000  H
  H189     1.0000 0.97400  0.22390  0.30950  Biso   1.000  H
  H190     1.0000 0.52600  0.77610  0.80950  Biso   1.000  H
  H191     1.0000 0.52600  0.22390  0.19050  Biso   1.000  H
  H192     1.0000 0.97400  0.77610  0.69050  Biso   1.000  H
  H193     1.0000 0.47390  0.22400  0.05950  Biso   1.000  H
  H194     1.0000 0.52610  0.27600  0.05950  Biso   1.000  H
  H195     1.0000 0.47390  0.77600  0.94050  Biso   1.000  H
  H196     1.0000 0.52610  0.72400  0.94050  Biso   1.000  H
  H197     1.0000 0.02600  0.77610  0.69050  Biso   1.000  H
  H198     1.0000 0.47400  0.22390  0.19050  Biso   1.000  H
  H199     1.0000 0.47400  0.77610  0.80950  Biso   1.000  H
  H200     1.0000 0.02600  0.22390  0.30950  Biso   1.000  H
  H201     1.0000 0.97390  0.72400  0.55950  Biso   1.000  H
  H202     1.0000 0.02610  0.77600  0.55950  Biso   1.000  H
  H203     1.0000 0.97390  0.27600  0.44050  Biso   1.000  H
  H204     1.0000 0.02610  0.22400  0.44050  Biso   1.000  H
  H205     1.0000 0.52600  0.27610  0.19050  Biso   1.000  H
  H206     1.0000 0.97400  0.72390  0.69050  Biso   1.000  H
  H207     1.0000 0.97400  0.27610  0.30950  Biso   1.000  H
  H208     1.0000 0.52600  0.72390  0.80950  Biso   1.000  H
  H209     1.0000 0.02600  0.81590  0.01990  Biso   1.000  H
  H210     1.0000 0.97400  0.68410  0.01990  Biso   1.000  H
  H211     1.0000 0.02600  0.18410  0.98010  Biso   1.000  H
  H212     1.0000 0.97400  0.31590  0.98010  Biso   1.000  H
  H213     1.0000 0.43410  0.22400  0.73010  Biso   1.000  H
  H214     1.0000 0.06590  0.77600  0.23010  Biso   1.000  H
  H215     1.0000 0.06590  0.22400  0.76990  Biso   1.000  H
  H216     1.0000 0.43410  0.77600  0.26990  Biso   1.000  H
  H217     1.0000 0.52600  0.31590  0.51990  Biso   1.000  H
  H218     1.0000 0.47400  0.18410  0.51990  Biso   1.000  H
  H219     1.0000 0.52600  0.68410  0.48010  Biso   1.000  H
  H220     1.0000 0.47400  0.81590  0.48010  Biso   1.000  H
  H221     1.0000 0.93410  0.72400  0.23010  Biso   1.000  H
  H222     1.0000 0.56590  0.27600  0.73010  Biso   1.000  H
  H223     1.0000 0.56590  0.72400  0.26990  Biso   1.000  H
  H224     1.0000 0.93410  0.27600  0.76990  Biso   1.000  H
  H225     1.0000 0.97400  0.18410  0.98010  Biso   1.000  H
  H226     1.0000 0.02600  0.31590  0.98010  Biso   1.000  H
  H227     1.0000 0.97400  0.81590  0.01990  Biso   1.000  H
  H228     1.0000 0.02600  0.68410  0.01990  Biso   1.000  H
  H229     1.0000 0.06590  0.27600  0.76990  Biso   1.000  H
  H230     1.0000 0.43410  0.72400  0.26990  Biso   1.000  H
  H231     1.0000 0.43410  0.27600  0.73010  Biso   1.000  H
  H232     1.0000 0.06590  0.72400  0.23010  Biso   1.000  H
  H233     1.0000 0.47400  0.68410  0.48010  Biso   1.000  H
  H234     1.0000 0.52600  0.81590  0.48010  Biso   1.000  H
  H235     1.0000 0.47400  0.31590  0.51990  Biso   1.000  H
  H236     1.0000 0.52600  0.18410  0.51990  Biso   1.000  H
  H237     1.0000 0.56590  0.77600  0.26990  Biso   1.000  H
  H238     1.0000 0.93410  0.22400  0.76990  Biso   1.000  H
  H239     1.0000 0.93410  0.77600  0.23010  Biso   1.000  H
  H240     1.0000 0.56590  0.22400  0.73010  Biso   1.000  H
  H241     1.0000 0.97400  0.80630  0.00250  Biso   1.000  H
  H242     1.0000 0.02600  0.69370  0.00250  Biso   1.000  H
  H243     1.0000 0.97400  0.19370  0.99750  Biso   1.000  H
  H244     1.0000 0.02600  0.30630  0.99750  Biso   1.000  H
  H245     1.0000 0.44370  0.27600  0.74750  Biso   1.000  H
  H246     1.0000 0.05630  0.72400  0.24750  Biso   1.000  H
  H247     1.0000 0.05630  0.27600  0.75250  Biso   1.000  H
  H248     1.0000 0.44370  0.72400  0.25250  Biso   1.000  H
  H249     1.0000 0.47400  0.30630  0.50250  Biso   1.000  H
  H250     1.0000 0.52600  0.19370  0.50250  Biso   1.000  H
  H251     1.0000 0.47400  0.69370  0.49750  Biso   1.000  H
  H252     1.0000 0.52600  0.80630  0.49750  Biso   1.000  H
  H253     1.0000 0.94370  0.77600  0.24750  Biso   1.000  H
  H254     1.0000 0.55630  0.22400  0.74750  Biso   1.000  H
  H255     1.0000 0.55630  0.77600  0.25250  Biso   1.000  H
  H256     1.0000 0.94370  0.22400  0.75250  Biso   1.000  H
  H257     1.0000 0.02600  0.19370  0.99750  Biso   1.000  H
  H258     1.0000 0.97400  0.30630  0.99750  Biso   1.000  H
  H259     1.0000 0.02600  0.80630  0.00250  Biso   1.000  H
  H260     1.0000 0.97400  0.69370  0.00250  Biso   1.000  H
  H261     1.0000 0.05630  0.22400  0.75250  Biso   1.000  H
  H262     1.0000 0.44370  0.77600  0.25250  Biso   1.000  H
  H263     1.0000 0.44370  0.22400  0.74750  Biso   1.000  H
  H264     1.0000 0.05630  0.77600  0.24750  Biso   1.000  H
  H265     1.0000 0.52600  0.69370  0.49750  Biso   1.000  H
  H266     1.0000 0.47400  0.80630  0.49750  Biso   1.000  H
  H267     1.0000 0.52600  0.30630  0.50250  Biso   1.000  H
  H268     1.0000 0.47400  0.19370  0.50250  Biso   1.000  H
  H269     1.0000 0.55630  0.72400  0.25250  Biso   1.000  H
  H270     1.0000 0.94370  0.27600  0.75250  Biso   1.000  H
  H271     1.0000 0.94370  0.72400  0.24750  Biso   1.000  H
  H272     1.0000 0.55630  0.27600  0.74750  Biso   1.000  H
