data_image0
_cell_length_a       18.4455
_cell_length_b       18.4455
_cell_length_c       26.4268
_cell_angle_alpha    90
_cell_angle_beta     90
_cell_angle_gamma    120

_symmetry_space_group_name_H-M    "P 1"
_symmetry_int_tables_number       1

loop_
  _symmetry_equiv_pos_as_xyz
  'x, y, z'

loop_
  _atom_site_label
  _atom_site_occupancy
  _atom_site_fract_x
  _atom_site_fract_y
  _atom_site_fract_z
  _atom_site_thermal_displace_type
  _atom_site_B_iso_or_equiv
  _atom_site_type_symbol
  Cu1      1.0000 0.52397  0.47603  0.95869  Biso   1.000  Cu
  Cu2      1.0000 0.04794  0.52397  0.45869  Biso   1.000  Cu
  Cu3      1.0000 0.52397  0.04794  0.95869  Biso   1.000  Cu
  Cu4      1.0000 0.47603  0.52397  0.45869  Biso   1.000  Cu
  Cu5      1.0000 0.95206  0.47603  0.95869  Biso   1.000  Cu
  Cu6      1.0000 0.47603  0.95206  0.45869  Biso   1.000  Cu
  Cu7      1.0000 0.52397  0.47603  0.54131  Biso   1.000  Cu
  Cu8      1.0000 0.04794  0.52397  0.04131  Biso   1.000  Cu
  Cu9      1.0000 0.52397  0.04794  0.54131  Biso   1.000  Cu
  Cu10     1.0000 0.47603  0.52397  0.04131  Biso   1.000  Cu
  Cu11     1.0000 0.95206  0.47603  0.54131  Biso   1.000  Cu
  Cu12     1.0000 0.47603  0.95206  0.04131  Biso   1.000  Cu
  O1       1.0000 0.62820  0.51850  0.99540  Biso   1.000  O
  O2       1.0000 0.10970  0.62820  0.49540  Biso   1.000  O
  O3       1.0000 0.48150  0.10970  0.99540  Biso   1.000  O
  O4       1.0000 0.37180  0.48150  0.49540  Biso   1.000  O
  O5       1.0000 0.89030  0.37180  0.99540  Biso   1.000  O
  O6       1.0000 0.51850  0.89030  0.49540  Biso   1.000  O
  O7       1.0000 0.48150  0.37180  0.50460  Biso   1.000  O
  O8       1.0000 0.10970  0.48150  0.00460  Biso   1.000  O
  O9       1.0000 0.62820  0.10970  0.50460  Biso   1.000  O
  O10      1.0000 0.51850  0.62820  0.00460  Biso   1.000  O
  O11      1.0000 0.89030  0.51850  0.50460  Biso   1.000  O
  O12      1.0000 0.37180  0.89030  0.00460  Biso   1.000  O
  O13      1.0000 0.37180  0.48150  0.00460  Biso   1.000  O
  O14      1.0000 0.89030  0.37180  0.50460  Biso   1.000  O
  O15      1.0000 0.51850  0.89030  0.00460  Biso   1.000  O
  O16      1.0000 0.62820  0.51850  0.50460  Biso   1.000  O
  O17      1.0000 0.10970  0.62820  0.00460  Biso   1.000  O
  O18      1.0000 0.48150  0.10970  0.50460  Biso   1.000  O
  O19      1.0000 0.51850  0.62820  0.49540  Biso   1.000  O
  O20      1.0000 0.89030  0.51850  0.99540  Biso   1.000  O
  O21      1.0000 0.37180  0.89030  0.49540  Biso   1.000  O
  O22      1.0000 0.48150  0.37180  0.99540  Biso   1.000  O
  O23      1.0000 0.10970  0.48150  0.49540  Biso   1.000  O
  O24      1.0000 0.62820  0.10970  0.99540  Biso   1.000  O
  O25      1.0000 0.59180  0.56410  0.06410  Biso   1.000  O
  O26      1.0000 0.02770  0.59180  0.56410  Biso   1.000  O
  O27      1.0000 0.43590  0.02770  0.06410  Biso   1.000  O
  O28      1.0000 0.40820  0.43590  0.56410  Biso   1.000  O
  O29      1.0000 0.97230  0.40820  0.06410  Biso   1.000  O
  O30      1.0000 0.56410  0.97230  0.56410  Biso   1.000  O
  O31      1.0000 0.43590  0.40820  0.43590  Biso   1.000  O
  O32      1.0000 0.02770  0.43590  0.93590  Biso   1.000  O
  O33      1.0000 0.59180  0.02770  0.43590  Biso   1.000  O
  O34      1.0000 0.56410  0.59180  0.93590  Biso   1.000  O
  O35      1.0000 0.97230  0.56410  0.43590  Biso   1.000  O
  O36      1.0000 0.40820  0.97230  0.93590  Biso   1.000  O
  O37      1.0000 0.40820  0.43590  0.93590  Biso   1.000  O
  O38      1.0000 0.97230  0.40820  0.43590  Biso   1.000  O
  O39      1.0000 0.56410  0.97230  0.93590  Biso   1.000  O
  O40      1.0000 0.59180  0.56410  0.43590  Biso   1.000  O
  O41      1.0000 0.02770  0.59180  0.93590  Biso   1.000  O
  O42      1.0000 0.43590  0.02770  0.43590  Biso   1.000  O
  O43      1.0000 0.56410  0.59180  0.56410  Biso   1.000  O
  O44      1.0000 0.97230  0.56410  0.06410  Biso   1.000  O
  O45      1.0000 0.40820  0.97230  0.56410  Biso   1.000  O
  O46      1.0000 0.43590  0.40820  0.06410  Biso   1.000  O
  O47      1.0000 0.02770  0.43590  0.56410  Biso   1.000  O
  O48      1.0000 0.59180  0.02770  0.06410  Biso   1.000  O
  O49      1.0000 0.96200  0.84100  0.39990  Biso   1.000  O
  O50      1.0000 0.12100  0.96200  0.89990  Biso   1.000  O
  O51      1.0000 0.15900  0.12100  0.39990  Biso   1.000  O
  O52      1.0000 0.03800  0.15900  0.89990  Biso   1.000  O
  O53      1.0000 0.87900  0.03800  0.39990  Biso   1.000  O
  O54      1.0000 0.84100  0.87900  0.89990  Biso   1.000  O
  O55      1.0000 0.15900  0.03800  0.10010  Biso   1.000  O
  O56      1.0000 0.12100  0.15900  0.60010  Biso   1.000  O
  O57      1.0000 0.96200  0.12100  0.10010  Biso   1.000  O
  O58      1.0000 0.84100  0.96200  0.60010  Biso   1.000  O
  O59      1.0000 0.87900  0.84100  0.10010  Biso   1.000  O
  O60      1.0000 0.03800  0.87900  0.60010  Biso   1.000  O
  O61      1.0000 0.03800  0.15900  0.60010  Biso   1.000  O
  O62      1.0000 0.87900  0.03800  0.10010  Biso   1.000  O
  O63      1.0000 0.84100  0.87900  0.60010  Biso   1.000  O
  O64      1.0000 0.96200  0.84100  0.10010  Biso   1.000  O
  O65      1.0000 0.12100  0.96200  0.60010  Biso   1.000  O
  O66      1.0000 0.15900  0.12100  0.10010  Biso   1.000  O
  O67      1.0000 0.84100  0.96200  0.89990  Biso   1.000  O
  O68      1.0000 0.87900  0.84100  0.39990  Biso   1.000  O
  O69      1.0000 0.03800  0.87900  0.89990  Biso   1.000  O
  O70      1.0000 0.15900  0.03800  0.39990  Biso   1.000  O
  O71      1.0000 0.12100  0.15900  0.89990  Biso   1.000  O
  O72      1.0000 0.96200  0.12100  0.39990  Biso   1.000  O
  O73      1.0000 0.56190  0.43810  0.89070  Biso   1.000  O
  O74      1.0000 0.12380  0.56190  0.39070  Biso   1.000  O
  O75      1.0000 0.56190  0.12380  0.89070  Biso   1.000  O
  O76      1.0000 0.43810  0.56190  0.39070  Biso   1.000  O
  O77      1.0000 0.87620  0.43810  0.89070  Biso   1.000  O
  O78      1.0000 0.43810  0.87620  0.39070  Biso   1.000  O
  O79      1.0000 0.56190  0.43810  0.60930  Biso   1.000  O
  O80      1.0000 0.12380  0.56190  0.10930  Biso   1.000  O
  O81      1.0000 0.56190  0.12380  0.60930  Biso   1.000  O
  O82      1.0000 0.43810  0.56190  0.10930  Biso   1.000  O
  O83      1.0000 0.87620  0.43810  0.60930  Biso   1.000  O
  O84      1.0000 0.43810  0.87620  0.10930  Biso   1.000  O
  C1       1.0000 0.63930  0.54930  0.03810  Biso   1.000  C
  C2       1.0000 0.09000  0.63930  0.53810  Biso   1.000  C
  C3       1.0000 0.45070  0.09000  0.03810  Biso   1.000  C
  C4       1.0000 0.36070  0.45070  0.53810  Biso   1.000  C
  C5       1.0000 0.91000  0.36070  0.03810  Biso   1.000  C
  C6       1.0000 0.54930  0.91000  0.53810  Biso   1.000  C
  C7       1.0000 0.45070  0.36070  0.46190  Biso   1.000  C
  C8       1.0000 0.09000  0.45070  0.96190  Biso   1.000  C
  C9       1.0000 0.63930  0.09000  0.46190  Biso   1.000  C
  C10      1.0000 0.54930  0.63930  0.96190  Biso   1.000  C
  C11      1.0000 0.91000  0.54930  0.46190  Biso   1.000  C
  C12      1.0000 0.36070  0.91000  0.96190  Biso   1.000  C
  C13      1.0000 0.36070  0.45070  0.96190  Biso   1.000  C
  C14      1.0000 0.91000  0.36070  0.46190  Biso   1.000  C
  C15      1.0000 0.54930  0.91000  0.96190  Biso   1.000  C
  C16      1.0000 0.63930  0.54930  0.46190  Biso   1.000  C
  C17      1.0000 0.09000  0.63930  0.96190  Biso   1.000  C
  C18      1.0000 0.45070  0.09000  0.46190  Biso   1.000  C
  C19      1.0000 0.54930  0.63930  0.53810  Biso   1.000  C
  C20      1.0000 0.91000  0.54930  0.03810  Biso   1.000  C
  C21      1.0000 0.36070  0.91000  0.53810  Biso   1.000  C
  C22      1.0000 0.45070  0.36070  0.03810  Biso   1.000  C
  C23      1.0000 0.09000  0.45070  0.53810  Biso   1.000  C
  C24      1.0000 0.63930  0.09000  0.03810  Biso   1.000  C
  C25      1.0000 0.71820  0.57090  0.06170  Biso   1.000  C
  C26      1.0000 0.14730  0.71820  0.56170  Biso   1.000  C
  C27      1.0000 0.42910  0.14730  0.06170  Biso   1.000  C
  C28      1.0000 0.28180  0.42910  0.56170  Biso   1.000  C
  C29      1.0000 0.85270  0.28180  0.06170  Biso   1.000  C
  C30      1.0000 0.57090  0.85270  0.56170  Biso   1.000  C
  C31      1.0000 0.42910  0.28180  0.43830  Biso   1.000  C
  C32      1.0000 0.14730  0.42910  0.93830  Biso   1.000  C
  C33      1.0000 0.71820  0.14730  0.43830  Biso   1.000  C
  C34      1.0000 0.57090  0.71820  0.93830  Biso   1.000  C
  C35      1.0000 0.85270  0.57090  0.43830  Biso   1.000  C
  C36      1.0000 0.28180  0.85270  0.93830  Biso   1.000  C
  C37      1.0000 0.28180  0.42910  0.93830  Biso   1.000  C
  C38      1.0000 0.85270  0.28180  0.43830  Biso   1.000  C
  C39      1.0000 0.57090  0.85270  0.93830  Biso   1.000  C
  C40      1.0000 0.71820  0.57090  0.43830  Biso   1.000  C
  C41      1.0000 0.14730  0.71820  0.93830  Biso   1.000  C
  C42      1.0000 0.42910  0.14730  0.43830  Biso   1.000  C
  C43      1.0000 0.57090  0.71820  0.56170  Biso   1.000  C
  C44      1.0000 0.85270  0.57090  0.06170  Biso   1.000  C
  C45      1.0000 0.28180  0.85270  0.56170  Biso   1.000  C
  C46      1.0000 0.42910  0.28180  0.06170  Biso   1.000  C
  C47      1.0000 0.14730  0.42910  0.56170  Biso   1.000  C
  C48      1.0000 0.71820  0.14730  0.06170  Biso   1.000  C
  C49      1.0000 0.77890  0.55790  0.04020  Biso   1.000  C
  C50      1.0000 0.22100  0.77890  0.54020  Biso   1.000  C
  C51      1.0000 0.44210  0.22100  0.04020  Biso   1.000  C
  C52      1.0000 0.22110  0.44210  0.54020  Biso   1.000  C
  C53      1.0000 0.77900  0.22110  0.04020  Biso   1.000  C
  C54      1.0000 0.55790  0.77900  0.54020  Biso   1.000  C
  C55      1.0000 0.44210  0.22110  0.45980  Biso   1.000  C
  C56      1.0000 0.22100  0.44210  0.95980  Biso   1.000  C
  C57      1.0000 0.77890  0.22100  0.45980  Biso   1.000  C
  C58      1.0000 0.55790  0.77890  0.95980  Biso   1.000  C
  C59      1.0000 0.77900  0.55790  0.45980  Biso   1.000  C
  C60      1.0000 0.22110  0.77900  0.95980  Biso   1.000  C
  C61      1.0000 0.74240  0.61610  0.10890  Biso   1.000  C
  C62      1.0000 0.12630  0.74240  0.60890  Biso   1.000  C
  C63      1.0000 0.38390  0.12630  0.10890  Biso   1.000  C
  C64      1.0000 0.25760  0.38390  0.60890  Biso   1.000  C
  C65      1.0000 0.87370  0.25760  0.10890  Biso   1.000  C
  C66      1.0000 0.61610  0.87370  0.60890  Biso   1.000  C
  C67      1.0000 0.38390  0.25760  0.39110  Biso   1.000  C
  C68      1.0000 0.12630  0.38390  0.89110  Biso   1.000  C
  C69      1.0000 0.74240  0.12630  0.39110  Biso   1.000  C
  C70      1.0000 0.61610  0.74240  0.89110  Biso   1.000  C
  C71      1.0000 0.87370  0.61610  0.39110  Biso   1.000  C
  C72      1.0000 0.25760  0.87370  0.89110  Biso   1.000  C
  C73      1.0000 0.25760  0.38390  0.89110  Biso   1.000  C
  C74      1.0000 0.87370  0.25760  0.39110  Biso   1.000  C
  C75      1.0000 0.61610  0.87370  0.89110  Biso   1.000  C
  C76      1.0000 0.74240  0.61610  0.39110  Biso   1.000  C
  C77      1.0000 0.12630  0.74240  0.89110  Biso   1.000  C
  C78      1.0000 0.38390  0.12630  0.39110  Biso   1.000  C
  C79      1.0000 0.61610  0.74240  0.60890  Biso   1.000  C
  C80      1.0000 0.87370  0.61610  0.10890  Biso   1.000  C
  C81      1.0000 0.25760  0.87370  0.60890  Biso   1.000  C
  C82      1.0000 0.38390  0.25760  0.10890  Biso   1.000  C
  C83      1.0000 0.12630  0.38390  0.60890  Biso   1.000  C
  C84      1.0000 0.74240  0.12630  0.10890  Biso   1.000  C
  C85      1.0000 0.80520  0.61040  0.13510  Biso   1.000  C
  C86      1.0000 0.19480  0.80520  0.63510  Biso   1.000  C
  C87      1.0000 0.38960  0.19480  0.13510  Biso   1.000  C
  C88      1.0000 0.19480  0.38960  0.63510  Biso   1.000  C
  C89      1.0000 0.80520  0.19480  0.13510  Biso   1.000  C
  C90      1.0000 0.61040  0.80520  0.63510  Biso   1.000  C
  C91      1.0000 0.38960  0.19480  0.36490  Biso   1.000  C
  C92      1.0000 0.19480  0.38960  0.86490  Biso   1.000  C
  C93      1.0000 0.80520  0.19480  0.36490  Biso   1.000  C
  C94      1.0000 0.61040  0.80520  0.86490  Biso   1.000  C
  C95      1.0000 0.80520  0.61040  0.36490  Biso   1.000  C
  C96      1.0000 0.19480  0.80520  0.86490  Biso   1.000  C
  C97      1.0000 0.81380  0.63980  0.18890  Biso   1.000  C
  C98      1.0000 0.17400  0.81380  0.68890  Biso   1.000  C
  C99      1.0000 0.36020  0.17400  0.18890  Biso   1.000  C
  C100     1.0000 0.18620  0.36020  0.68890  Biso   1.000  C
  C101     1.0000 0.82600  0.18620  0.18890  Biso   1.000  C
  C102     1.0000 0.63980  0.82600  0.68890  Biso   1.000  C
  C103     1.0000 0.36020  0.18620  0.31110  Biso   1.000  C
  C104     1.0000 0.17400  0.36020  0.81110  Biso   1.000  C
  C105     1.0000 0.81380  0.17400  0.31110  Biso   1.000  C
  C106     1.0000 0.63980  0.81380  0.81110  Biso   1.000  C
  C107     1.0000 0.82600  0.63980  0.31110  Biso   1.000  C
  C108     1.0000 0.18620  0.82600  0.81110  Biso   1.000  C
  C109     1.0000 0.18620  0.36020  0.81110  Biso   1.000  C
  C110     1.0000 0.82600  0.18620  0.31110  Biso   1.000  C
  C111     1.0000 0.63980  0.82600  0.81110  Biso   1.000  C
  C112     1.0000 0.81380  0.63980  0.31110  Biso   1.000  C
  C113     1.0000 0.17400  0.81380  0.81110  Biso   1.000  C
  C114     1.0000 0.36020  0.17400  0.31110  Biso   1.000  C
  C115     1.0000 0.63980  0.81380  0.68890  Biso   1.000  C
  C116     1.0000 0.82600  0.63980  0.18890  Biso   1.000  C
  C117     1.0000 0.18620  0.82600  0.68890  Biso   1.000  C
  C118     1.0000 0.36020  0.18620  0.18890  Biso   1.000  C
  C119     1.0000 0.17400  0.36020  0.68890  Biso   1.000  C
  C120     1.0000 0.81380  0.17400  0.18890  Biso   1.000  C
  C121     1.0000 0.86980  0.75180  0.19870  Biso   1.000  C
  C122     1.0000 0.11800  0.86980  0.69870  Biso   1.000  C
  C123     1.0000 0.24820  0.11800  0.19870  Biso   1.000  C
  C124     1.0000 0.13020  0.24820  0.69870  Biso   1.000  C
  C125     1.0000 0.88200  0.13020  0.19870  Biso   1.000  C
  C126     1.0000 0.75180  0.88200  0.69870  Biso   1.000  C
  C127     1.0000 0.24820  0.13020  0.30130  Biso   1.000  C
  C128     1.0000 0.11800  0.24820  0.80130  Biso   1.000  C
  C129     1.0000 0.86980  0.11800  0.30130  Biso   1.000  C
  C130     1.0000 0.75180  0.86980  0.80130  Biso   1.000  C
  C131     1.0000 0.88200  0.75180  0.30130  Biso   1.000  C
  C132     1.0000 0.13020  0.88200  0.80130  Biso   1.000  C
  C133     1.0000 0.13020  0.24820  0.80130  Biso   1.000  C
  C134     1.0000 0.88200  0.13020  0.30130  Biso   1.000  C
  C135     1.0000 0.75180  0.88200  0.80130  Biso   1.000  C
  C136     1.0000 0.86980  0.75180  0.30130  Biso   1.000  C
  C137     1.0000 0.11800  0.86980  0.80130  Biso   1.000  C
  C138     1.0000 0.24820  0.11800  0.30130  Biso   1.000  C
  C139     1.0000 0.75180  0.86980  0.69870  Biso   1.000  C
  C140     1.0000 0.88200  0.75180  0.19870  Biso   1.000  C
  C141     1.0000 0.13020  0.88200  0.69870  Biso   1.000  C
  C142     1.0000 0.24820  0.13020  0.19870  Biso   1.000  C
  C143     1.0000 0.11800  0.24820  0.69870  Biso   1.000  C
  C144     1.0000 0.86980  0.11800  0.19870  Biso   1.000  C
  C145     1.0000 0.88990  0.76710  0.24990  Biso   1.000  C
  C146     1.0000 0.12280  0.88990  0.74990  Biso   1.000  C
  C147     1.0000 0.23290  0.12280  0.24990  Biso   1.000  C
  C148     1.0000 0.11010  0.23290  0.74990  Biso   1.000  C
  C149     1.0000 0.87720  0.11010  0.24990  Biso   1.000  C
  C150     1.0000 0.76710  0.87720  0.74990  Biso   1.000  C
  C151     1.0000 0.23290  0.11010  0.25010  Biso   1.000  C
  C152     1.0000 0.12280  0.23290  0.75010  Biso   1.000  C
  C153     1.0000 0.88990  0.12280  0.25010  Biso   1.000  C
  C154     1.0000 0.76710  0.88990  0.75010  Biso   1.000  C
  C155     1.0000 0.87720  0.76710  0.25010  Biso   1.000  C
  C156     1.0000 0.11010  0.87720  0.75010  Biso   1.000  C
  C157     1.0000 0.94740  0.85170  0.26060  Biso   1.000  C
  C158     1.0000 0.09570  0.94740  0.76060  Biso   1.000  C
  C159     1.0000 0.14830  0.09570  0.26060  Biso   1.000  C
  C160     1.0000 0.05260  0.14830  0.76060  Biso   1.000  C
  C161     1.0000 0.90430  0.05260  0.26060  Biso   1.000  C
  C162     1.0000 0.85170  0.90430  0.76060  Biso   1.000  C
  C163     1.0000 0.14830  0.05260  0.23940  Biso   1.000  C
  C164     1.0000 0.09570  0.14830  0.73940  Biso   1.000  C
  C165     1.0000 0.94740  0.09570  0.23940  Biso   1.000  C
  C166     1.0000 0.85170  0.94740  0.73940  Biso   1.000  C
  C167     1.0000 0.90430  0.85170  0.23940  Biso   1.000  C
  C168     1.0000 0.05260  0.90430  0.73940  Biso   1.000  C
  C169     1.0000 0.05260  0.14830  0.73940  Biso   1.000  C
  C170     1.0000 0.90430  0.05260  0.23940  Biso   1.000  C
  C171     1.0000 0.85170  0.90430  0.73940  Biso   1.000  C
  C172     1.0000 0.94740  0.85170  0.23940  Biso   1.000  C
  C173     1.0000 0.09570  0.94740  0.73940  Biso   1.000  C
  C174     1.0000 0.14830  0.09570  0.23940  Biso   1.000  C
  C175     1.0000 0.85170  0.94740  0.76060  Biso   1.000  C
  C176     1.0000 0.90430  0.85170  0.26060  Biso   1.000  C
  C177     1.0000 0.05260  0.90430  0.76060  Biso   1.000  C
  C178     1.0000 0.14830  0.05260  0.26060  Biso   1.000  C
  C179     1.0000 0.09570  0.14830  0.76060  Biso   1.000  C
  C180     1.0000 0.94740  0.09570  0.26060  Biso   1.000  C
  C181     1.0000 0.96550  0.87870  0.30990  Biso   1.000  C
  C182     1.0000 0.08680  0.96550  0.80990  Biso   1.000  C
  C183     1.0000 0.12130  0.08680  0.30990  Biso   1.000  C
  C184     1.0000 0.03450  0.12130  0.80990  Biso   1.000  C
  C185     1.0000 0.91320  0.03450  0.30990  Biso   1.000  C
  C186     1.0000 0.87870  0.91320  0.80990  Biso   1.000  C
  C187     1.0000 0.12130  0.03450  0.19010  Biso   1.000  C
  C188     1.0000 0.08680  0.12130  0.69010  Biso   1.000  C
  C189     1.0000 0.96550  0.08680  0.19010  Biso   1.000  C
  C190     1.0000 0.87870  0.96550  0.69010  Biso   1.000  C
  C191     1.0000 0.91320  0.87870  0.19010  Biso   1.000  C
  C192     1.0000 0.03450  0.91320  0.69010  Biso   1.000  C
  C193     1.0000 0.03450  0.12130  0.69010  Biso   1.000  C
  C194     1.0000 0.91320  0.03450  0.19010  Biso   1.000  C
  C195     1.0000 0.87870  0.91320  0.69010  Biso   1.000  C
  C196     1.0000 0.96550  0.87870  0.19010  Biso   1.000  C
  C197     1.0000 0.08680  0.96550  0.69010  Biso   1.000  C
  C198     1.0000 0.12130  0.08680  0.19010  Biso   1.000  C
  C199     1.0000 0.87870  0.96550  0.80990  Biso   1.000  C
  C200     1.0000 0.91320  0.87870  0.30990  Biso   1.000  C
  C201     1.0000 0.03450  0.91320  0.80990  Biso   1.000  C
  C202     1.0000 0.12130  0.03450  0.30990  Biso   1.000  C
  C203     1.0000 0.08680  0.12130  0.80990  Biso   1.000  C
  C204     1.0000 0.96550  0.08680  0.30990  Biso   1.000  C
  C205     1.0000 0.92670  0.82160  0.35030  Biso   1.000  C
  C206     1.0000 0.10510  0.92670  0.85030  Biso   1.000  C
  C207     1.0000 0.17840  0.10510  0.35030  Biso   1.000  C
  C208     1.0000 0.07330  0.17840  0.85030  Biso   1.000  C
  C209     1.0000 0.89490  0.07330  0.35030  Biso   1.000  C
  C210     1.0000 0.82160  0.89490  0.85030  Biso   1.000  C
  C211     1.0000 0.17840  0.07330  0.14970  Biso   1.000  C
  C212     1.0000 0.10510  0.17840  0.64970  Biso   1.000  C
  C213     1.0000 0.92670  0.10510  0.14970  Biso   1.000  C
  C214     1.0000 0.82160  0.92670  0.64970  Biso   1.000  C
  C215     1.0000 0.89490  0.82160  0.14970  Biso   1.000  C
  C216     1.0000 0.07330  0.89490  0.64970  Biso   1.000  C
  C217     1.0000 0.07330  0.17840  0.64970  Biso   1.000  C
  C218     1.0000 0.89490  0.07330  0.14970  Biso   1.000  C
  C219     1.0000 0.82160  0.89490  0.64970  Biso   1.000  C
  C220     1.0000 0.92670  0.82160  0.14970  Biso   1.000  C
  C221     1.0000 0.10510  0.92670  0.64970  Biso   1.000  C
  C222     1.0000 0.17840  0.10510  0.14970  Biso   1.000  C
  C223     1.0000 0.82160  0.92670  0.85030  Biso   1.000  C
  C224     1.0000 0.89490  0.82160  0.35030  Biso   1.000  C
  C225     1.0000 0.07330  0.89490  0.85030  Biso   1.000  C
  C226     1.0000 0.17840  0.07330  0.35030  Biso   1.000  C
  C227     1.0000 0.10510  0.17840  0.85030  Biso   1.000  C
  C228     1.0000 0.92670  0.10510  0.35030  Biso   1.000  C
  C229     1.0000 0.87080  0.75370  0.34050  Biso   1.000  C
  C230     1.0000 0.11710  0.87080  0.84050  Biso   1.000  C
  C231     1.0000 0.24630  0.11710  0.34050  Biso   1.000  C
  C232     1.0000 0.12920  0.24630  0.84050  Biso   1.000  C
  C233     1.0000 0.88290  0.12920  0.34050  Biso   1.000  C
  C234     1.0000 0.75370  0.88290  0.84050  Biso   1.000  C
  C235     1.0000 0.24630  0.12920  0.15950  Biso   1.000  C
  C236     1.0000 0.11710  0.24630  0.65950  Biso   1.000  C
  C237     1.0000 0.87080  0.11710  0.15950  Biso   1.000  C
  C238     1.0000 0.75370  0.87080  0.65950  Biso   1.000  C
  C239     1.0000 0.88290  0.75370  0.15950  Biso   1.000  C
  C240     1.0000 0.12920  0.88290  0.65950  Biso   1.000  C
  C241     1.0000 0.12920  0.24630  0.65950  Biso   1.000  C
  C242     1.0000 0.88290  0.12920  0.15950  Biso   1.000  C
  C243     1.0000 0.75370  0.88290  0.65950  Biso   1.000  C
  C244     1.0000 0.87080  0.75370  0.15950  Biso   1.000  C
  C245     1.0000 0.11710  0.87080  0.65950  Biso   1.000  C
  C246     1.0000 0.24630  0.11710  0.15950  Biso   1.000  C
  C247     1.0000 0.75370  0.87080  0.84050  Biso   1.000  C
  C248     1.0000 0.88290  0.75370  0.34050  Biso   1.000  C
  C249     1.0000 0.12920  0.88290  0.84050  Biso   1.000  C
  C250     1.0000 0.24630  0.12920  0.34050  Biso   1.000  C
  C251     1.0000 0.11710  0.24630  0.84050  Biso   1.000  C
  C252     1.0000 0.87080  0.11710  0.34050  Biso   1.000  C
  C253     1.0000 0.85070  0.71360  0.29000  Biso   1.000  C
  C254     1.0000 0.13710  0.85070  0.79000  Biso   1.000  C
  C255     1.0000 0.28640  0.13710  0.29000  Biso   1.000  C
  C256     1.0000 0.14930  0.28640  0.79000  Biso   1.000  C
  C257     1.0000 0.86290  0.14930  0.29000  Biso   1.000  C
  C258     1.0000 0.71360  0.86290  0.79000  Biso   1.000  C
  C259     1.0000 0.28640  0.14930  0.21000  Biso   1.000  C
  C260     1.0000 0.13710  0.28640  0.71000  Biso   1.000  C
  C261     1.0000 0.85070  0.13710  0.21000  Biso   1.000  C
  C262     1.0000 0.71360  0.85070  0.71000  Biso   1.000  C
  C263     1.0000 0.86290  0.71360  0.21000  Biso   1.000  C
  C264     1.0000 0.14930  0.86290  0.71000  Biso   1.000  C
  C265     1.0000 0.14930  0.28640  0.71000  Biso   1.000  C
  C266     1.0000 0.86290  0.14930  0.21000  Biso   1.000  C
  C267     1.0000 0.71360  0.86290  0.71000  Biso   1.000  C
  C268     1.0000 0.85070  0.71360  0.21000  Biso   1.000  C
  C269     1.0000 0.13710  0.85070  0.71000  Biso   1.000  C
  C270     1.0000 0.28640  0.13710  0.21000  Biso   1.000  C
  C271     1.0000 0.71360  0.85070  0.79000  Biso   1.000  C
  C272     1.0000 0.86290  0.71360  0.29000  Biso   1.000  C
  C273     1.0000 0.14930  0.86290  0.79000  Biso   1.000  C
  C274     1.0000 0.28640  0.14930  0.29000  Biso   1.000  C
  C275     1.0000 0.13710  0.28640  0.79000  Biso   1.000  C
  C276     1.0000 0.85070  0.13710  0.29000  Biso   1.000  C
  C277     1.0000 0.79320  0.62380  0.27860  Biso   1.000  C
  C278     1.0000 0.16940  0.79320  0.77860  Biso   1.000  C
  C279     1.0000 0.37620  0.16940  0.27860  Biso   1.000  C
  C280     1.0000 0.20680  0.37620  0.77860  Biso   1.000  C
  C281     1.0000 0.83060  0.20680  0.27860  Biso   1.000  C
  C282     1.0000 0.62380  0.83060  0.77860  Biso   1.000  C
  C283     1.0000 0.37620  0.20680  0.22140  Biso   1.000  C
  C284     1.0000 0.16940  0.37620  0.72140  Biso   1.000  C
  C285     1.0000 0.79320  0.16940  0.22140  Biso   1.000  C
  C286     1.0000 0.62380  0.79320  0.72140  Biso   1.000  C
  C287     1.0000 0.83060  0.62380  0.22140  Biso   1.000  C
  C288     1.0000 0.20680  0.83060  0.72140  Biso   1.000  C
  C289     1.0000 0.20680  0.37620  0.72140  Biso   1.000  C
  C290     1.0000 0.83060  0.20680  0.22140  Biso   1.000  C
  C291     1.0000 0.62380  0.83060  0.72140  Biso   1.000  C
  C292     1.0000 0.79320  0.62380  0.22140  Biso   1.000  C
  C293     1.0000 0.16940  0.79320  0.72140  Biso   1.000  C
  C294     1.0000 0.37620  0.16940  0.22140  Biso   1.000  C
  C295     1.0000 0.62380  0.79320  0.77860  Biso   1.000  C
  C296     1.0000 0.83060  0.62380  0.27860  Biso   1.000  C
  C297     1.0000 0.20680  0.83060  0.77860  Biso   1.000  C
  C298     1.0000 0.37620  0.20680  0.27860  Biso   1.000  C
  C299     1.0000 0.16940  0.37620  0.77860  Biso   1.000  C
  C300     1.0000 0.79320  0.16940  0.27860  Biso   1.000  C
  C301     1.0000 0.77510  0.59680  0.22930  Biso   1.000  C
  C302     1.0000 0.17830  0.77510  0.72930  Biso   1.000  C
  C303     1.0000 0.40320  0.17830  0.22930  Biso   1.000  C
  C304     1.0000 0.22490  0.40320  0.72930  Biso   1.000  C
  C305     1.0000 0.82170  0.22490  0.22930  Biso   1.000  C
  C306     1.0000 0.59680  0.82170  0.72930  Biso   1.000  C
  C307     1.0000 0.40320  0.22490  0.27070  Biso   1.000  C
  C308     1.0000 0.17830  0.40320  0.77070  Biso   1.000  C
  C309     1.0000 0.77510  0.17830  0.27070  Biso   1.000  C
  C310     1.0000 0.59680  0.77510  0.77070  Biso   1.000  C
  C311     1.0000 0.82170  0.59680  0.27070  Biso   1.000  C
  C312     1.0000 0.22490  0.82170  0.77070  Biso   1.000  C
  C313     1.0000 0.22490  0.40320  0.77070  Biso   1.000  C
  C314     1.0000 0.82170  0.22490  0.27070  Biso   1.000  C
  C315     1.0000 0.59680  0.82170  0.77070  Biso   1.000  C
  C316     1.0000 0.77510  0.59680  0.27070  Biso   1.000  C
  C317     1.0000 0.17830  0.77510  0.77070  Biso   1.000  C
  C318     1.0000 0.40320  0.17830  0.27070  Biso   1.000  C
  C319     1.0000 0.59680  0.77510  0.72930  Biso   1.000  C
  C320     1.0000 0.82170  0.59680  0.22930  Biso   1.000  C
  C321     1.0000 0.22490  0.82170  0.72930  Biso   1.000  C
  C322     1.0000 0.40320  0.22490  0.22930  Biso   1.000  C
  C323     1.0000 0.17830  0.40320  0.72930  Biso   1.000  C
  C324     1.0000 0.77510  0.17830  0.22930  Biso   1.000  C
  C325     1.0000 0.90100  0.80100  0.44000  Biso   1.000  C
  C326     1.0000 0.10000  0.90100  0.94000  Biso   1.000  C
  C327     1.0000 0.19900  0.10000  0.44000  Biso   1.000  C
  C328     1.0000 0.09900  0.19900  0.94000  Biso   1.000  C
  C329     1.0000 0.90000  0.09900  0.44000  Biso   1.000  C
  C330     1.0000 0.80100  0.90000  0.94000  Biso   1.000  C
  C331     1.0000 0.19900  0.09900  0.06000  Biso   1.000  C
  C332     1.0000 0.10000  0.19900  0.56000  Biso   1.000  C
  C333     1.0000 0.90100  0.10000  0.06000  Biso   1.000  C
  C334     1.0000 0.80100  0.90100  0.56000  Biso   1.000  C
  C335     1.0000 0.90000  0.80100  0.06000  Biso   1.000  C
  C336     1.0000 0.09900  0.90000  0.56000  Biso   1.000  C
  C337     1.0000 0.09900  0.19900  0.56000  Biso   1.000  C
  C338     1.0000 0.90000  0.09900  0.06000  Biso   1.000  C
  C339     1.0000 0.80100  0.90000  0.56000  Biso   1.000  C
  C340     1.0000 0.90100  0.80100  0.06000  Biso   1.000  C
  C341     1.0000 0.10000  0.90100  0.56000  Biso   1.000  C
  C342     1.0000 0.19900  0.10000  0.06000  Biso   1.000  C
  C343     1.0000 0.80100  0.90100  0.94000  Biso   1.000  C
  C344     1.0000 0.90000  0.80100  0.44000  Biso   1.000  C
  C345     1.0000 0.09900  0.90000  0.94000  Biso   1.000  C
  C346     1.0000 0.19900  0.09900  0.44000  Biso   1.000  C
  C347     1.0000 0.10000  0.19900  0.94000  Biso   1.000  C
  C348     1.0000 0.90100  0.10000  0.44000  Biso   1.000  C
  H1       1.0000 0.76870  0.53750  0.00640  Biso   1.000  H
  H2       1.0000 0.23120  0.76870  0.50640  Biso   1.000  H
  H3       1.0000 0.46250  0.23120  0.00640  Biso   1.000  H
  H4       1.0000 0.23130  0.46250  0.50640  Biso   1.000  H
  H5       1.0000 0.76880  0.23130  0.00640  Biso   1.000  H
  H6       1.0000 0.53750  0.76880  0.50640  Biso   1.000  H
  H7       1.0000 0.46250  0.23130  0.49360  Biso   1.000  H
  H8       1.0000 0.23120  0.46250  0.99360  Biso   1.000  H
  H9       1.0000 0.76870  0.23120  0.49360  Biso   1.000  H
  H10      1.0000 0.53750  0.76870  0.99360  Biso   1.000  H
  H11      1.0000 0.76880  0.53750  0.49360  Biso   1.000  H
  H12      1.0000 0.23130  0.76880  0.99360  Biso   1.000  H
  H13      1.0000 0.71780  0.64730  0.12110  Biso   1.000  H
  H14      1.0000 0.07050  0.71780  0.62110  Biso   1.000  H
  H15      1.0000 0.35270  0.07050  0.12110  Biso   1.000  H
  H16      1.0000 0.28220  0.35270  0.62110  Biso   1.000  H
  H17      1.0000 0.92950  0.28220  0.12110  Biso   1.000  H
  H18      1.0000 0.64730  0.92950  0.62110  Biso   1.000  H
  H19      1.0000 0.35270  0.28220  0.37890  Biso   1.000  H
  H20      1.0000 0.07050  0.35270  0.87890  Biso   1.000  H
  H21      1.0000 0.71780  0.07050  0.37890  Biso   1.000  H
  H22      1.0000 0.64730  0.71780  0.87890  Biso   1.000  H
  H23      1.0000 0.92950  0.64730  0.37890  Biso   1.000  H
  H24      1.0000 0.28220  0.92950  0.87890  Biso   1.000  H
  H25      1.0000 0.28220  0.35270  0.87890  Biso   1.000  H
  H26      1.0000 0.92950  0.28220  0.37890  Biso   1.000  H
  H27      1.0000 0.64730  0.92950  0.87890  Biso   1.000  H
  H28      1.0000 0.71780  0.64730  0.37890  Biso   1.000  H
  H29      1.0000 0.07050  0.71780  0.87890  Biso   1.000  H
  H30      1.0000 0.35270  0.07050  0.37890  Biso   1.000  H
  H31      1.0000 0.64730  0.71780  0.62110  Biso   1.000  H
  H32      1.0000 0.92950  0.64730  0.12110  Biso   1.000  H
  H33      1.0000 0.28220  0.92950  0.62110  Biso   1.000  H
  H34      1.0000 0.35270  0.28220  0.12110  Biso   1.000  H
  H35      1.0000 0.07050  0.35270  0.62110  Biso   1.000  H
  H36      1.0000 0.71780  0.07050  0.12110  Biso   1.000  H
  H37      1.0000 0.88380  0.77970  0.17270  Biso   1.000  H
  H38      1.0000 0.10410  0.88380  0.67270  Biso   1.000  H
  H39      1.0000 0.22030  0.10410  0.17270  Biso   1.000  H
  H40      1.0000 0.11620  0.22030  0.67270  Biso   1.000  H
  H41      1.0000 0.89590  0.11620  0.17270  Biso   1.000  H
  H42      1.0000 0.77970  0.89590  0.67270  Biso   1.000  H
  H43      1.0000 0.22030  0.11620  0.32730  Biso   1.000  H
  H44      1.0000 0.10410  0.22030  0.82730  Biso   1.000  H
  H45      1.0000 0.88380  0.10410  0.32730  Biso   1.000  H
  H46      1.0000 0.77970  0.88380  0.82730  Biso   1.000  H
  H47      1.0000 0.89590  0.77970  0.32730  Biso   1.000  H
  H48      1.0000 0.11620  0.89590  0.82730  Biso   1.000  H
  H49      1.0000 0.11620  0.22030  0.82730  Biso   1.000  H
  H50      1.0000 0.89590  0.11620  0.32730  Biso   1.000  H
  H51      1.0000 0.77970  0.89590  0.82730  Biso   1.000  H
  H52      1.0000 0.88380  0.77970  0.32730  Biso   1.000  H
  H53      1.0000 0.10410  0.88380  0.82730  Biso   1.000  H
  H54      1.0000 0.22030  0.10410  0.32730  Biso   1.000  H
  H55      1.0000 0.77970  0.88380  0.67270  Biso   1.000  H
  H56      1.0000 0.89590  0.77970  0.17270  Biso   1.000  H
  H57      1.0000 0.11620  0.89590  0.67270  Biso   1.000  H
  H58      1.0000 0.22030  0.11620  0.17270  Biso   1.000  H
  H59      1.0000 0.10410  0.22030  0.67270  Biso   1.000  H
  H60      1.0000 0.88380  0.10410  0.17270  Biso   1.000  H
  H61      1.0000 0.97370  0.89040  0.23330  Biso   1.000  H
  H62      1.0000 0.08330  0.97370  0.73330  Biso   1.000  H
  H63      1.0000 0.10960  0.08330  0.23330  Biso   1.000  H
  H64      1.0000 0.02630  0.10960  0.73330  Biso   1.000  H
  H65      1.0000 0.91670  0.02630  0.23330  Biso   1.000  H
  H66      1.0000 0.89040  0.91670  0.73330  Biso   1.000  H
  H67      1.0000 0.10960  0.02630  0.26670  Biso   1.000  H
  H68      1.0000 0.08330  0.10960  0.76670  Biso   1.000  H
  H69      1.0000 0.97370  0.08330  0.26670  Biso   1.000  H
  H70      1.0000 0.89040  0.97370  0.76670  Biso   1.000  H
  H71      1.0000 0.91670  0.89040  0.26670  Biso   1.000  H
  H72      1.0000 0.02630  0.91670  0.76670  Biso   1.000  H
  H73      1.0000 0.02630  0.10960  0.76670  Biso   1.000  H
  H74      1.0000 0.91670  0.02630  0.26670  Biso   1.000  H
  H75      1.0000 0.89040  0.91670  0.76670  Biso   1.000  H
  H76      1.0000 0.97370  0.89040  0.26670  Biso   1.000  H
  H77      1.0000 0.08330  0.97370  0.76670  Biso   1.000  H
  H78      1.0000 0.10960  0.08330  0.26670  Biso   1.000  H
  H79      1.0000 0.89040  0.97370  0.73330  Biso   1.000  H
  H80      1.0000 0.91670  0.89040  0.23330  Biso   1.000  H
  H81      1.0000 0.02630  0.91670  0.73330  Biso   1.000  H
  H82      1.0000 0.10960  0.02630  0.23330  Biso   1.000  H
  H83      1.0000 0.08330  0.10960  0.73330  Biso   1.000  H
  H84      1.0000 0.97370  0.08330  0.23330  Biso   1.000  H
  H85      1.0000 0.00450  0.93640  0.31700  Biso   1.000  H
  H86      1.0000 0.06810  0.00450  0.81700  Biso   1.000  H
  H87      1.0000 0.06360  0.06810  0.31700  Biso   1.000  H
  H88      1.0000 0.99550  0.06360  0.81700  Biso   1.000  H
  H89      1.0000 0.93190  0.99550  0.31700  Biso   1.000  H
  H90      1.0000 0.93640  0.93190  0.81700  Biso   1.000  H
  H91      1.0000 0.06360  0.99550  0.18300  Biso   1.000  H
  H92      1.0000 0.06810  0.06360  0.68300  Biso   1.000  H
  H93      1.0000 0.00450  0.06810  0.18300  Biso   1.000  H
  H94      1.0000 0.93640  0.00450  0.68300  Biso   1.000  H
  H95      1.0000 0.93190  0.93640  0.18300  Biso   1.000  H
  H96      1.0000 0.99550  0.93190  0.68300  Biso   1.000  H
  H97      1.0000 0.99550  0.06360  0.68300  Biso   1.000  H
  H98      1.0000 0.93190  0.99550  0.18300  Biso   1.000  H
  H99      1.0000 0.93640  0.93190  0.68300  Biso   1.000  H
  H100     1.0000 0.00450  0.93640  0.18300  Biso   1.000  H
  H101     1.0000 0.06810  0.00450  0.68300  Biso   1.000  H
  H102     1.0000 0.06360  0.06810  0.18300  Biso   1.000  H
  H103     1.0000 0.93640  0.00450  0.81700  Biso   1.000  H
  H104     1.0000 0.93190  0.93640  0.31700  Biso   1.000  H
  H105     1.0000 0.99550  0.93190  0.81700  Biso   1.000  H
  H106     1.0000 0.06360  0.99550  0.31700  Biso   1.000  H
  H107     1.0000 0.06810  0.06360  0.81700  Biso   1.000  H
  H108     1.0000 0.00450  0.06810  0.31700  Biso   1.000  H
  H109     1.0000 0.76740  0.58440  0.30570  Biso   1.000  H
  H110     1.0000 0.18300  0.76740  0.80570  Biso   1.000  H
  H111     1.0000 0.41560  0.18300  0.30570  Biso   1.000  H
  H112     1.0000 0.23260  0.41560  0.80570  Biso   1.000  H
  H113     1.0000 0.81700  0.23260  0.30570  Biso   1.000  H
  H114     1.0000 0.58440  0.81700  0.80570  Biso   1.000  H
  H115     1.0000 0.41560  0.23260  0.19430  Biso   1.000  H
  H116     1.0000 0.18300  0.41560  0.69430  Biso   1.000  H
  H117     1.0000 0.76740  0.18300  0.19430  Biso   1.000  H
  H118     1.0000 0.58440  0.76740  0.69430  Biso   1.000  H
  H119     1.0000 0.81700  0.58440  0.19430  Biso   1.000  H
  H120     1.0000 0.23260  0.81700  0.69430  Biso   1.000  H
  H121     1.0000 0.23260  0.41560  0.69430  Biso   1.000  H
  H122     1.0000 0.81700  0.23260  0.19430  Biso   1.000  H
  H123     1.0000 0.58440  0.81700  0.69430  Biso   1.000  H
  H124     1.0000 0.76740  0.58440  0.19430  Biso   1.000  H
  H125     1.0000 0.18300  0.76740  0.69430  Biso   1.000  H
  H126     1.0000 0.41560  0.18300  0.19430  Biso   1.000  H
  H127     1.0000 0.58440  0.76740  0.80570  Biso   1.000  H
  H128     1.0000 0.81700  0.58440  0.30570  Biso   1.000  H
  H129     1.0000 0.23260  0.81700  0.80570  Biso   1.000  H
  H130     1.0000 0.41560  0.23260  0.30570  Biso   1.000  H
  H131     1.0000 0.18300  0.41560  0.80570  Biso   1.000  H
  H132     1.0000 0.76740  0.18300  0.30570  Biso   1.000  H
  H133     1.0000 0.72830  0.54160  0.22430  Biso   1.000  H
  H134     1.0000 0.18670  0.72830  0.72430  Biso   1.000  H
  H135     1.0000 0.45840  0.18670  0.22430  Biso   1.000  H
  H136     1.0000 0.27170  0.45840  0.72430  Biso   1.000  H
  H137     1.0000 0.81330  0.27170  0.22430  Biso   1.000  H
  H138     1.0000 0.54160  0.81330  0.72430  Biso   1.000  H
  H139     1.0000 0.45840  0.27170  0.27570  Biso   1.000  H
  H140     1.0000 0.18670  0.45840  0.77570  Biso   1.000  H
  H141     1.0000 0.72830  0.18670  0.27570  Biso   1.000  H
  H142     1.0000 0.54160  0.72830  0.77570  Biso   1.000  H
  H143     1.0000 0.81330  0.54160  0.27570  Biso   1.000  H
  H144     1.0000 0.27170  0.81330  0.77570  Biso   1.000  H
  H145     1.0000 0.27170  0.45840  0.77570  Biso   1.000  H
  H146     1.0000 0.81330  0.27170  0.27570  Biso   1.000  H
  H147     1.0000 0.54160  0.81330  0.77570  Biso   1.000  H
  H148     1.0000 0.72830  0.54160  0.27570  Biso   1.000  H
  H149     1.0000 0.18670  0.72830  0.77570  Biso   1.000  H
  H150     1.0000 0.45840  0.18670  0.27570  Biso   1.000  H
  H151     1.0000 0.54160  0.72830  0.72430  Biso   1.000  H
  H152     1.0000 0.81330  0.54160  0.22430  Biso   1.000  H
  H153     1.0000 0.27170  0.81330  0.72430  Biso   1.000  H
  H154     1.0000 0.45840  0.27170  0.22430  Biso   1.000  H
  H155     1.0000 0.18670  0.45840  0.72430  Biso   1.000  H
  H156     1.0000 0.72830  0.18670  0.22430  Biso   1.000  H
  H157     1.0000 0.92820  0.81670  0.47180  Biso   1.000  H
  H158     1.0000 0.11150  0.92820  0.97180  Biso   1.000  H
  H159     1.0000 0.18330  0.11150  0.47180  Biso   1.000  H
  H160     1.0000 0.07180  0.18330  0.97180  Biso   1.000  H
  H161     1.0000 0.88850  0.07180  0.47180  Biso   1.000  H
  H162     1.0000 0.81670  0.88850  0.97180  Biso   1.000  H
  H163     1.0000 0.18330  0.07180  0.02820  Biso   1.000  H
  H164     1.0000 0.11150  0.18330  0.52820  Biso   1.000  H
  H165     1.0000 0.92820  0.11150  0.02820  Biso   1.000  H
  H166     1.0000 0.81670  0.92820  0.52820  Biso   1.000  H
  H167     1.0000 0.88850  0.81670  0.02820  Biso   1.000  H
  H168     1.0000 0.07180  0.88850  0.52820  Biso   1.000  H
  H169     1.0000 0.07180  0.18330  0.52820  Biso   1.000  H
  H170     1.0000 0.88850  0.07180  0.02820  Biso   1.000  H
  H171     1.0000 0.81670  0.88850  0.52820  Biso   1.000  H
  H172     1.0000 0.92820  0.81670  0.02820  Biso   1.000  H
  H173     1.0000 0.11150  0.92820  0.52820  Biso   1.000  H
  H174     1.0000 0.18330  0.11150  0.02820  Biso   1.000  H
  H175     1.0000 0.81670  0.92820  0.97180  Biso   1.000  H
  H176     1.0000 0.88850  0.81670  0.47180  Biso   1.000  H
  H177     1.0000 0.07180  0.88850  0.97180  Biso   1.000  H
  H178     1.0000 0.18330  0.07180  0.47180  Biso   1.000  H
  H179     1.0000 0.11150  0.18330  0.97180  Biso   1.000  H
  H180     1.0000 0.92820  0.11150  0.47180  Biso   1.000  H
  H181     1.0000 0.86080  0.82080  0.43770  Biso   1.000  H
  H182     1.0000 0.04000  0.86080  0.93770  Biso   1.000  H
  H183     1.0000 0.17920  0.04000  0.43770  Biso   1.000  H
  H184     1.0000 0.13920  0.17920  0.93770  Biso   1.000  H
  H185     1.0000 0.96000  0.13920  0.43770  Biso   1.000  H
  H186     1.0000 0.82080  0.96000  0.93770  Biso   1.000  H
  H187     1.0000 0.17920  0.13920  0.06230  Biso   1.000  H
  H188     1.0000 0.04000  0.17920  0.56230  Biso   1.000  H
  H189     1.0000 0.86080  0.04000  0.06230  Biso   1.000  H
  H190     1.0000 0.82080  0.86080  0.56230  Biso   1.000  H
  H191     1.0000 0.96000  0.82080  0.06230  Biso   1.000  H
  H192     1.0000 0.13920  0.96000  0.56230  Biso   1.000  H
  H193     1.0000 0.13920  0.17920  0.56230  Biso   1.000  H
  H194     1.0000 0.96000  0.13920  0.06230  Biso   1.000  H
  H195     1.0000 0.82080  0.96000  0.56230  Biso   1.000  H
  H196     1.0000 0.86080  0.82080  0.06230  Biso   1.000  H
  H197     1.0000 0.04000  0.86080  0.56230  Biso   1.000  H
  H198     1.0000 0.17920  0.04000  0.06230  Biso   1.000  H
  H199     1.0000 0.82080  0.86080  0.93770  Biso   1.000  H
  H200     1.0000 0.96000  0.82080  0.43770  Biso   1.000  H
  H201     1.0000 0.13920  0.96000  0.93770  Biso   1.000  H
  H202     1.0000 0.17920  0.13920  0.43770  Biso   1.000  H
  H203     1.0000 0.04000  0.17920  0.93770  Biso   1.000  H
  H204     1.0000 0.86080  0.04000  0.43770  Biso   1.000  H
  H205     1.0000 0.87210  0.74250  0.43560  Biso   1.000  H
  H206     1.0000 0.12960  0.87210  0.93560  Biso   1.000  H
  H207     1.0000 0.25750  0.12960  0.43560  Biso   1.000  H
  H208     1.0000 0.12790  0.25750  0.93560  Biso   1.000  H
  H209     1.0000 0.87040  0.12790  0.43560  Biso   1.000  H
  H210     1.0000 0.74250  0.87040  0.93560  Biso   1.000  H
  H211     1.0000 0.25750  0.12790  0.06440  Biso   1.000  H
  H212     1.0000 0.12960  0.25750  0.56440  Biso   1.000  H
  H213     1.0000 0.87210  0.12960  0.06440  Biso   1.000  H
  H214     1.0000 0.74250  0.87210  0.56440  Biso   1.000  H
  H215     1.0000 0.87040  0.74250  0.06440  Biso   1.000  H
  H216     1.0000 0.12790  0.87040  0.56440  Biso   1.000  H
  H217     1.0000 0.12790  0.25750  0.56440  Biso   1.000  H
  H218     1.0000 0.87040  0.12790  0.06440  Biso   1.000  H
  H219     1.0000 0.74250  0.87040  0.56440  Biso   1.000  H
  H220     1.0000 0.87210  0.74250  0.06440  Biso   1.000  H
  H221     1.0000 0.12960  0.87210  0.56440  Biso   1.000  H
  H222     1.0000 0.25750  0.12960  0.06440  Biso   1.000  H
  H223     1.0000 0.74250  0.87210  0.93560  Biso   1.000  H
  H224     1.0000 0.87040  0.74250  0.43560  Biso   1.000  H
  H225     1.0000 0.12790  0.87040  0.93560  Biso   1.000  H
  H226     1.0000 0.25750  0.12790  0.43560  Biso   1.000  H
  H227     1.0000 0.12960  0.25750  0.93560  Biso   1.000  H
  H228     1.0000 0.87210  0.12960  0.43560  Biso   1.000  H
