data_image0
_cell_length_a       18.5737
_cell_length_b       18.5737
_cell_length_c       26.629
_cell_angle_alpha    90
_cell_angle_beta     90
_cell_angle_gamma    120

_symmetry_space_group_name_H-M    "P 1"
_symmetry_int_tables_number       1

loop_
  _symmetry_equiv_pos_as_xyz
  'x, y, z'

loop_
  _atom_site_label
  _atom_site_occupancy
  _atom_site_fract_x
  _atom_site_fract_y
  _atom_site_fract_z
  _atom_site_thermal_displace_type
  _atom_site_B_iso_or_equiv
  _atom_site_type_symbol
  O1       1.0000 0.00000  0.50100  0.16670  Biso   1.000  O
  O2       1.0000 0.49900  0.49900  0.50003  Biso   1.000  O
  O3       1.0000 0.50100  0.00000  0.83337  Biso   1.000  O
  H1       1.0000 0.00270  0.53030  0.14140  Biso   1.000  H
  H2       1.0000 0.46970  0.47240  0.47473  Biso   1.000  H
  H3       1.0000 0.52760  0.99730  0.80807  Biso   1.000  H
  H4       1.0000 0.53030  0.00270  0.85860  Biso   1.000  H
  H5       1.0000 0.47240  0.46970  0.52527  Biso   1.000  H
  H6       1.0000 0.99730  0.52760  0.19193  Biso   1.000  H
  O4       1.0000 0.00000  0.97730  0.16670  Biso   1.000  O
  O5       1.0000 0.02270  0.02270  0.50003  Biso   1.000  O
  O6       1.0000 0.97730  0.00000  0.83337  Biso   1.000  O
  H7       1.0000 0.00390  0.94830  0.14320  Biso   1.000  H
  H8       1.0000 0.05170  0.05560  0.47653  Biso   1.000  H
  H9       1.0000 0.94440  0.99610  0.80987  Biso   1.000  H
  H10      1.0000 0.94830  0.00390  0.85680  Biso   1.000  H
  H11      1.0000 0.05560  0.05170  0.52347  Biso   1.000  H
  H12      1.0000 0.99610  0.94440  0.19013  Biso   1.000  H
  O7       1.0000 0.18550  0.34390  0.28910  Biso   1.000  O
  O8       1.0000 0.65610  0.84160  0.62243  Biso   1.000  O
  O9       1.0000 0.15840  0.81450  0.95577  Biso   1.000  O
  O10      1.0000 0.34390  0.18550  0.71090  Biso   1.000  O
  O11      1.0000 0.84160  0.65610  0.37757  Biso   1.000  O
  O12      1.0000 0.81450  0.15840  0.04423  Biso   1.000  O
  H13      1.0000 0.14830  0.31980  0.31150  Biso   1.000  H
  H14      1.0000 0.68020  0.82850  0.64483  Biso   1.000  H
  H15      1.0000 0.17150  0.85170  0.97817  Biso   1.000  H
  H16      1.0000 0.31980  0.14830  0.68850  Biso   1.000  H
  H17      1.0000 0.82850  0.68020  0.35517  Biso   1.000  H
  H18      1.0000 0.85170  0.17150  0.02183  Biso   1.000  H
  H19      1.0000 0.17530  0.32740  0.25880  Biso   1.000  H
  H20      1.0000 0.67260  0.84790  0.59213  Biso   1.000  H
  H21      1.0000 0.15210  0.82470  0.92547  Biso   1.000  H
  H22      1.0000 0.32740  0.17530  0.74120  Biso   1.000  H
  H23      1.0000 0.84790  0.67260  0.40787  Biso   1.000  H
  H24      1.0000 0.82470  0.15210  0.07453  Biso   1.000  H
  Cu1      1.0000 0.45932  0.47679  0.28762  Biso   1.000  Cu
  Cu2      1.0000 0.52321  0.98253  0.62095  Biso   1.000  Cu
  Cu3      1.0000 0.01747  0.54068  0.95429  Biso   1.000  Cu
  Cu4      1.0000 0.47679  0.45932  0.71238  Biso   1.000  Cu
  Cu5      1.0000 0.98253  0.52321  0.37905  Biso   1.000  Cu
  Cu6      1.0000 0.54068  0.01747  0.04571  Biso   1.000  Cu
  Cu7      1.0000 0.55365  0.52494  0.36688  Biso   1.000  Cu
  Cu8      1.0000 0.47506  0.02871  0.70021  Biso   1.000  Cu
  Cu9      1.0000 0.97129  0.44635  0.03355  Biso   1.000  Cu
  Cu10     1.0000 0.52494  0.55365  0.63312  Biso   1.000  Cu
  Cu11     1.0000 0.02871  0.47506  0.29979  Biso   1.000  Cu
  Cu12     1.0000 0.44635  0.97129  0.96645  Biso   1.000  Cu
  Cu13     1.0000 0.97200  0.95236  0.37306  Biso   1.000  Cu
  Cu14     1.0000 0.04764  0.01964  0.70639  Biso   1.000  Cu
  Cu15     1.0000 0.98036  0.02800  0.03973  Biso   1.000  Cu
  Cu16     1.0000 0.95236  0.97200  0.62694  Biso   1.000  Cu
  Cu17     1.0000 0.01964  0.04764  0.29361  Biso   1.000  Cu
  Cu18     1.0000 0.02800  0.98036  0.96027  Biso   1.000  Cu
  C1       1.0000 0.35380  0.27920  0.39050  Biso   1.000  C
  C2       1.0000 0.72080  0.07460  0.72383  Biso   1.000  C
  C3       1.0000 0.92540  0.64620  0.05717  Biso   1.000  C
  C4       1.0000 0.27920  0.35380  0.60950  Biso   1.000  C
  C5       1.0000 0.07460  0.72080  0.27617  Biso   1.000  C
  C6       1.0000 0.64620  0.92540  0.94283  Biso   1.000  C
  C7       1.0000 0.36770  0.26210  0.43900  Biso   1.000  C
  C8       1.0000 0.73790  0.10560  0.77233  Biso   1.000  C
  C9       1.0000 0.89440  0.63230  0.10567  Biso   1.000  C
  C10      1.0000 0.26210  0.36770  0.56100  Biso   1.000  C
  C11      1.0000 0.10560  0.73790  0.22767  Biso   1.000  C
  C12      1.0000 0.63230  0.89440  0.89433  Biso   1.000  C
  H25      1.0000 0.41540  0.30160  0.45530  Biso   1.000  H
  H26      1.0000 0.69840  0.11380  0.78863  Biso   1.000  H
  H27      1.0000 0.88620  0.58460  0.12197  Biso   1.000  H
  H28      1.0000 0.30160  0.41540  0.54470  Biso   1.000  H
  H29      1.0000 0.11380  0.69840  0.21137  Biso   1.000  H
  H30      1.0000 0.58460  0.88620  0.87803  Biso   1.000  H
  C13      1.0000 0.31470  0.18950  0.46480  Biso   1.000  C
  C14      1.0000 0.81050  0.12520  0.79813  Biso   1.000  C
  C15      1.0000 0.87480  0.68530  0.13147  Biso   1.000  C
  C16      1.0000 0.18950  0.31470  0.53520  Biso   1.000  C
  C17      1.0000 0.12520  0.81050  0.20187  Biso   1.000  C
  C18      1.0000 0.68530  0.87480  0.86853  Biso   1.000  C
  C19      1.0000 0.24020  0.13340  0.44180  Biso   1.000  C
  C20      1.0000 0.86660  0.10680  0.77513  Biso   1.000  C
  C21      1.0000 0.89320  0.75980  0.10847  Biso   1.000  C
  C22      1.0000 0.13340  0.24020  0.55820  Biso   1.000  C
  C23      1.0000 0.10680  0.86660  0.22487  Biso   1.000  C
  C24      1.0000 0.75980  0.89320  0.89153  Biso   1.000  C
  H31      1.0000 0.20370  0.08410  0.45790  Biso   1.000  H
  H32      1.0000 0.91590  0.11960  0.79123  Biso   1.000  H
  H33      1.0000 0.88040  0.79630  0.12457  Biso   1.000  H
  H34      1.0000 0.08410  0.20370  0.54210  Biso   1.000  H
  H35      1.0000 0.11960  0.91590  0.20877  Biso   1.000  H
  H36      1.0000 0.79630  0.88040  0.87543  Biso   1.000  H
  C25      1.0000 0.21910  0.15160  0.39230  Biso   1.000  C
  C26      1.0000 0.84840  0.06750  0.72563  Biso   1.000  C
  C27      1.0000 0.93250  0.78090  0.05897  Biso   1.000  C
  C28      1.0000 0.15160  0.21910  0.60770  Biso   1.000  C
  C29      1.0000 0.06750  0.84840  0.27437  Biso   1.000  C
  C30      1.0000 0.78090  0.93250  0.94103  Biso   1.000  C
  C31      1.0000 0.27700  0.22280  0.36640  Biso   1.000  C
  C32      1.0000 0.77720  0.05420  0.69973  Biso   1.000  C
  C33      1.0000 0.94580  0.72300  0.03307  Biso   1.000  C
  C34      1.0000 0.22280  0.27700  0.63360  Biso   1.000  C
  C35      1.0000 0.05420  0.77720  0.30027  Biso   1.000  C
  C36      1.0000 0.72300  0.94580  0.96693  Biso   1.000  C
  H37      1.0000 0.26590  0.23330  0.33400  Biso   1.000  H
  H38      1.0000 0.76670  0.03260  0.66733  Biso   1.000  H
  H39      1.0000 0.96740  0.73410  0.00067  Biso   1.000  H
  H40      1.0000 0.23330  0.26590  0.66600  Biso   1.000  H
  H41      1.0000 0.03260  0.76670  0.33267  Biso   1.000  H
  H42      1.0000 0.73410  0.96740  0.99933  Biso   1.000  H
  C37      1.0000 0.41090  0.36290  0.36500  Biso   1.000  C
  C38      1.0000 0.63710  0.04800  0.69833  Biso   1.000  C
  C39      1.0000 0.95200  0.58910  0.03167  Biso   1.000  C
  C40      1.0000 0.36290  0.41090  0.63500  Biso   1.000  C
  C41      1.0000 0.04800  0.63710  0.30167  Biso   1.000  C
  C42      1.0000 0.58910  0.95200  0.96833  Biso   1.000  C
  C43      1.0000 0.13990  0.09510  0.37120  Biso   1.000  C
  C44      1.0000 0.90490  0.04480  0.70453  Biso   1.000  C
  C45      1.0000 0.95520  0.86010  0.03787  Biso   1.000  C
  C46      1.0000 0.09510  0.13990  0.62880  Biso   1.000  C
  C47      1.0000 0.04480  0.90490  0.29547  Biso   1.000  C
  C48      1.0000 0.86010  0.95520  0.96213  Biso   1.000  C
  C49      1.0000 0.33650  0.17230  0.51650  Biso   1.000  C
  C50      1.0000 0.82770  0.16420  0.84983  Biso   1.000  C
  C51      1.0000 0.83580  0.66350  0.18317  Biso   1.000  C
  C52      1.0000 0.17230  0.33650  0.48350  Biso   1.000  C
  C53      1.0000 0.16420  0.82770  0.15017  Biso   1.000  C
  C54      1.0000 0.66350  0.83580  0.81683  Biso   1.000  C
  C55      1.0000 0.38690  0.12740  0.51150  Biso   1.000  C
  C56      1.0000 0.87260  0.25950  0.84483  Biso   1.000  C
  C57      1.0000 0.74050  0.61310  0.17817  Biso   1.000  C
  C58      1.0000 0.12740  0.38690  0.48850  Biso   1.000  C
  C59      1.0000 0.25950  0.87260  0.15517  Biso   1.000  C
  C60      1.0000 0.61310  0.74050  0.82183  Biso   1.000  C
  H43      1.0000 0.35480  0.07630  0.49350  Biso   1.000  H
  H44      1.0000 0.92370  0.27850  0.82683  Biso   1.000  H
  H45      1.0000 0.72150  0.64520  0.16017  Biso   1.000  H
  H46      1.0000 0.07630  0.35480  0.50650  Biso   1.000  H
  H47      1.0000 0.27850  0.92370  0.17317  Biso   1.000  H
  H48      1.0000 0.64520  0.72150  0.83983  Biso   1.000  H
  H49      1.0000 0.39990  0.11580  0.54440  Biso   1.000  H
  H50      1.0000 0.88420  0.28410  0.87773  Biso   1.000  H
  H51      1.0000 0.71590  0.60010  0.21107  Biso   1.000  H
  H52      1.0000 0.11580  0.39990  0.45560  Biso   1.000  H
  H53      1.0000 0.28410  0.88420  0.12227  Biso   1.000  H
  H54      1.0000 0.60010  0.71590  0.78893  Biso   1.000  H
  H55      1.0000 0.43740  0.16220  0.49360  Biso   1.000  H
  H56      1.0000 0.83780  0.27520  0.82693  Biso   1.000  H
  H57      1.0000 0.72480  0.56260  0.16027  Biso   1.000  H
  H58      1.0000 0.16220  0.43740  0.50640  Biso   1.000  H
  H59      1.0000 0.27520  0.83780  0.17307  Biso   1.000  H
  H60      1.0000 0.56260  0.72480  0.83973  Biso   1.000  H
  C61      1.0000 0.39150  0.25180  0.54640  Biso   1.000  C
  C62      1.0000 0.74820  0.13970  0.87973  Biso   1.000  C
  C63      1.0000 0.86030  0.60850  0.21307  Biso   1.000  C
  C64      1.0000 0.25180  0.39150  0.45360  Biso   1.000  C
  C65      1.0000 0.13970  0.74820  0.12027  Biso   1.000  C
  C66      1.0000 0.60850  0.86030  0.78693  Biso   1.000  C
  H61      1.0000 0.36250  0.28200  0.55120  Biso   1.000  H
  H62      1.0000 0.71800  0.08050  0.88453  Biso   1.000  H
  H63      1.0000 0.91950  0.63750  0.21787  Biso   1.000  H
  H64      1.0000 0.28200  0.36250  0.44880  Biso   1.000  H
  H65      1.0000 0.08050  0.71800  0.11547  Biso   1.000  H
  H66      1.0000 0.63750  0.91950  0.78213  Biso   1.000  H
  H67      1.0000 0.44220  0.28580  0.52830  Biso   1.000  H
  H68      1.0000 0.71420  0.15640  0.86163  Biso   1.000  H
  H69      1.0000 0.84360  0.55780  0.19497  Biso   1.000  H
  H70      1.0000 0.28580  0.44220  0.47170  Biso   1.000  H
  H71      1.0000 0.15640  0.71420  0.13837  Biso   1.000  H
  H72      1.0000 0.55780  0.84360  0.80503  Biso   1.000  H
  H73      1.0000 0.40420  0.23740  0.57850  Biso   1.000  H
  H74      1.0000 0.76260  0.16680  0.91183  Biso   1.000  H
  H75      1.0000 0.83320  0.59580  0.24517  Biso   1.000  H
  H76      1.0000 0.23740  0.40420  0.42150  Biso   1.000  H
  H77      1.0000 0.16680  0.76260  0.08817  Biso   1.000  H
  H78      1.0000 0.59580  0.83320  0.75483  Biso   1.000  H
  C67      1.0000 0.25750  0.12020  0.54650  Biso   1.000  C
  C68      1.0000 0.87980  0.13730  0.87983  Biso   1.000  C
  C69      1.0000 0.86270  0.74250  0.21317  Biso   1.000  C
  C70      1.0000 0.12020  0.25750  0.45350  Biso   1.000  C
  C71      1.0000 0.13730  0.87980  0.12017  Biso   1.000  C
  C72      1.0000 0.74250  0.86270  0.78683  Biso   1.000  C
  H79      1.0000 0.22260  0.06910  0.52910  Biso   1.000  H
  H80      1.0000 0.93090  0.15350  0.86243  Biso   1.000  H
  H81      1.0000 0.84650  0.77740  0.19577  Biso   1.000  H
  H82      1.0000 0.06910  0.22260  0.47090  Biso   1.000  H
  H83      1.0000 0.15350  0.93090  0.13757  Biso   1.000  H
  H84      1.0000 0.77740  0.84650  0.80423  Biso   1.000  H
  H85      1.0000 0.22840  0.15040  0.55050  Biso   1.000  H
  H86      1.0000 0.84960  0.07800  0.88383  Biso   1.000  H
  H87      1.0000 0.92200  0.77160  0.21717  Biso   1.000  H
  H88      1.0000 0.15040  0.22840  0.44950  Biso   1.000  H
  H89      1.0000 0.07800  0.84960  0.11617  Biso   1.000  H
  H90      1.0000 0.77160  0.92200  0.78283  Biso   1.000  H
  H91      1.0000 0.27150  0.10820  0.57900  Biso   1.000  H
  H92      1.0000 0.89180  0.16330  0.91233  Biso   1.000  H
  H93      1.0000 0.83670  0.72850  0.24567  Biso   1.000  H
  H94      1.0000 0.10820  0.27150  0.42100  Biso   1.000  H
  H95      1.0000 0.16330  0.89180  0.08767  Biso   1.000  H
  H96      1.0000 0.72850  0.83670  0.75433  Biso   1.000  H
  C73      1.0000 0.65500  0.42070  0.26880  Biso   1.000  C
  C74      1.0000 0.57930  0.23430  0.60213  Biso   1.000  C
  C75      1.0000 0.76570  0.34500  0.93547  Biso   1.000  C
  C76      1.0000 0.42070  0.65500  0.73120  Biso   1.000  C
  C77      1.0000 0.23430  0.57930  0.39787  Biso   1.000  C
  C78      1.0000 0.34500  0.76570  0.06453  Biso   1.000  C
  C79      1.0000 0.64230  0.38680  0.22110  Biso   1.000  C
  C80      1.0000 0.61320  0.25550  0.55443  Biso   1.000  C
  C81      1.0000 0.74450  0.35770  0.88777  Biso   1.000  C
  C82      1.0000 0.38680  0.64230  0.77890  Biso   1.000  C
  C83      1.0000 0.25550  0.61320  0.44557  Biso   1.000  C
  C84      1.0000 0.35770  0.74450  0.11223  Biso   1.000  C
  H97      1.0000 0.59490  0.37620  0.20330  Biso   1.000  H
  H98      1.0000 0.62380  0.21870  0.53663  Biso   1.000  H
  H99      1.0000 0.78130  0.40510  0.86997  Biso   1.000  H
  H100     1.0000 0.37620  0.59490  0.79670  Biso   1.000  H
  H101     1.0000 0.21870  0.62380  0.46337  Biso   1.000  H
  H102     1.0000 0.40510  0.78130  0.13003  Biso   1.000  H
  C85      1.0000 0.69890  0.36830  0.19960  Biso   1.000  C
  C86      1.0000 0.63170  0.33060  0.53293  Biso   1.000  C
  C87      1.0000 0.66940  0.30110  0.86627  Biso   1.000  C
  C88      1.0000 0.36830  0.69890  0.80040  Biso   1.000  C
  C89      1.0000 0.33060  0.63170  0.46707  Biso   1.000  C
  C90      1.0000 0.30110  0.66940  0.13373  Biso   1.000  C
  C91      1.0000 0.76900  0.38310  0.22660  Biso   1.000  C
  C92      1.0000 0.61690  0.38590  0.55993  Biso   1.000  C
  C93      1.0000 0.61410  0.23100  0.89327  Biso   1.000  C
  C94      1.0000 0.38310  0.76900  0.77340  Biso   1.000  C
  C95      1.0000 0.38590  0.61690  0.44007  Biso   1.000  C
  C96      1.0000 0.23100  0.61410  0.10673  Biso   1.000  C
  H103     1.0000 0.80530  0.36680  0.21390  Biso   1.000  H
  H104     1.0000 0.63320  0.43850  0.54723  Biso   1.000  H
  H105     1.0000 0.56150  0.19470  0.88057  Biso   1.000  H
  H106     1.0000 0.36680  0.80530  0.78610  Biso   1.000  H
  H107     1.0000 0.43850  0.63320  0.45277  Biso   1.000  H
  H108     1.0000 0.19470  0.56150  0.11943  Biso   1.000  H
  C97      1.0000 0.78440  0.42330  0.27360  Biso   1.000  C
  C98      1.0000 0.57670  0.36110  0.60693  Biso   1.000  C
  C99      1.0000 0.63890  0.21560  0.94027  Biso   1.000  C
  C100     1.0000 0.42330  0.78440  0.72640  Biso   1.000  C
  C101     1.0000 0.36110  0.57670  0.39307  Biso   1.000  C
  C102     1.0000 0.21560  0.63890  0.05973  Biso   1.000  C
  C103     1.0000 0.72950  0.44030  0.29340  Biso   1.000  C
  C104     1.0000 0.55970  0.28920  0.62673  Biso   1.000  C
  C105     1.0000 0.71080  0.27050  0.96007  Biso   1.000  C
  C106     1.0000 0.44030  0.72950  0.70660  Biso   1.000  C
  C107     1.0000 0.28920  0.55970  0.37327  Biso   1.000  C
  C108     1.0000 0.27050  0.71080  0.03993  Biso   1.000  C
  H109     1.0000 0.74050  0.46600  0.32470  Biso   1.000  H
  H110     1.0000 0.53400  0.27450  0.65803  Biso   1.000  H
  H111     1.0000 0.72550  0.25950  0.99137  Biso   1.000  H
  H112     1.0000 0.46600  0.74050  0.67530  Biso   1.000  H
  H113     1.0000 0.27450  0.53400  0.34197  Biso   1.000  H
  H114     1.0000 0.25950  0.72550  0.00863  Biso   1.000  H
  C109     1.0000 0.59710  0.44940  0.28950  Biso   1.000  C
  C110     1.0000 0.55060  0.14770  0.62283  Biso   1.000  C
  C111     1.0000 0.85230  0.40290  0.95617  Biso   1.000  C
  C112     1.0000 0.44940  0.59710  0.71050  Biso   1.000  C
  C113     1.0000 0.14770  0.55060  0.37717  Biso   1.000  C
  C114     1.0000 0.40290  0.85230  0.04383  Biso   1.000  C
  C115     1.0000 0.86590  0.44720  0.29890  Biso   1.000  C
  C116     1.0000 0.55280  0.41870  0.63223  Biso   1.000  C
  C117     1.0000 0.58130  0.13410  0.96557  Biso   1.000  C
  C118     1.0000 0.44720  0.86590  0.70110  Biso   1.000  C
  C119     1.0000 0.41870  0.55280  0.36777  Biso   1.000  C
  C120     1.0000 0.13410  0.58130  0.03443  Biso   1.000  C
  C121     1.0000 0.68140  0.32890  0.14700  Biso   1.000  C
  C122     1.0000 0.67110  0.35250  0.48033  Biso   1.000  C
  C123     1.0000 0.64750  0.31860  0.81367  Biso   1.000  C
  C124     1.0000 0.32890  0.68140  0.85300  Biso   1.000  C
  C125     1.0000 0.35250  0.67110  0.51967  Biso   1.000  C
  C126     1.0000 0.31860  0.64750  0.18633  Biso   1.000  C
  C127     1.0000 0.75500  0.31390  0.13210  Biso   1.000  C
  C128     1.0000 0.68610  0.44110  0.46543  Biso   1.000  C
  C129     1.0000 0.55890  0.24500  0.79877  Biso   1.000  C
  C130     1.0000 0.31390  0.75500  0.86790  Biso   1.000  C
  C131     1.0000 0.44110  0.68610  0.53457  Biso   1.000  C
  C132     1.0000 0.24500  0.55890  0.20123  Biso   1.000  C
  H115     1.0000 0.75400  0.27160  0.15330  Biso   1.000  H
  H116     1.0000 0.72840  0.48240  0.48663  Biso   1.000  H
  H117     1.0000 0.51760  0.24600  0.81997  Biso   1.000  H
  H118     1.0000 0.27160  0.75400  0.84670  Biso   1.000  H
  H119     1.0000 0.48240  0.72840  0.51337  Biso   1.000  H
  H120     1.0000 0.24600  0.51760  0.18003  Biso   1.000  H
  H121     1.0000 0.80690  0.36460  0.13620  Biso   1.000  H
  H122     1.0000 0.63540  0.44230  0.46953  Biso   1.000  H
  H123     1.0000 0.55770  0.19310  0.80287  Biso   1.000  H
  H124     1.0000 0.36460  0.80690  0.86380  Biso   1.000  H
  H125     1.0000 0.44230  0.63540  0.53047  Biso   1.000  H
  H126     1.0000 0.19310  0.55770  0.19713  Biso   1.000  H
  H127     1.0000 0.74880  0.29640  0.09770  Biso   1.000  H
  H128     1.0000 0.70360  0.45240  0.43103  Biso   1.000  H
  H129     1.0000 0.54760  0.25120  0.76437  Biso   1.000  H
  H130     1.0000 0.29640  0.74880  0.90230  Biso   1.000  H
  H131     1.0000 0.45240  0.70360  0.56897  Biso   1.000  H
  H132     1.0000 0.25120  0.54760  0.23563  Biso   1.000  H
  C133     1.0000 0.60130  0.25750  0.14160  Biso   1.000  C
  C134     1.0000 0.74250  0.34380  0.47493  Biso   1.000  C
  C135     1.0000 0.65620  0.39870  0.80827  Biso   1.000  C
  C136     1.0000 0.25750  0.60130  0.85840  Biso   1.000  C
  C137     1.0000 0.34380  0.74250  0.52507  Biso   1.000  C
  C138     1.0000 0.39870  0.65620  0.19173  Biso   1.000  C
  H133     1.0000 0.59490  0.21610  0.16560  Biso   1.000  H
  H134     1.0000 0.78390  0.37880  0.49893  Biso   1.000  H
  H135     1.0000 0.62120  0.40510  0.83227  Biso   1.000  H
  H136     1.0000 0.21610  0.59490  0.83440  Biso   1.000  H
  H137     1.0000 0.37880  0.78390  0.50107  Biso   1.000  H
  H138     1.0000 0.40510  0.62120  0.16773  Biso   1.000  H
  H139     1.0000 0.59530  0.23550  0.10830  Biso   1.000  H
  H140     1.0000 0.76450  0.35980  0.44163  Biso   1.000  H
  H141     1.0000 0.64020  0.40470  0.77497  Biso   1.000  H
  H142     1.0000 0.23550  0.59530  0.89170  Biso   1.000  H
  H143     1.0000 0.35980  0.76450  0.55837  Biso   1.000  H
  H144     1.0000 0.40470  0.64020  0.22503  Biso   1.000  H
  H145     1.0000 0.55950  0.27260  0.14740  Biso   1.000  H
  H146     1.0000 0.72740  0.28690  0.48073  Biso   1.000  H
  H147     1.0000 0.71310  0.44050  0.81407  Biso   1.000  H
  H148     1.0000 0.27260  0.55950  0.85260  Biso   1.000  H
  H149     1.0000 0.28690  0.72740  0.51927  Biso   1.000  H
  H150     1.0000 0.44050  0.71310  0.18593  Biso   1.000  H
  C139     1.0000 0.69950  0.39940  0.10760  Biso   1.000  C
  C140     1.0000 0.60060  0.30010  0.44093  Biso   1.000  C
  C141     1.0000 0.69990  0.30050  0.77427  Biso   1.000  C
  C142     1.0000 0.39940  0.69950  0.89240  Biso   1.000  C
  C143     1.0000 0.30010  0.60060  0.55907  Biso   1.000  C
  C144     1.0000 0.30050  0.69990  0.22573  Biso   1.000  C
  H151     1.0000 0.68850  0.37630  0.07440  Biso   1.000  H
  H152     1.0000 0.62370  0.31220  0.40773  Biso   1.000  H
  H153     1.0000 0.68780  0.31150  0.74107  Biso   1.000  H
  H154     1.0000 0.37630  0.68850  0.92560  Biso   1.000  H
  H155     1.0000 0.31220  0.62370  0.59227  Biso   1.000  H
  H156     1.0000 0.31150  0.68780  0.25893  Biso   1.000  H
  H157     1.0000 0.75660  0.44240  0.11010  Biso   1.000  H
  H158     1.0000 0.55760  0.31420  0.44343  Biso   1.000  H
  H159     1.0000 0.68580  0.24340  0.77677  Biso   1.000  H
  H160     1.0000 0.44240  0.75660  0.88990  Biso   1.000  H
  H161     1.0000 0.31420  0.55760  0.55657  Biso   1.000  H
  H162     1.0000 0.24340  0.68580  0.22323  Biso   1.000  H
  H163     1.0000 0.66420  0.42230  0.11450  Biso   1.000  H
  H164     1.0000 0.57770  0.24190  0.44783  Biso   1.000  H
  H165     1.0000 0.75810  0.33580  0.78117  Biso   1.000  H
  H166     1.0000 0.42230  0.66420  0.88550  Biso   1.000  H
  H167     1.0000 0.24190  0.57770  0.55217  Biso   1.000  H
  H168     1.0000 0.33580  0.75810  0.21883  Biso   1.000  H
  C145     1.0000 0.77780  0.85550  0.26330  Biso   1.000  C
  C146     1.0000 0.14450  0.92230  0.59663  Biso   1.000  C
  C147     1.0000 0.07770  0.22220  0.92997  Biso   1.000  C
  C148     1.0000 0.85550  0.77780  0.73670  Biso   1.000  C
  C149     1.0000 0.92230  0.14450  0.40337  Biso   1.000  C
  C150     1.0000 0.22220  0.07770  0.07003  Biso   1.000  C
  C151     1.0000 0.75960  0.86890  0.21550  Biso   1.000  C
  C152     1.0000 0.13110  0.89070  0.54883  Biso   1.000  C
  C153     1.0000 0.10930  0.24040  0.88217  Biso   1.000  C
  C154     1.0000 0.86890  0.75960  0.78450  Biso   1.000  C
  C155     1.0000 0.89070  0.13110  0.45117  Biso   1.000  C
  C156     1.0000 0.24040  0.10930  0.11783  Biso   1.000  C
  H169     1.0000 0.79700  0.91860  0.20000  Biso   1.000  H
  H170     1.0000 0.08140  0.87840  0.53333  Biso   1.000  H
  H171     1.0000 0.12160  0.20300  0.86667  Biso   1.000  H
  H172     1.0000 0.91860  0.79700  0.80000  Biso   1.000  H
  H173     1.0000 0.87840  0.08140  0.46667  Biso   1.000  H
  H174     1.0000 0.20300  0.12160  0.13333  Biso   1.000  H
  C157     1.0000 0.68810  0.81270  0.18790  Biso   1.000  C
  C158     1.0000 0.18730  0.87540  0.52123  Biso   1.000  C
  C159     1.0000 0.12460  0.31190  0.85457  Biso   1.000  C
  C160     1.0000 0.81270  0.68810  0.81210  Biso   1.000  C
  C161     1.0000 0.87540  0.18730  0.47877  Biso   1.000  C
  C162     1.0000 0.31190  0.12460  0.14543  Biso   1.000  C
  C163     1.0000 0.63560  0.74290  0.21180  Biso   1.000  C
  C164     1.0000 0.25710  0.89270  0.54513  Biso   1.000  C
  C165     1.0000 0.10730  0.36440  0.87847  Biso   1.000  C
  C166     1.0000 0.74290  0.63560  0.78820  Biso   1.000  C
  C167     1.0000 0.89270  0.25710  0.45487  Biso   1.000  C
  C168     1.0000 0.36440  0.10730  0.12153  Biso   1.000  C
  H175     1.0000 0.58560  0.70580  0.19640  Biso   1.000  H
  H176     1.0000 0.29420  0.87980  0.52973  Biso   1.000  H
  H177     1.0000 0.12020  0.41440  0.86307  Biso   1.000  H
  H178     1.0000 0.70580  0.58560  0.80360  Biso   1.000  H
  H179     1.0000 0.87980  0.29420  0.47027  Biso   1.000  H
  H180     1.0000 0.41440  0.12020  0.13693  Biso   1.000  H
  C169     1.0000 0.65390  0.72310  0.26060  Biso   1.000  C
  C170     1.0000 0.27690  0.93080  0.59393  Biso   1.000  C
  C171     1.0000 0.06920  0.34610  0.92727  Biso   1.000  C
  C172     1.0000 0.72310  0.65390  0.73940  Biso   1.000  C
  C173     1.0000 0.93080  0.27690  0.40607  Biso   1.000  C
  C174     1.0000 0.34610  0.06920  0.07273  Biso   1.000  C
  C175     1.0000 0.71940  0.77650  0.28630  Biso   1.000  C
  C176     1.0000 0.22350  0.94290  0.61963  Biso   1.000  C
  C177     1.0000 0.05710  0.28060  0.95297  Biso   1.000  C
  C178     1.0000 0.77650  0.71940  0.71370  Biso   1.000  C
  C179     1.0000 0.94290  0.22350  0.38037  Biso   1.000  C
  C180     1.0000 0.28060  0.05710  0.04703  Biso   1.000  C
  H181     1.0000 0.72830  0.76400  0.31870  Biso   1.000  H
  H182     1.0000 0.23600  0.96430  0.65203  Biso   1.000  H
  H183     1.0000 0.03570  0.27170  0.98537  Biso   1.000  H
  H184     1.0000 0.76400  0.72830  0.68130  Biso   1.000  H
  H185     1.0000 0.96430  0.23600  0.34797  Biso   1.000  H
  H186     1.0000 0.27170  0.03570  0.01463  Biso   1.000  H
  C181     1.0000 0.85900  0.91220  0.28950  Biso   1.000  C
  C182     1.0000 0.08780  0.94680  0.62283  Biso   1.000  C
  C183     1.0000 0.05320  0.14100  0.95617  Biso   1.000  C
  C184     1.0000 0.91220  0.85900  0.71050  Biso   1.000  C
  C185     1.0000 0.94680  0.08780  0.37717  Biso   1.000  C
  C186     1.0000 0.14100  0.05320  0.04383  Biso   1.000  C
  C187     1.0000 0.59750  0.64390  0.28370  Biso   1.000  C
  C188     1.0000 0.35610  0.95360  0.61703  Biso   1.000  C
  C189     1.0000 0.04640  0.40250  0.95037  Biso   1.000  C
  C190     1.0000 0.64390  0.59750  0.71630  Biso   1.000  C
  C191     1.0000 0.95360  0.35610  0.38297  Biso   1.000  C
  C192     1.0000 0.40250  0.04640  0.04963  Biso   1.000  C
  C193     1.0000 0.67410  0.83570  0.13530  Biso   1.000  C
  C194     1.0000 0.16430  0.83840  0.46863  Biso   1.000  C
  C195     1.0000 0.16160  0.32590  0.80197  Biso   1.000  C
  C196     1.0000 0.83570  0.67410  0.86470  Biso   1.000  C
  C197     1.0000 0.83840  0.16430  0.53137  Biso   1.000  C
  C198     1.0000 0.32590  0.16160  0.19803  Biso   1.000  C
  C199     1.0000 0.61100  0.75500  0.10850  Biso   1.000  C
  C200     1.0000 0.24500  0.85600  0.44183  Biso   1.000  C
  C201     1.0000 0.14400  0.38900  0.77517  Biso   1.000  C
  C202     1.0000 0.75500  0.61100  0.89150  Biso   1.000  C
  C203     1.0000 0.85600  0.24500  0.55817  Biso   1.000  C
  C204     1.0000 0.38900  0.14400  0.22483  Biso   1.000  C
  H187     1.0000 0.59940  0.76800  0.07570  Biso   1.000  H
  H188     1.0000 0.23200  0.83140  0.40903  Biso   1.000  H
  H189     1.0000 0.16860  0.40060  0.74237  Biso   1.000  H
  H190     1.0000 0.76800  0.59940  0.92430  Biso   1.000  H
  H191     1.0000 0.83140  0.23200  0.59097  Biso   1.000  H
  H192     1.0000 0.40060  0.16860  0.25763  Biso   1.000  H
  H193     1.0000 0.56040  0.72780  0.12770  Biso   1.000  H
  H194     1.0000 0.27220  0.83260  0.46103  Biso   1.000  H
  H195     1.0000 0.16740  0.43960  0.79437  Biso   1.000  H
  H196     1.0000 0.72780  0.56040  0.87230  Biso   1.000  H
  H197     1.0000 0.83260  0.27220  0.53897  Biso   1.000  H
  H198     1.0000 0.43960  0.16740  0.20563  Biso   1.000  H
  H199     1.0000 0.63380  0.71880  0.10560  Biso   1.000  H
  H200     1.0000 0.28120  0.91500  0.43893  Biso   1.000  H
  H201     1.0000 0.08500  0.36620  0.77227  Biso   1.000  H
  H202     1.0000 0.71880  0.63380  0.89440  Biso   1.000  H
  H203     1.0000 0.91500  0.28120  0.56107  Biso   1.000  H
  H204     1.0000 0.36620  0.08500  0.22773  Biso   1.000  H
  C205     1.0000 0.63540  0.88200  0.13560  Biso   1.000  C
  C206     1.0000 0.11800  0.75340  0.46893  Biso   1.000  C
  C207     1.0000 0.24660  0.36460  0.80227  Biso   1.000  C
  C208     1.0000 0.88200  0.63540  0.86440  Biso   1.000  C
  C209     1.0000 0.75340  0.11800  0.53107  Biso   1.000  C
  C210     1.0000 0.36460  0.24660  0.19773  Biso   1.000  C
  H205     1.0000 0.67340  0.93700  0.14780  Biso   1.000  H
  H206     1.0000 0.06300  0.73640  0.48113  Biso   1.000  H
  H207     1.0000 0.26360  0.32660  0.81447  Biso   1.000  H
  H208     1.0000 0.93700  0.67340  0.85220  Biso   1.000  H
  H209     1.0000 0.73640  0.06300  0.51887  Biso   1.000  H
  H210     1.0000 0.32660  0.26360  0.18553  Biso   1.000  H
  H211     1.0000 0.58760  0.85620  0.15700  Biso   1.000  H
  H212     1.0000 0.14380  0.73140  0.49033  Biso   1.000  H
  H213     1.0000 0.26860  0.41240  0.82367  Biso   1.000  H
  H214     1.0000 0.85620  0.58760  0.84300  Biso   1.000  H
  H215     1.0000 0.73140  0.14380  0.50967  Biso   1.000  H
  H216     1.0000 0.41240  0.26860  0.17633  Biso   1.000  H
  H217     1.0000 0.61860  0.88580  0.10210  Biso   1.000  H
  H218     1.0000 0.11420  0.73280  0.43543  Biso   1.000  H
  H219     1.0000 0.26720  0.38140  0.76877  Biso   1.000  H
  H220     1.0000 0.88580  0.61860  0.89790  Biso   1.000  H
  H221     1.0000 0.73280  0.11420  0.56457  Biso   1.000  H
  H222     1.0000 0.38140  0.26720  0.23123  Biso   1.000  H
  C211     1.0000 0.74260  0.85600  0.10460  Biso   1.000  C
  C212     1.0000 0.14400  0.88660  0.43793  Biso   1.000  C
  C213     1.0000 0.11340  0.25740  0.77127  Biso   1.000  C
  C214     1.0000 0.85600  0.74260  0.89540  Biso   1.000  C
  C215     1.0000 0.88660  0.14400  0.56207  Biso   1.000  C
  C216     1.0000 0.25740  0.11340  0.22873  Biso   1.000  C
  H223     1.0000 0.79150  0.90160  0.11910  Biso   1.000  H
  H224     1.0000 0.09840  0.88990  0.45243  Biso   1.000  H
  H225     1.0000 0.11010  0.20850  0.78577  Biso   1.000  H
  H226     1.0000 0.90160  0.79150  0.88090  Biso   1.000  H
  H227     1.0000 0.88990  0.09840  0.54757  Biso   1.000  H
  H228     1.0000 0.20850  0.11010  0.21423  Biso   1.000  H
  H229     1.0000 0.73320  0.87170  0.07190  Biso   1.000  H
  H230     1.0000 0.12830  0.86150  0.40523  Biso   1.000  H
  H231     1.0000 0.13850  0.26680  0.73857  Biso   1.000  H
  H232     1.0000 0.87170  0.73320  0.92810  Biso   1.000  H
  H233     1.0000 0.86150  0.12830  0.59477  Biso   1.000  H
  H234     1.0000 0.26680  0.13850  0.26143  Biso   1.000  H
  H235     1.0000 0.75030  0.80880  0.10150  Biso   1.000  H
  H236     1.0000 0.19120  0.94150  0.43483  Biso   1.000  H
  H237     1.0000 0.05850  0.24970  0.76817  Biso   1.000  H
  H238     1.0000 0.80880  0.75030  0.89850  Biso   1.000  H
  H239     1.0000 0.94150  0.19120  0.56517  Biso   1.000  H
  H240     1.0000 0.24970  0.05850  0.23183  Biso   1.000  H
  C217     1.0000 0.34210  0.42860  0.13650  Biso   1.000  C
  C218     1.0000 0.57140  0.91350  0.46983  Biso   1.000  C
  C219     1.0000 0.08650  0.65790  0.80317  Biso   1.000  C
  C220     1.0000 0.42860  0.34210  0.86350  Biso   1.000  C
  C221     1.0000 0.91350  0.57140  0.53017  Biso   1.000  C
  C222     1.0000 0.65790  0.08650  0.19683  Biso   1.000  C
  C223     1.0000 0.36470  0.46710  0.08980  Biso   1.000  C
  C224     1.0000 0.53290  0.89760  0.42313  Biso   1.000  C
  C225     1.0000 0.10240  0.63530  0.75647  Biso   1.000  C
  C226     1.0000 0.46710  0.36470  0.91020  Biso   1.000  C
  C227     1.0000 0.89760  0.53290  0.57687  Biso   1.000  C
  C228     1.0000 0.63530  0.10240  0.24353  Biso   1.000  C
  H241     1.0000 0.41970  0.50710  0.08360  Biso   1.000  H
  H242     1.0000 0.49290  0.91260  0.41693  Biso   1.000  H
  H243     1.0000 0.08740  0.58030  0.75027  Biso   1.000  H
  H244     1.0000 0.50710  0.41970  0.91640  Biso   1.000  H
  H245     1.0000 0.91260  0.49290  0.58307  Biso   1.000  H
  H246     1.0000 0.58030  0.08740  0.24973  Biso   1.000  H
  C229     1.0000 0.30510  0.44580  0.05240  Biso   1.000  C
  C230     1.0000 0.55420  0.85930  0.38573  Biso   1.000  C
  C231     1.0000 0.14070  0.69490  0.71907  Biso   1.000  C
  C232     1.0000 0.44580  0.30510  0.94760  Biso   1.000  C
  C233     1.0000 0.85930  0.55420  0.61427  Biso   1.000  C
  C234     1.0000 0.69490  0.14070  0.28093  Biso   1.000  C
  C235     1.0000 0.22290  0.38600  0.06170  Biso   1.000  C
  C236     1.0000 0.61400  0.83690  0.39503  Biso   1.000  C
  C237     1.0000 0.16310  0.77710  0.72837  Biso   1.000  C
  C238     1.0000 0.38600  0.22290  0.93830  Biso   1.000  C
  C239     1.0000 0.83690  0.61400  0.60497  Biso   1.000  C
  C240     1.0000 0.77710  0.16310  0.27163  Biso   1.000  C
  H247     1.0000 0.18310  0.37180  0.03670  Biso   1.000  H
  H248     1.0000 0.62820  0.81130  0.37003  Biso   1.000  H
  H249     1.0000 0.18870  0.81690  0.70337  Biso   1.000  H
  H250     1.0000 0.37180  0.18310  0.96330  Biso   1.000  H
  H251     1.0000 0.81130  0.62820  0.62997  Biso   1.000  H
  H252     1.0000 0.81690  0.18870  0.29663  Biso   1.000  H
  C241     1.0000 0.20020  0.34750  0.10840  Biso   1.000  C
  C242     1.0000 0.65250  0.85270  0.44173  Biso   1.000  C
  C243     1.0000 0.14730  0.79980  0.77507  Biso   1.000  C
  C244     1.0000 0.34750  0.20020  0.89160  Biso   1.000  C
  C245     1.0000 0.85270  0.65250  0.55827  Biso   1.000  C
  C246     1.0000 0.79980  0.14730  0.22493  Biso   1.000  C
  C247     1.0000 0.25980  0.36880  0.14580  Biso   1.000  C
  C248     1.0000 0.63120  0.89100  0.47913  Biso   1.000  C
  C249     1.0000 0.10900  0.74020  0.81247  Biso   1.000  C
  C250     1.0000 0.36880  0.25980  0.85420  Biso   1.000  C
  C251     1.0000 0.89100  0.63120  0.52087  Biso   1.000  C
  C252     1.0000 0.74020  0.10900  0.18753  Biso   1.000  C
  H253     1.0000 0.24460  0.34300  0.17700  Biso   1.000  H
  H254     1.0000 0.65700  0.90160  0.51033  Biso   1.000  H
  H255     1.0000 0.09840  0.75540  0.84367  Biso   1.000  H
  H256     1.0000 0.34300  0.24460  0.82300  Biso   1.000  H
  H257     1.0000 0.90160  0.65700  0.48967  Biso   1.000  H
  H258     1.0000 0.75540  0.09840  0.15633  Biso   1.000  H
  C253     1.0000 0.40140  0.45750  0.18050  Biso   1.000  C
  C254     1.0000 0.54250  0.94390  0.51383  Biso   1.000  C
  C255     1.0000 0.05610  0.59860  0.84717  Biso   1.000  C
  C256     1.0000 0.45750  0.40140  0.81950  Biso   1.000  C
  C257     1.0000 0.94390  0.54250  0.48617  Biso   1.000  C
  C258     1.0000 0.59860  0.05610  0.15283  Biso   1.000  C
  C259     1.0000 0.11580  0.26620  0.11640  Biso   1.000  C
  C260     1.0000 0.73380  0.84960  0.44973  Biso   1.000  C
  C261     1.0000 0.15040  0.88420  0.78307  Biso   1.000  C
  C262     1.0000 0.26620  0.11580  0.88360  Biso   1.000  C
  C263     1.0000 0.84960  0.73380  0.55027  Biso   1.000  C
  C264     1.0000 0.88420  0.15040  0.21693  Biso   1.000  C
  C265     1.0000 0.32040  0.47380  0.99890  Biso   1.000  C
  C266     1.0000 0.52620  0.84660  0.33223  Biso   1.000  C
  C267     1.0000 0.15340  0.67960  0.66557  Biso   1.000  C
  C268     1.0000 0.47380  0.32040  0.00110  Biso   1.000  C
  C269     1.0000 0.84660  0.52620  0.66777  Biso   1.000  C
  C270     1.0000 0.67960  0.15340  0.33443  Biso   1.000  C
  C271     1.0000 0.27180  0.51330  0.98770  Biso   1.000  C
  C272     1.0000 0.48670  0.75850  0.32103  Biso   1.000  C
  C273     1.0000 0.24150  0.72820  0.65437  Biso   1.000  C
  C274     1.0000 0.51330  0.27180  0.01230  Biso   1.000  C
  C275     1.0000 0.75850  0.48670  0.67897  Biso   1.000  C
  C276     1.0000 0.72820  0.24150  0.34563  Biso   1.000  C
  H259     1.0000 0.28380  0.53510  0.95420  Biso   1.000  H
  H260     1.0000 0.46490  0.74870  0.28753  Biso   1.000  H
  H261     1.0000 0.25130  0.71620  0.62087  Biso   1.000  H
  H262     1.0000 0.53510  0.28380  0.04580  Biso   1.000  H
  H263     1.0000 0.74870  0.46490  0.71247  Biso   1.000  H
  H264     1.0000 0.71620  0.25130  0.37913  Biso   1.000  H
  H265     1.0000 0.28600  0.55790  0.01100  Biso   1.000  H
  H266     1.0000 0.44210  0.72810  0.34433  Biso   1.000  H
  H267     1.0000 0.27190  0.71400  0.67767  Biso   1.000  H
  H268     1.0000 0.55790  0.28600  0.98900  Biso   1.000  H
  H269     1.0000 0.72810  0.44210  0.65567  Biso   1.000  H
  H270     1.0000 0.71400  0.27190  0.32233  Biso   1.000  H
  H271     1.0000 0.21370  0.47320  0.99060  Biso   1.000  H
  H272     1.0000 0.52680  0.74050  0.32393  Biso   1.000  H
  H273     1.0000 0.25950  0.78630  0.65727  Biso   1.000  H
  H274     1.0000 0.47320  0.21370  0.00940  Biso   1.000  H
  H275     1.0000 0.74050  0.52680  0.67607  Biso   1.000  H
  H276     1.0000 0.78630  0.25950  0.34273  Biso   1.000  H
  C277     1.0000 0.30820  0.41670  0.95970  Biso   1.000  C
  C278     1.0000 0.58330  0.89150  0.29303  Biso   1.000  C
  C279     1.0000 0.10850  0.69180  0.62637  Biso   1.000  C
  C280     1.0000 0.41670  0.30820  0.04030  Biso   1.000  C
  C281     1.0000 0.89150  0.58330  0.70697  Biso   1.000  C
  C282     1.0000 0.69180  0.10850  0.37363  Biso   1.000  C
  H277     1.0000 0.34190  0.39180  0.96590  Biso   1.000  H
  H278     1.0000 0.60820  0.95010  0.29923  Biso   1.000  H
  H279     1.0000 0.04990  0.65810  0.63257  Biso   1.000  H
  H280     1.0000 0.39180  0.34190  0.03410  Biso   1.000  H
  H281     1.0000 0.95010  0.60820  0.70077  Biso   1.000  H
  H282     1.0000 0.65810  0.04990  0.36743  Biso   1.000  H
  H283     1.0000 0.32380  0.44560  0.92820  Biso   1.000  H
  H284     1.0000 0.55440  0.87820  0.26153  Biso   1.000  H
  H285     1.0000 0.12180  0.67620  0.59487  Biso   1.000  H
  H286     1.0000 0.44560  0.32380  0.07180  Biso   1.000  H
  H287     1.0000 0.87820  0.55440  0.73847  Biso   1.000  H
  H288     1.0000 0.67620  0.12180  0.40513  Biso   1.000  H
  H289     1.0000 0.25070  0.37410  0.95860  Biso   1.000  H
  H290     1.0000 0.62590  0.87660  0.29193  Biso   1.000  H
  H291     1.0000 0.12340  0.74930  0.62527  Biso   1.000  H
  H292     1.0000 0.37410  0.25070  0.04140  Biso   1.000  H
  H293     1.0000 0.87660  0.62590  0.70807  Biso   1.000  H
  H294     1.0000 0.74930  0.12340  0.37473  Biso   1.000  H
  C283     1.0000 0.40110  0.54610  0.01700  Biso   1.000  C
  C284     1.0000 0.45390  0.85500  0.35033  Biso   1.000  C
  C285     1.0000 0.14500  0.59890  0.68367  Biso   1.000  C
  C286     1.0000 0.54610  0.40110  0.98300  Biso   1.000  C
  C287     1.0000 0.85500  0.45390  0.64967  Biso   1.000  C
  C288     1.0000 0.59890  0.14500  0.31633  Biso   1.000  C
  H295     1.0000 0.43880  0.52730  0.02510  Biso   1.000  H
  H296     1.0000 0.47270  0.91150  0.35843  Biso   1.000  H
  H297     1.0000 0.08850  0.56120  0.69177  Biso   1.000  H
  H298     1.0000 0.52730  0.43880  0.97490  Biso   1.000  H
  H299     1.0000 0.91150  0.47270  0.64157  Biso   1.000  H
  H300     1.0000 0.56120  0.08850  0.30823  Biso   1.000  H
  H301     1.0000 0.39080  0.57100  0.04510  Biso   1.000  H
  H302     1.0000 0.42900  0.81980  0.37843  Biso   1.000  H
  H303     1.0000 0.18020  0.60920  0.71177  Biso   1.000  H
  H304     1.0000 0.57100  0.39080  0.95490  Biso   1.000  H
  H305     1.0000 0.81980  0.42900  0.62157  Biso   1.000  H
  H306     1.0000 0.60920  0.18020  0.28823  Biso   1.000  H
  H307     1.0000 0.42440  0.58640  0.98980  Biso   1.000  H
  H308     1.0000 0.41360  0.83800  0.32313  Biso   1.000  H
  H309     1.0000 0.16200  0.57560  0.65647  Biso   1.000  H
  H310     1.0000 0.58640  0.42440  0.01020  Biso   1.000  H
  H311     1.0000 0.83800  0.41360  0.67687  Biso   1.000  H
  H312     1.0000 0.57560  0.16200  0.34353  Biso   1.000  H
  O13      1.0000 0.47200  0.41170  0.39100  Biso   1.000  O
  O14      1.0000 0.58830  0.06030  0.72433  Biso   1.000  O
  O15      1.0000 0.93970  0.52800  0.05767  Biso   1.000  O
  O16      1.0000 0.41170  0.47200  0.60900  Biso   1.000  O
  O17      1.0000 0.06030  0.58830  0.27567  Biso   1.000  O
  O18      1.0000 0.52800  0.93970  0.94233  Biso   1.000  O
  O19      1.0000 0.39300  0.37340  0.32250  Biso   1.000  O
  O20      1.0000 0.62660  0.01960  0.65583  Biso   1.000  O
  O21      1.0000 0.98040  0.60700  0.98917  Biso   1.000  O
  O22      1.0000 0.37340  0.39300  0.67750  Biso   1.000  O
  O23      1.0000 0.01960  0.62660  0.34417  Biso   1.000  O
  O24      1.0000 0.60700  0.98040  0.01083  Biso   1.000  O
  O25      1.0000 0.08580  0.03650  0.39800  Biso   1.000  O
  O26      1.0000 0.96350  0.04930  0.73133  Biso   1.000  O
  O27      1.0000 0.95070  0.91420  0.06467  Biso   1.000  O
  O28      1.0000 0.03650  0.08580  0.60200  Biso   1.000  O
  O29      1.0000 0.04930  0.96350  0.26867  Biso   1.000  O
  O30      1.0000 0.91420  0.95070  0.93533  Biso   1.000  O
  O31      1.0000 0.12580  0.10890  0.32610  Biso   1.000  O
  O32      1.0000 0.89110  0.01690  0.65943  Biso   1.000  O
  O33      1.0000 0.98310  0.87420  0.99277  Biso   1.000  O
  O34      1.0000 0.10890  0.12580  0.67390  Biso   1.000  O
  O35      1.0000 0.01690  0.89110  0.34057  Biso   1.000  O
  O36      1.0000 0.87420  0.98310  0.00723  Biso   1.000  O
  O37      1.0000 0.61540  0.48150  0.33280  Biso   1.000  O
  O38      1.0000 0.51850  0.13390  0.66613  Biso   1.000  O
  O39      1.0000 0.86610  0.38460  0.99947  Biso   1.000  O
  O40      1.0000 0.48150  0.61540  0.66720  Biso   1.000  O
  O41      1.0000 0.13390  0.51850  0.33387  Biso   1.000  O
  O42      1.0000 0.38460  0.86610  0.00053  Biso   1.000  O
  O43      1.0000 0.53780  0.44120  0.26390  Biso   1.000  O
  O44      1.0000 0.55880  0.09660  0.59723  Biso   1.000  O
  O45      1.0000 0.90340  0.46220  0.93057  Biso   1.000  O
  O46      1.0000 0.44120  0.53780  0.73610  Biso   1.000  O
  O47      1.0000 0.09660  0.55880  0.40277  Biso   1.000  O
  O48      1.0000 0.46220  0.90340  0.06943  Biso   1.000  O
  O49      1.0000 0.87440  0.47590  0.34290  Biso   1.000  O
  O50      1.0000 0.52410  0.39850  0.67623  Biso   1.000  O
  O51      1.0000 0.60150  0.12560  0.00957  Biso   1.000  O
  O52      1.0000 0.47590  0.87440  0.65710  Biso   1.000  O
  O53      1.0000 0.39850  0.52410  0.32377  Biso   1.000  O
  O54      1.0000 0.12560  0.60150  0.99043  Biso   1.000  O
  O55      1.0000 0.91900  0.43730  0.27410  Biso   1.000  O
  O56      1.0000 0.56270  0.48170  0.60743  Biso   1.000  O
  O57      1.0000 0.51830  0.08100  0.94077  Biso   1.000  O
  O58      1.0000 0.43730  0.91900  0.72590  Biso   1.000  O
  O59      1.0000 0.48170  0.56270  0.39257  Biso   1.000  O
  O60      1.0000 0.08100  0.51830  0.05923  Biso   1.000  O
  O61      1.0000 0.90840  0.97720  0.26620  Biso   1.000  O
  O62      1.0000 0.02280  0.93120  0.59953  Biso   1.000  O
  O63      1.0000 0.06880  0.09160  0.93287  Biso   1.000  O
  O64      1.0000 0.97720  0.90840  0.73380  Biso   1.000  O
  O65      1.0000 0.93120  0.02280  0.40047  Biso   1.000  O
  O66      1.0000 0.09160  0.06880  0.06713  Biso   1.000  O
  O67      1.0000 0.87100  0.89130  0.33160  Biso   1.000  O
  O68      1.0000 0.10870  0.97970  0.66493  Biso   1.000  O
  O69      1.0000 0.02030  0.12900  0.99827  Biso   1.000  O
  O70      1.0000 0.89130  0.87100  0.66840  Biso   1.000  O
  O71      1.0000 0.97970  0.10870  0.33507  Biso   1.000  O
  O72      1.0000 0.12900  0.02030  0.00173  Biso   1.000  O
  O73      1.0000 0.53390  0.58720  0.25910  Biso   1.000  O
  O74      1.0000 0.41280  0.94670  0.59243  Biso   1.000  O
  O75      1.0000 0.05330  0.46610  0.92577  Biso   1.000  O
  O76      1.0000 0.58720  0.53390  0.74090  Biso   1.000  O
  O77      1.0000 0.94670  0.41280  0.40757  Biso   1.000  O
  O78      1.0000 0.46610  0.05330  0.07423  Biso   1.000  O
  O79      1.0000 0.61270  0.63080  0.32790  Biso   1.000  O
  O80      1.0000 0.36920  0.98190  0.66123  Biso   1.000  O
  O81      1.0000 0.01810  0.38730  0.99457  Biso   1.000  O
  O82      1.0000 0.63080  0.61270  0.67210  Biso   1.000  O
  O83      1.0000 0.98190  0.36920  0.33877  Biso   1.000  O
  O84      1.0000 0.38730  0.01810  0.00543  Biso   1.000  O
  O85      1.0000 0.38600  0.43830  0.21950  Biso   1.000  O
  O86      1.0000 0.56170  0.94770  0.55283  Biso   1.000  O
  O87      1.0000 0.05230  0.61400  0.88617  Biso   1.000  O
  O88      1.0000 0.43830  0.38600  0.78050  Biso   1.000  O
  O89      1.0000 0.94770  0.56170  0.44717  Biso   1.000  O
  O90      1.0000 0.61400  0.05230  0.11383  Biso   1.000  O
  O91      1.0000 0.47060  0.50510  0.16820  Biso   1.000  O
  O92      1.0000 0.49490  0.96550  0.50153  Biso   1.000  O
  O93      1.0000 0.03450  0.52940  0.83487  Biso   1.000  O
  O94      1.0000 0.50510  0.47060  0.83180  Biso   1.000  O
  O95      1.0000 0.96550  0.49490  0.49847  Biso   1.000  O
  O96      1.0000 0.52940  0.03450  0.16513  Biso   1.000  O
  O97      1.0000 0.09680  0.22760  0.15360  Biso   1.000  O
  O98      1.0000 0.77240  0.86920  0.48693  Biso   1.000  O
  O99      1.0000 0.13080  0.90320  0.82027  Biso   1.000  O
  O100     1.0000 0.22760  0.09680  0.84640  Biso   1.000  O
  O101     1.0000 0.86920  0.77240  0.51307  Biso   1.000  O
  O102     1.0000 0.90320  0.13080  0.17973  Biso   1.000  O
  O103     1.0000 0.06090  0.26470  0.08730  Biso   1.000  O
  O104     1.0000 0.73530  0.79620  0.42063  Biso   1.000  O
  O105     1.0000 0.20380  0.93910  0.75397  Biso   1.000  O
  O106     1.0000 0.26470  0.06090  0.91270  Biso   1.000  O
  O107     1.0000 0.79620  0.73530  0.57937  Biso   1.000  O
  O108     1.0000 0.93910  0.20380  0.24603  Biso   1.000  O
  O109     1.0000 0.92110  0.86530  0.43430  Biso   1.000  O
  O110     1.0000 0.13470  0.05580  0.76763  Biso   1.000  O
  O111     1.0000 0.94420  0.07890  0.10097  Biso   1.000  O
  O112     1.0000 0.86530  0.92110  0.56570  Biso   1.000  O
  O113     1.0000 0.05580  0.13470  0.23237  Biso   1.000  O
  O114     1.0000 0.07890  0.94420  0.89903  Biso   1.000  O
  H313     1.0000 0.94990  0.87280  0.46070  Biso   1.000  H
  H314     1.0000 0.12720  0.07710  0.79403  Biso   1.000  H
  H315     1.0000 0.92290  0.05010  0.12737  Biso   1.000  H
  H316     1.0000 0.87280  0.94990  0.53930  Biso   1.000  H
  H317     1.0000 0.07710  0.12720  0.20597  Biso   1.000  H
  H318     1.0000 0.05010  0.92290  0.87263  Biso   1.000  H
  H319     1.0000 0.87240  0.82350  0.43220  Biso   1.000  H
  H320     1.0000 0.17650  0.04890  0.76553  Biso   1.000  H
  H321     1.0000 0.95110  0.12760  0.09887  Biso   1.000  H
  H322     1.0000 0.82350  0.87240  0.56780  Biso   1.000  H
  H323     1.0000 0.04890  0.17650  0.23447  Biso   1.000  H
  H324     1.0000 0.12760  0.95110  0.90113  Biso   1.000  H
  O115     1.0000 0.63720  0.57960  0.42910  Biso   1.000  O
  O116     1.0000 0.42040  0.05760  0.76243  Biso   1.000  O
  O117     1.0000 0.94240  0.36280  0.09577  Biso   1.000  O
  O118     1.0000 0.57960  0.63720  0.57090  Biso   1.000  O
  O119     1.0000 0.05760  0.42040  0.23757  Biso   1.000  O
  O120     1.0000 0.36280  0.94240  0.90423  Biso   1.000  O
  H325     1.0000 0.66600  0.63220  0.43170  Biso   1.000  H
  H326     1.0000 0.36780  0.03380  0.76503  Biso   1.000  H
  H327     1.0000 0.96620  0.33400  0.09837  Biso   1.000  H
  H328     1.0000 0.63220  0.66600  0.56830  Biso   1.000  H
  H329     1.0000 0.03380  0.36780  0.23497  Biso   1.000  H
  H330     1.0000 0.33400  0.96620  0.90163  Biso   1.000  H
  H331     1.0000 0.64120  0.54880  0.45120  Biso   1.000  H
  H332     1.0000 0.45120  0.09240  0.78453  Biso   1.000  H
  H333     1.0000 0.90760  0.35880  0.11787  Biso   1.000  H
  H334     1.0000 0.54880  0.64120  0.54880  Biso   1.000  H
  H335     1.0000 0.09240  0.45120  0.21547  Biso   1.000  H
  H336     1.0000 0.35880  0.90760  0.88213  Biso   1.000  H
  H337     1.0000 0.98150  0.44920  0.16320  Biso   1.000  H
  H338     1.0000 0.55080  0.53230  0.49653  Biso   1.000  H
  H339     1.0000 0.46770  0.01850  0.82987  Biso   1.000  H
  H340     1.0000 0.44920  0.98150  0.83680  Biso   1.000  H
  H341     1.0000 0.53230  0.55080  0.50347  Biso   1.000  H
  H342     1.0000 0.01850  0.46770  0.17013  Biso   1.000  H
  H343     1.0000 0.98160  0.01000  0.16040  Biso   1.000  H
  H344     1.0000 0.99000  0.97160  0.49373  Biso   1.000  H
  H345     1.0000 0.02840  0.01840  0.82707  Biso   1.000  H
  H346     1.0000 0.01000  0.98160  0.83960  Biso   1.000  H
  H347     1.0000 0.97160  0.99000  0.50627  Biso   1.000  H
  H348     1.0000 0.01840  0.02840  0.17293  Biso   1.000  H
