data_image0
_cell_length_a       27.4
_cell_length_b       16.013
_cell_length_c       21.28
_cell_angle_alpha    90
_cell_angle_beta     95.479
_cell_angle_gamma    90

_symmetry_space_group_name_H-M    "P 1"
_symmetry_int_tables_number       1

loop_
  _symmetry_equiv_pos_as_xyz
  'x, y, z'

loop_
  _atom_site_label
  _atom_site_occupancy
  _atom_site_fract_x
  _atom_site_fract_y
  _atom_site_fract_z
  _atom_site_thermal_displace_type
  _atom_site_B_iso_or_equiv
  _atom_site_type_symbol
  Cu1      1.0000 0.50659  0.99665  0.31307  Biso   1.000  Cu
  Cu2      1.0000 0.49341  0.99665  0.18693  Biso   1.000  Cu
  Cu3      1.0000 0.00659  0.49665  0.31307  Biso   1.000  Cu
  Cu4      1.0000 0.99341  0.49665  0.18693  Biso   1.000  Cu
  Cu5      1.0000 0.49341  0.00335  0.68693  Biso   1.000  Cu
  Cu6      1.0000 0.50659  0.00335  0.81307  Biso   1.000  Cu
  Cu7      1.0000 0.99341  0.50335  0.68693  Biso   1.000  Cu
  Cu8      1.0000 0.00659  0.50335  0.81307  Biso   1.000  Cu
  Cu9      1.0000 0.29844  0.24012  0.00587  Biso   1.000  Cu
  Cu10     1.0000 0.70156  0.24012  0.49413  Biso   1.000  Cu
  Cu11     1.0000 0.79844  0.74012  0.00587  Biso   1.000  Cu
  Cu12     1.0000 0.20156  0.74012  0.49413  Biso   1.000  Cu
  Cu13     1.0000 0.70156  0.75988  0.99413  Biso   1.000  Cu
  Cu14     1.0000 0.29844  0.75988  0.50587  Biso   1.000  Cu
  Cu15     1.0000 0.20156  0.25988  0.99413  Biso   1.000  Cu
  Cu16     1.0000 0.79844  0.25988  0.50587  Biso   1.000  Cu
  N1       1.0000 0.60100  0.98050  0.48570  Biso   1.000  N
  N2       1.0000 0.39900  0.98050  0.01430  Biso   1.000  N
  N3       1.0000 0.10100  0.48050  0.48570  Biso   1.000  N
  N4       1.0000 0.89900  0.48050  0.01430  Biso   1.000  N
  N5       1.0000 0.39900  0.01950  0.51430  Biso   1.000  N
  N6       1.0000 0.60100  0.01950  0.98570  Biso   1.000  N
  N7       1.0000 0.89900  0.51950  0.51430  Biso   1.000  N
  N8       1.0000 0.10100  0.51950  0.98570  Biso   1.000  N
  N9       1.0000 0.45330  0.22900  0.99600  Biso   1.000  N
  N10      1.0000 0.54670  0.22900  0.50400  Biso   1.000  N
  N11      1.0000 0.95330  0.72900  0.99600  Biso   1.000  N
  N12      1.0000 0.04670  0.72900  0.50400  Biso   1.000  N
  N13      1.0000 0.54670  0.77100  0.00400  Biso   1.000  N
  N14      1.0000 0.45330  0.77100  0.49600  Biso   1.000  N
  N15      1.0000 0.04670  0.27100  0.00400  Biso   1.000  N
  N16      1.0000 0.95330  0.27100  0.49600  Biso   1.000  N
  N17      1.0000 0.51400  0.46000  0.30700  Biso   1.000  N
  N18      1.0000 0.48600  0.46000  0.19300  Biso   1.000  N
  N19      1.0000 0.01400  0.96000  0.30700  Biso   1.000  N
  N20      1.0000 0.98600  0.96000  0.19300  Biso   1.000  N
  N21      1.0000 0.48600  0.54000  0.69300  Biso   1.000  N
  N22      1.0000 0.51400  0.54000  0.80700  Biso   1.000  N
  N23      1.0000 0.98600  0.04000  0.69300  Biso   1.000  N
  N24      1.0000 0.01400  0.04000  0.80700  Biso   1.000  N
  N25      1.0000 0.55700  0.23800  0.43100  Biso   1.000  N
  N26      1.0000 0.44300  0.23800  0.06900  Biso   1.000  N
  N27      1.0000 0.05700  0.73800  0.43100  Biso   1.000  N
  N28      1.0000 0.94300  0.73800  0.06900  Biso   1.000  N
  N29      1.0000 0.44300  0.76200  0.56900  Biso   1.000  N
  N30      1.0000 0.55700  0.76200  0.93100  Biso   1.000  N
  N31      1.0000 0.94300  0.26200  0.56900  Biso   1.000  N
  N32      1.0000 0.05700  0.26200  0.93100  Biso   1.000  N
  N33      1.0000 0.33800  0.31700  0.51400  Biso   1.000  N
  N34      1.0000 0.66200  0.31700  0.98600  Biso   1.000  N
  N35      1.0000 0.83800  0.81700  0.51400  Biso   1.000  N
  N36      1.0000 0.16200  0.81700  0.98600  Biso   1.000  N
  N37      1.0000 0.66200  0.68300  0.48600  Biso   1.000  N
  N38      1.0000 0.33800  0.68300  0.01400  Biso   1.000  N
  N39      1.0000 0.16200  0.18300  0.48600  Biso   1.000  N
  N40      1.0000 0.83800  0.18300  0.01400  Biso   1.000  N
  N41      1.0000 0.41700  0.49200  0.49500  Biso   1.000  N
  N42      1.0000 0.58300  0.49200  0.00500  Biso   1.000  N
  N43      1.0000 0.91700  0.99200  0.49500  Biso   1.000  N
  N44      1.0000 0.08300  0.99200  0.00500  Biso   1.000  N
  N45      1.0000 0.58300  0.50800  0.50500  Biso   1.000  N
  N46      1.0000 0.41700  0.50800  0.99500  Biso   1.000  N
  N47      1.0000 0.08300  0.00800  0.50500  Biso   1.000  N
  N48      1.0000 0.91700  0.00800  0.99500  Biso   1.000  N
  O1       1.0000 0.45040  0.91560  0.30640  Biso   1.000  O
  O2       1.0000 0.54960  0.91560  0.19360  Biso   1.000  O
  O3       1.0000 0.95040  0.41560  0.30640  Biso   1.000  O
  O4       1.0000 0.04960  0.41560  0.19360  Biso   1.000  O
  O5       1.0000 0.54960  0.08440  0.69360  Biso   1.000  O
  O6       1.0000 0.45040  0.08440  0.80640  Biso   1.000  O
  O7       1.0000 0.04960  0.58440  0.69360  Biso   1.000  O
  O8       1.0000 0.95040  0.58440  0.80640  Biso   1.000  O
  O9       1.0000 0.44850  0.90410  0.20030  Biso   1.000  O
  O10      1.0000 0.55150  0.90410  0.29970  Biso   1.000  O
  O11      1.0000 0.94850  0.40410  0.20030  Biso   1.000  O
  O12      1.0000 0.05150  0.40410  0.29970  Biso   1.000  O
  O13      1.0000 0.55150  0.09590  0.79970  Biso   1.000  O
  O14      1.0000 0.44850  0.09590  0.70030  Biso   1.000  O
  O15      1.0000 0.05150  0.59590  0.79970  Biso   1.000  O
  O16      1.0000 0.94850  0.59590  0.70030  Biso   1.000  O
  O17      1.0000 0.29530  0.32560  0.07170  Biso   1.000  O
  O18      1.0000 0.70470  0.32560  0.42830  Biso   1.000  O
  O19      1.0000 0.79530  0.82560  0.07170  Biso   1.000  O
  O20      1.0000 0.20470  0.82560  0.42830  Biso   1.000  O
  O21      1.0000 0.70470  0.67440  0.92830  Biso   1.000  O
  O22      1.0000 0.29530  0.67440  0.57170  Biso   1.000  O
  O23      1.0000 0.20470  0.17440  0.92830  Biso   1.000  O
  O24      1.0000 0.79530  0.17440  0.57170  Biso   1.000  O
  O25      1.0000 0.21270  0.34320  0.06260  Biso   1.000  O
  O26      1.0000 0.78730  0.34320  0.43740  Biso   1.000  O
  O27      1.0000 0.71270  0.84320  0.06260  Biso   1.000  O
  O28      1.0000 0.28730  0.84320  0.43740  Biso   1.000  O
  O29      1.0000 0.78730  0.65680  0.93740  Biso   1.000  O
  O30      1.0000 0.21270  0.65680  0.56260  Biso   1.000  O
  O31      1.0000 0.28730  0.15680  0.93740  Biso   1.000  O
  O32      1.0000 0.71270  0.15680  0.56260  Biso   1.000  O
  O33      1.0000 0.28040  0.64840  0.24780  Biso   1.000  O
  O34      1.0000 0.71960  0.64840  0.25220  Biso   1.000  O
  O35      1.0000 0.78040  0.14840  0.24780  Biso   1.000  O
  O36      1.0000 0.21960  0.14840  0.25220  Biso   1.000  O
  O37      1.0000 0.71960  0.35160  0.75220  Biso   1.000  O
  O38      1.0000 0.28040  0.35160  0.74780  Biso   1.000  O
  O39      1.0000 0.21960  0.85160  0.75220  Biso   1.000  O
  O40      1.0000 0.78040  0.85160  0.74780  Biso   1.000  O
  O41      1.0000 0.78630  0.65020  0.06710  Biso   1.000  O
  O42      1.0000 0.21370  0.65020  0.43290  Biso   1.000  O
  O43      1.0000 0.28630  0.15020  0.06710  Biso   1.000  O
  O44      1.0000 0.71370  0.15020  0.43290  Biso   1.000  O
  O45      1.0000 0.21370  0.34980  0.93290  Biso   1.000  O
  O46      1.0000 0.78630  0.34980  0.56710  Biso   1.000  O
  O47      1.0000 0.71370  0.84980  0.93290  Biso   1.000  O
  O48      1.0000 0.28630  0.84980  0.56710  Biso   1.000  O
  O49      1.0000 0.70380  0.66710  0.05650  Biso   1.000  O
  O50      1.0000 0.29620  0.66710  0.44350  Biso   1.000  O
  O51      1.0000 0.20380  0.16710  0.05650  Biso   1.000  O
  O52      1.0000 0.79620  0.16710  0.44350  Biso   1.000  O
  O53      1.0000 0.29620  0.33290  0.94350  Biso   1.000  O
  O54      1.0000 0.70380  0.33290  0.55650  Biso   1.000  O
  O55      1.0000 0.79620  0.83290  0.94350  Biso   1.000  O
  O56      1.0000 0.20380  0.83290  0.55650  Biso   1.000  O
  O57      1.0000 0.56020  0.07760  0.28960  Biso   1.000  O
  O58      1.0000 0.43980  0.07760  0.21040  Biso   1.000  O
  O59      1.0000 0.06020  0.57760  0.28960  Biso   1.000  O
  O60      1.0000 0.93980  0.57760  0.21040  Biso   1.000  O
  O61      1.0000 0.43980  0.92240  0.71040  Biso   1.000  O
  O62      1.0000 0.56020  0.92240  0.78960  Biso   1.000  O
  O63      1.0000 0.93980  0.42240  0.71040  Biso   1.000  O
  O64      1.0000 0.06020  0.42240  0.78960  Biso   1.000  O
  O65      1.0000 0.53930  0.08880  0.18600  Biso   1.000  O
  O66      1.0000 0.46070  0.08880  0.31400  Biso   1.000  O
  O67      1.0000 0.03930  0.58880  0.18600  Biso   1.000  O
  O68      1.0000 0.96070  0.58880  0.31400  Biso   1.000  O
  O69      1.0000 0.46070  0.91120  0.81400  Biso   1.000  O
  O70      1.0000 0.53930  0.91120  0.68600  Biso   1.000  O
  O71      1.0000 0.96070  0.41120  0.81400  Biso   1.000  O
  O72      1.0000 0.03930  0.41120  0.68600  Biso   1.000  O
  O73      1.0000 0.72530  0.33040  0.22010  Biso   1.000  O
  O74      1.0000 0.27470  0.33040  0.27990  Biso   1.000  O
  O75      1.0000 0.22530  0.83040  0.22010  Biso   1.000  O
  O76      1.0000 0.77470  0.83040  0.27990  Biso   1.000  O
  O77      1.0000 0.27470  0.66960  0.77990  Biso   1.000  O
  O78      1.0000 0.72530  0.66960  0.72010  Biso   1.000  O
  O79      1.0000 0.77470  0.16960  0.77990  Biso   1.000  O
  O80      1.0000 0.22530  0.16960  0.72010  Biso   1.000  O
  O81      1.0000 0.53510  0.99860  0.41440  Biso   1.000  O
  O82      1.0000 0.46490  0.99860  0.08560  Biso   1.000  O
  O83      1.0000 0.03510  0.49860  0.41440  Biso   1.000  O
  O84      1.0000 0.96490  0.49860  0.08560  Biso   1.000  O
  O85      1.0000 0.46490  0.00140  0.58560  Biso   1.000  O
  O86      1.0000 0.53510  0.00140  0.91440  Biso   1.000  O
  O87      1.0000 0.96490  0.50140  0.58560  Biso   1.000  O
  O88      1.0000 0.03510  0.50140  0.91440  Biso   1.000  O
  O89      1.0000 0.38000  0.22800  0.02400  Biso   1.000  O
  O90      1.0000 0.62000  0.22800  0.47600  Biso   1.000  O
  O91      1.0000 0.88000  0.72800  0.02400  Biso   1.000  O
  O92      1.0000 0.12000  0.72800  0.47600  Biso   1.000  O
  O93      1.0000 0.62000  0.77200  0.97600  Biso   1.000  O
  O94      1.0000 0.38000  0.77200  0.52400  Biso   1.000  O
  O95      1.0000 0.12000  0.27200  0.97600  Biso   1.000  O
  O96      1.0000 0.88000  0.27200  0.52400  Biso   1.000  O
  O97      1.0000 0.51300  0.42400  0.40200  Biso   1.000  O
  O98      1.0000 0.48700  0.42400  0.09800  Biso   1.000  O
  O99      1.0000 0.01300  0.92400  0.40200  Biso   1.000  O
  O100     1.0000 0.98700  0.92400  0.09800  Biso   1.000  O
  O101     1.0000 0.48700  0.57600  0.59800  Biso   1.000  O
  O102     1.0000 0.51300  0.57600  0.90200  Biso   1.000  O
  O103     1.0000 0.98700  0.07600  0.59800  Biso   1.000  O
  O104     1.0000 0.01300  0.07600  0.90200  Biso   1.000  O
  O105     1.0000 0.49970  0.99990  0.43760  Biso   1.000  O
  O106     1.0000 0.50030  0.99990  0.06240  Biso   1.000  O
  O107     1.0000 0.99970  0.49990  0.43760  Biso   1.000  O
  O108     1.0000 0.00030  0.49990  0.06240  Biso   1.000  O
  O109     1.0000 0.50030  0.00010  0.56240  Biso   1.000  O
  O110     1.0000 0.49970  0.00010  0.93760  Biso   1.000  O
  O111     1.0000 0.00030  0.50010  0.56240  Biso   1.000  O
  O112     1.0000 0.99970  0.50010  0.93760  Biso   1.000  O
  H1       1.0000 0.52760  0.99520  0.45840  Biso   1.000  H
  H2       1.0000 0.47240  0.99520  0.04160  Biso   1.000  H
  H3       1.0000 0.02760  0.49520  0.45840  Biso   1.000  H
  H4       1.0000 0.97240  0.49520  0.04160  Biso   1.000  H
  H5       1.0000 0.47240  0.00480  0.54160  Biso   1.000  H
  H6       1.0000 0.52760  0.00480  0.95840  Biso   1.000  H
  H7       1.0000 0.97240  0.50480  0.54160  Biso   1.000  H
  H8       1.0000 0.02760  0.50480  0.95840  Biso   1.000  H
  H9       1.0000 0.47800  0.00440  0.46330  Biso   1.000  H
  H10      1.0000 0.52200  0.00440  0.03670  Biso   1.000  H
  H11      1.0000 0.97800  0.50440  0.46330  Biso   1.000  H
  H12      1.0000 0.02200  0.50440  0.03670  Biso   1.000  H
  H13      1.0000 0.52200  0.99560  0.53670  Biso   1.000  H
  H14      1.0000 0.47800  0.99560  0.96330  Biso   1.000  H
  H15      1.0000 0.02200  0.49560  0.53670  Biso   1.000  H
  H16      1.0000 0.97800  0.49560  0.96330  Biso   1.000  H
  O113     1.0000 0.62500  0.23000  0.49300  Biso   1.000  O
  O114     1.0000 0.37500  0.23000  0.00700  Biso   1.000  O
  O115     1.0000 0.12500  0.73000  0.49300  Biso   1.000  O
  O116     1.0000 0.87500  0.73000  0.00700  Biso   1.000  O
  O117     1.0000 0.37500  0.77000  0.50700  Biso   1.000  O
  O118     1.0000 0.62500  0.77000  0.99300  Biso   1.000  O
  O119     1.0000 0.87500  0.27000  0.50700  Biso   1.000  O
  O120     1.0000 0.12500  0.27000  0.99300  Biso   1.000  O
  O121     1.0000 0.27470  0.38900  0.51580  Biso   1.000  O
  O122     1.0000 0.72530  0.38900  0.98420  Biso   1.000  O
  O123     1.0000 0.77470  0.88900  0.51580  Biso   1.000  O
  O124     1.0000 0.22530  0.88900  0.98420  Biso   1.000  O
  O125     1.0000 0.72530  0.61100  0.48420  Biso   1.000  O
  O126     1.0000 0.27470  0.61100  0.01580  Biso   1.000  O
  O127     1.0000 0.22530  0.11100  0.48420  Biso   1.000  O
  O128     1.0000 0.77470  0.11100  0.01580  Biso   1.000  O
  O129     1.0000 0.36300  0.40800  0.52300  Biso   1.000  O
  O130     1.0000 0.63700  0.40800  0.97700  Biso   1.000  O
  O131     1.0000 0.86300  0.90800  0.52300  Biso   1.000  O
  O132     1.0000 0.13700  0.90800  0.97700  Biso   1.000  O
  O133     1.0000 0.63700  0.59200  0.47700  Biso   1.000  O
  O134     1.0000 0.36300  0.59200  0.02300  Biso   1.000  O
  O135     1.0000 0.13700  0.09200  0.47700  Biso   1.000  O
  O136     1.0000 0.86300  0.09200  0.02300  Biso   1.000  O
  C1       1.0000 0.43390  0.88420  0.25490  Biso   1.000  C
  C2       1.0000 0.56610  0.88420  0.24510  Biso   1.000  C
  C3       1.0000 0.93390  0.38420  0.25490  Biso   1.000  C
  C4       1.0000 0.06610  0.38420  0.24510  Biso   1.000  C
  C5       1.0000 0.56610  0.11580  0.74510  Biso   1.000  C
  C6       1.0000 0.43390  0.11580  0.75490  Biso   1.000  C
  C7       1.0000 0.06610  0.61580  0.74510  Biso   1.000  C
  C8       1.0000 0.93390  0.61580  0.75490  Biso   1.000  C
  C9       1.0000 0.39410  0.82120  0.25200  Biso   1.000  C
  C10      1.0000 0.60590  0.82120  0.24800  Biso   1.000  C
  C11      1.0000 0.89410  0.32120  0.25200  Biso   1.000  C
  C12      1.0000 0.10590  0.32120  0.24800  Biso   1.000  C
  C13      1.0000 0.60590  0.17880  0.74800  Biso   1.000  C
  C14      1.0000 0.39410  0.17880  0.75200  Biso   1.000  C
  C15      1.0000 0.10590  0.67880  0.74800  Biso   1.000  C
  C16      1.0000 0.89410  0.67880  0.75200  Biso   1.000  C
  C17      1.0000 0.37830  0.78010  0.19590  Biso   1.000  C
  C18      1.0000 0.62170  0.78010  0.30410  Biso   1.000  C
  C19      1.0000 0.87830  0.28010  0.19590  Biso   1.000  C
  C20      1.0000 0.12170  0.28010  0.30410  Biso   1.000  C
  C21      1.0000 0.62170  0.21990  0.80410  Biso   1.000  C
  C22      1.0000 0.37830  0.21990  0.69590  Biso   1.000  C
  C23      1.0000 0.12170  0.71990  0.80410  Biso   1.000  C
  C24      1.0000 0.87830  0.71990  0.69590  Biso   1.000  C
  H17      1.0000 0.39280  0.79370  0.15950  Biso   1.000  H
  H18      1.0000 0.60720  0.79370  0.34050  Biso   1.000  H
  H19      1.0000 0.89280  0.29370  0.15950  Biso   1.000  H
  H20      1.0000 0.10720  0.29370  0.34050  Biso   1.000  H
  H21      1.0000 0.60720  0.20630  0.84050  Biso   1.000  H
  H22      1.0000 0.39280  0.20630  0.65950  Biso   1.000  H
  H23      1.0000 0.10720  0.70630  0.84050  Biso   1.000  H
  H24      1.0000 0.89280  0.70630  0.65950  Biso   1.000  H
  C25      1.0000 0.34210  0.72020  0.19220  Biso   1.000  C
  C26      1.0000 0.65790  0.72020  0.30780  Biso   1.000  C
  C27      1.0000 0.84210  0.22020  0.19220  Biso   1.000  C
  C28      1.0000 0.15790  0.22020  0.30780  Biso   1.000  C
  C29      1.0000 0.65790  0.27980  0.80780  Biso   1.000  C
  C30      1.0000 0.34210  0.27980  0.69220  Biso   1.000  C
  C31      1.0000 0.15790  0.77980  0.80780  Biso   1.000  C
  C32      1.0000 0.84210  0.77980  0.69220  Biso   1.000  C
  H25      1.0000 0.33330  0.69220  0.15450  Biso   1.000  H
  H26      1.0000 0.66670  0.69220  0.34550  Biso   1.000  H
  H27      1.0000 0.83330  0.19220  0.15450  Biso   1.000  H
  H28      1.0000 0.16670  0.19220  0.34550  Biso   1.000  H
  H29      1.0000 0.66670  0.30780  0.84550  Biso   1.000  H
  H30      1.0000 0.33330  0.30780  0.65450  Biso   1.000  H
  H31      1.0000 0.16670  0.80780  0.84550  Biso   1.000  H
  H32      1.0000 0.83330  0.80780  0.65450  Biso   1.000  H
  C33      1.0000 0.31860  0.70200  0.24700  Biso   1.000  C
  C34      1.0000 0.68140  0.70200  0.25300  Biso   1.000  C
  C35      1.0000 0.81860  0.20200  0.24700  Biso   1.000  C
  C36      1.0000 0.18140  0.20200  0.25300  Biso   1.000  C
  C37      1.0000 0.68140  0.29800  0.75300  Biso   1.000  C
  C38      1.0000 0.31860  0.29800  0.74700  Biso   1.000  C
  C39      1.0000 0.18140  0.79800  0.75300  Biso   1.000  C
  C40      1.0000 0.81860  0.79800  0.74700  Biso   1.000  C
  C41      1.0000 0.33170  0.74240  0.30220  Biso   1.000  C
  C42      1.0000 0.66830  0.74240  0.19780  Biso   1.000  C
  C43      1.0000 0.83170  0.24240  0.30220  Biso   1.000  C
  C44      1.0000 0.16830  0.24240  0.19780  Biso   1.000  C
  C45      1.0000 0.66830  0.25760  0.69780  Biso   1.000  C
  C46      1.0000 0.33170  0.25760  0.80220  Biso   1.000  C
  C47      1.0000 0.16830  0.75760  0.69780  Biso   1.000  C
  C48      1.0000 0.83170  0.75760  0.80220  Biso   1.000  C
  H33      1.0000 0.31580  0.73000  0.33770  Biso   1.000  H
  H34      1.0000 0.68420  0.73000  0.16230  Biso   1.000  H
  H35      1.0000 0.81580  0.23000  0.33770  Biso   1.000  H
  H36      1.0000 0.18420  0.23000  0.16230  Biso   1.000  H
  H37      1.0000 0.68420  0.27000  0.66230  Biso   1.000  H
  H38      1.0000 0.31580  0.27000  0.83770  Biso   1.000  H
  H39      1.0000 0.18420  0.77000  0.66230  Biso   1.000  H
  H40      1.0000 0.81580  0.77000  0.83770  Biso   1.000  H
  C49      1.0000 0.36880  0.80220  0.30630  Biso   1.000  C
  C50      1.0000 0.63120  0.80220  0.19370  Biso   1.000  C
  C51      1.0000 0.86880  0.30220  0.30630  Biso   1.000  C
  C52      1.0000 0.13120  0.30220  0.19370  Biso   1.000  C
  C53      1.0000 0.63120  0.19780  0.69370  Biso   1.000  C
  C54      1.0000 0.36880  0.19780  0.80630  Biso   1.000  C
  C55      1.0000 0.13120  0.69780  0.69370  Biso   1.000  C
  C56      1.0000 0.86880  0.69780  0.80630  Biso   1.000  C
  H41      1.0000 0.37720  0.82980  0.34420  Biso   1.000  H
  H42      1.0000 0.62280  0.82980  0.15580  Biso   1.000  H
  H43      1.0000 0.87720  0.32980  0.34420  Biso   1.000  H
  H44      1.0000 0.12280  0.32980  0.15580  Biso   1.000  H
  H45      1.0000 0.62280  0.17020  0.65580  Biso   1.000  H
  H46      1.0000 0.37720  0.17020  0.84420  Biso   1.000  H
  H47      1.0000 0.12280  0.67020  0.65580  Biso   1.000  H
  H48      1.0000 0.87720  0.67020  0.84420  Biso   1.000  H
  C57      1.0000 0.25610  0.36280  0.08550  Biso   1.000  C
  C58      1.0000 0.74390  0.36280  0.41450  Biso   1.000  C
  C59      1.0000 0.75610  0.86280  0.08550  Biso   1.000  C
  C60      1.0000 0.24390  0.86280  0.41450  Biso   1.000  C
  C61      1.0000 0.74390  0.63720  0.91450  Biso   1.000  C
  C62      1.0000 0.25610  0.63720  0.58550  Biso   1.000  C
  C63      1.0000 0.24390  0.13720  0.91450  Biso   1.000  C
  C64      1.0000 0.75610  0.13720  0.58550  Biso   1.000  C
  C65      1.0000 0.26160  0.43490  0.12960  Biso   1.000  C
  C66      1.0000 0.73840  0.43490  0.37040  Biso   1.000  C
  C67      1.0000 0.76160  0.93490  0.12960  Biso   1.000  C
  C68      1.0000 0.23840  0.93490  0.37040  Biso   1.000  C
  C69      1.0000 0.73840  0.56510  0.87040  Biso   1.000  C
  C70      1.0000 0.26160  0.56510  0.62960  Biso   1.000  C
  C71      1.0000 0.23840  0.06510  0.87040  Biso   1.000  C
  C72      1.0000 0.76160  0.06510  0.62960  Biso   1.000  C
  C73      1.0000 0.30930  0.46120  0.15510  Biso   1.000  C
  C74      1.0000 0.69070  0.46120  0.34490  Biso   1.000  C
  C75      1.0000 0.80930  0.96120  0.15510  Biso   1.000  C
  C76      1.0000 0.19070  0.96120  0.34490  Biso   1.000  C
  C77      1.0000 0.69070  0.53880  0.84490  Biso   1.000  C
  C78      1.0000 0.30930  0.53880  0.65510  Biso   1.000  C
  C79      1.0000 0.19070  0.03880  0.84490  Biso   1.000  C
  C80      1.0000 0.80930  0.03880  0.65510  Biso   1.000  C
  H49      1.0000 0.33640  0.42970  0.14630  Biso   1.000  H
  H50      1.0000 0.66360  0.42970  0.35370  Biso   1.000  H
  H51      1.0000 0.83640  0.92970  0.14630  Biso   1.000  H
  H52      1.0000 0.16360  0.92970  0.35370  Biso   1.000  H
  H53      1.0000 0.66360  0.57030  0.85370  Biso   1.000  H
  H54      1.0000 0.33640  0.57030  0.64630  Biso   1.000  H
  H55      1.0000 0.16360  0.07030  0.85370  Biso   1.000  H
  H56      1.0000 0.83640  0.07030  0.64630  Biso   1.000  H
  C81      1.0000 0.31670  0.53270  0.19280  Biso   1.000  C
  C82      1.0000 0.68330  0.53270  0.30720  Biso   1.000  C
  C83      1.0000 0.81670  0.03270  0.19280  Biso   1.000  C
  C84      1.0000 0.18330  0.03270  0.30720  Biso   1.000  C
  C85      1.0000 0.68330  0.46730  0.80720  Biso   1.000  C
  C86      1.0000 0.31670  0.46730  0.69280  Biso   1.000  C
  C87      1.0000 0.18330  0.96730  0.80720  Biso   1.000  C
  C88      1.0000 0.81670  0.96730  0.69280  Biso   1.000  C
  H57      1.0000 0.34810  0.55020  0.20760  Biso   1.000  H
  H58      1.0000 0.65190  0.55020  0.29240  Biso   1.000  H
  H59      1.0000 0.84810  0.05020  0.20760  Biso   1.000  H
  H60      1.0000 0.15190  0.05020  0.29240  Biso   1.000  H
  H61      1.0000 0.65190  0.44980  0.79240  Biso   1.000  H
  H62      1.0000 0.34810  0.44980  0.70760  Biso   1.000  H
  H63      1.0000 0.15190  0.94980  0.79240  Biso   1.000  H
  H64      1.0000 0.84810  0.94980  0.70760  Biso   1.000  H
  C89      1.0000 0.27580  0.57630  0.20740  Biso   1.000  C
  C90      1.0000 0.72420  0.57630  0.29260  Biso   1.000  C
  C91      1.0000 0.77580  0.07630  0.20740  Biso   1.000  C
  C92      1.0000 0.22420  0.07630  0.29260  Biso   1.000  C
  C93      1.0000 0.72420  0.42370  0.79260  Biso   1.000  C
  C94      1.0000 0.27580  0.42370  0.70740  Biso   1.000  C
  C95      1.0000 0.22420  0.92370  0.79260  Biso   1.000  C
  C96      1.0000 0.77580  0.92370  0.70740  Biso   1.000  C
  C97      1.0000 0.22810  0.55240  0.18610  Biso   1.000  C
  C98      1.0000 0.77190  0.55240  0.31390  Biso   1.000  C
  C99      1.0000 0.72810  0.05240  0.18610  Biso   1.000  C
  C100     1.0000 0.27190  0.05240  0.31390  Biso   1.000  C
  C101     1.0000 0.77190  0.44760  0.81390  Biso   1.000  C
  C102     1.0000 0.22810  0.44760  0.68610  Biso   1.000  C
  C103     1.0000 0.27190  0.94760  0.81390  Biso   1.000  C
  C104     1.0000 0.72810  0.94760  0.68610  Biso   1.000  C
  H65      1.0000 0.20110  0.58260  0.19690  Biso   1.000  H
  H66      1.0000 0.79890  0.58260  0.30310  Biso   1.000  H
  H67      1.0000 0.70110  0.08260  0.19690  Biso   1.000  H
  H68      1.0000 0.29890  0.08260  0.30310  Biso   1.000  H
  H69      1.0000 0.79890  0.41740  0.80310  Biso   1.000  H
  H70      1.0000 0.20110  0.41740  0.69690  Biso   1.000  H
  H71      1.0000 0.29890  0.91740  0.80310  Biso   1.000  H
  H72      1.0000 0.70110  0.91740  0.69690  Biso   1.000  H
  C105     1.0000 0.22240  0.47990  0.14700  Biso   1.000  C
  C106     1.0000 0.77760  0.47990  0.35300  Biso   1.000  C
  C107     1.0000 0.72240  0.97990  0.14700  Biso   1.000  C
  C108     1.0000 0.27760  0.97990  0.35300  Biso   1.000  C
  C109     1.0000 0.77760  0.52010  0.85300  Biso   1.000  C
  C110     1.0000 0.22240  0.52010  0.64700  Biso   1.000  C
  C111     1.0000 0.27760  0.02010  0.85300  Biso   1.000  C
  C112     1.0000 0.72240  0.02010  0.64700  Biso   1.000  C
  H73      1.0000 0.19090  0.46250  0.13270  Biso   1.000  H
  H74      1.0000 0.80910  0.46250  0.36730  Biso   1.000  H
  H75      1.0000 0.69090  0.96250  0.13270  Biso   1.000  H
  H76      1.0000 0.30910  0.96250  0.36730  Biso   1.000  H
  H77      1.0000 0.80910  0.53750  0.86730  Biso   1.000  H
  H78      1.0000 0.19090  0.53750  0.63270  Biso   1.000  H
  H79      1.0000 0.30910  0.03750  0.86730  Biso   1.000  H
  H80      1.0000 0.69090  0.03750  0.63270  Biso   1.000  H
  C113     1.0000 0.74220  0.62890  0.07640  Biso   1.000  C
  C114     1.0000 0.25780  0.62890  0.42360  Biso   1.000  C
  C115     1.0000 0.24220  0.12890  0.07640  Biso   1.000  C
  C116     1.0000 0.75780  0.12890  0.42360  Biso   1.000  C
  C117     1.0000 0.25780  0.37110  0.92360  Biso   1.000  C
  C118     1.0000 0.74220  0.37110  0.57640  Biso   1.000  C
  C119     1.0000 0.75780  0.87110  0.92360  Biso   1.000  C
  C120     1.0000 0.24220  0.87110  0.57640  Biso   1.000  C
  C121     1.0000 0.73630  0.55070  0.11630  Biso   1.000  C
  C122     1.0000 0.26370  0.55070  0.38370  Biso   1.000  C
  C123     1.0000 0.23630  0.05070  0.11630  Biso   1.000  C
  C124     1.0000 0.76370  0.05070  0.38370  Biso   1.000  C
  C125     1.0000 0.26370  0.44930  0.88370  Biso   1.000  C
  C126     1.0000 0.73630  0.44930  0.61630  Biso   1.000  C
  C127     1.0000 0.76370  0.94930  0.88370  Biso   1.000  C
  C128     1.0000 0.23630  0.94930  0.61630  Biso   1.000  C
  C129     1.0000 0.77840  0.50590  0.14100  Biso   1.000  C
  C130     1.0000 0.22160  0.50590  0.35900  Biso   1.000  C
  C131     1.0000 0.27840  0.00590  0.14100  Biso   1.000  C
  C132     1.0000 0.72160  0.00590  0.35900  Biso   1.000  C
  C133     1.0000 0.22160  0.49410  0.85900  Biso   1.000  C
  C134     1.0000 0.77840  0.49410  0.64100  Biso   1.000  C
  C135     1.0000 0.72160  0.99410  0.85900  Biso   1.000  C
  C136     1.0000 0.27840  0.99410  0.64100  Biso   1.000  C
  H81      1.0000 0.80950  0.52600  0.13490  Biso   1.000  H
  H82      1.0000 0.19050  0.52600  0.36510  Biso   1.000  H
  H83      1.0000 0.30950  0.02600  0.13490  Biso   1.000  H
  H84      1.0000 0.69050  0.02600  0.36510  Biso   1.000  H
  H85      1.0000 0.19050  0.47400  0.86510  Biso   1.000  H
  H86      1.0000 0.80950  0.47400  0.63490  Biso   1.000  H
  H87      1.0000 0.69050  0.97400  0.86510  Biso   1.000  H
  H88      1.0000 0.30950  0.97400  0.63490  Biso   1.000  H
  C137     1.0000 0.77370  0.43230  0.17410  Biso   1.000  C
  C138     1.0000 0.22630  0.43230  0.32590  Biso   1.000  C
  C139     1.0000 0.27370  0.93230  0.17410  Biso   1.000  C
  C140     1.0000 0.72630  0.93230  0.32590  Biso   1.000  C
  C141     1.0000 0.22630  0.56770  0.82590  Biso   1.000  C
  C142     1.0000 0.77370  0.56770  0.67410  Biso   1.000  C
  C143     1.0000 0.72630  0.06770  0.82590  Biso   1.000  C
  C144     1.0000 0.27370  0.06770  0.67410  Biso   1.000  C
  H89      1.0000 0.80140  0.40310  0.19030  Biso   1.000  H
  H90      1.0000 0.19860  0.40310  0.30970  Biso   1.000  H
  H91      1.0000 0.30140  0.90310  0.19030  Biso   1.000  H
  H92      1.0000 0.69860  0.90310  0.30970  Biso   1.000  H
  H93      1.0000 0.19860  0.59690  0.80970  Biso   1.000  H
  H94      1.0000 0.80140  0.59690  0.69030  Biso   1.000  H
  H95      1.0000 0.69860  0.09690  0.80970  Biso   1.000  H
  H96      1.0000 0.30140  0.09690  0.69030  Biso   1.000  H
  C145     1.0000 0.72690  0.40250  0.18300  Biso   1.000  C
  C146     1.0000 0.27310  0.40250  0.31700  Biso   1.000  C
  C147     1.0000 0.22690  0.90250  0.18300  Biso   1.000  C
  C148     1.0000 0.77310  0.90250  0.31700  Biso   1.000  C
  C149     1.0000 0.27310  0.59750  0.81700  Biso   1.000  C
  C150     1.0000 0.72690  0.59750  0.68300  Biso   1.000  C
  C151     1.0000 0.77310  0.09750  0.81700  Biso   1.000  C
  C152     1.0000 0.22690  0.09750  0.68300  Biso   1.000  C
  C153     1.0000 0.68520  0.44710  0.15930  Biso   1.000  C
  C154     1.0000 0.31480  0.44710  0.34070  Biso   1.000  C
  C155     1.0000 0.18520  0.94710  0.15930  Biso   1.000  C
  C156     1.0000 0.81480  0.94710  0.34070  Biso   1.000  C
  C157     1.0000 0.31480  0.55290  0.84070  Biso   1.000  C
  C158     1.0000 0.68520  0.55290  0.65930  Biso   1.000  C
  C159     1.0000 0.81480  0.05290  0.84070  Biso   1.000  C
  C160     1.0000 0.18520  0.05290  0.65930  Biso   1.000  C
  H97      1.0000 0.65410  0.42780  0.16580  Biso   1.000  H
  H98      1.0000 0.34590  0.42780  0.33420  Biso   1.000  H
  H99      1.0000 0.15410  0.92780  0.16580  Biso   1.000  H
  H100     1.0000 0.84590  0.92780  0.33420  Biso   1.000  H
  H101     1.0000 0.34590  0.57220  0.83420  Biso   1.000  H
  H102     1.0000 0.65410  0.57220  0.66580  Biso   1.000  H
  H103     1.0000 0.84590  0.07220  0.83420  Biso   1.000  H
  H104     1.0000 0.15410  0.07220  0.66580  Biso   1.000  H
  C161     1.0000 0.69100  0.52180  0.12540  Biso   1.000  C
  C162     1.0000 0.30900  0.52180  0.37460  Biso   1.000  C
  C163     1.0000 0.19100  0.02180  0.12540  Biso   1.000  C
  C164     1.0000 0.80900  0.02180  0.37460  Biso   1.000  C
  C165     1.0000 0.30900  0.47820  0.87460  Biso   1.000  C
  C166     1.0000 0.69100  0.47820  0.62540  Biso   1.000  C
  C167     1.0000 0.80900  0.97820  0.87460  Biso   1.000  C
  C168     1.0000 0.19100  0.97820  0.62540  Biso   1.000  C
  H105     1.0000 0.66340  0.55150  0.10930  Biso   1.000  H
  H106     1.0000 0.33660  0.55150  0.39070  Biso   1.000  H
  H107     1.0000 0.16340  0.05150  0.10930  Biso   1.000  H
  H108     1.0000 0.83660  0.05150  0.39070  Biso   1.000  H
  H109     1.0000 0.33660  0.44850  0.89070  Biso   1.000  H
  H110     1.0000 0.66340  0.44850  0.60930  Biso   1.000  H
  H111     1.0000 0.83660  0.94850  0.89070  Biso   1.000  H
  H112     1.0000 0.16340  0.94850  0.60930  Biso   1.000  H
  C169     1.0000 0.56580  0.10710  0.23300  Biso   1.000  C
  C170     1.0000 0.43420  0.10710  0.26700  Biso   1.000  C
  C171     1.0000 0.06580  0.60710  0.23300  Biso   1.000  C
  C172     1.0000 0.93420  0.60710  0.26700  Biso   1.000  C
  C173     1.0000 0.43420  0.89290  0.76700  Biso   1.000  C
  C174     1.0000 0.56580  0.89290  0.73300  Biso   1.000  C
  C175     1.0000 0.93420  0.39290  0.76700  Biso   1.000  C
  C176     1.0000 0.06580  0.39290  0.73300  Biso   1.000  C
  C177     1.0000 0.60770  0.16820  0.22880  Biso   1.000  C
  C178     1.0000 0.39230  0.16820  0.27120  Biso   1.000  C
  C179     1.0000 0.10770  0.66820  0.22880  Biso   1.000  C
  C180     1.0000 0.89230  0.66820  0.27120  Biso   1.000  C
  C181     1.0000 0.39230  0.83180  0.77120  Biso   1.000  C
  C182     1.0000 0.60770  0.83180  0.72880  Biso   1.000  C
  C183     1.0000 0.89230  0.33180  0.77120  Biso   1.000  C
  C184     1.0000 0.10770  0.33180  0.72880  Biso   1.000  C
  C185     1.0000 0.61640  0.20440  0.17100  Biso   1.000  C
  C186     1.0000 0.38360  0.20440  0.32900  Biso   1.000  C
  C187     1.0000 0.11640  0.70440  0.17100  Biso   1.000  C
  C188     1.0000 0.88360  0.70440  0.32900  Biso   1.000  C
  C189     1.0000 0.38360  0.79560  0.82900  Biso   1.000  C
  C190     1.0000 0.61640  0.79560  0.67100  Biso   1.000  C
  C191     1.0000 0.88360  0.29560  0.82900  Biso   1.000  C
  C192     1.0000 0.11640  0.29560  0.67100  Biso   1.000  C
  H113     1.0000 0.59560  0.19180  0.13520  Biso   1.000  H
  H114     1.0000 0.40440  0.19180  0.36480  Biso   1.000  H
  H115     1.0000 0.09560  0.69180  0.13520  Biso   1.000  H
  H116     1.0000 0.90440  0.69180  0.36480  Biso   1.000  H
  H117     1.0000 0.40440  0.80820  0.86480  Biso   1.000  H
  H118     1.0000 0.59560  0.80820  0.63520  Biso   1.000  H
  H119     1.0000 0.90440  0.30820  0.86480  Biso   1.000  H
  H120     1.0000 0.09560  0.30820  0.63520  Biso   1.000  H
  C193     1.0000 0.65460  0.25790  0.16600  Biso   1.000  C
  C194     1.0000 0.34540  0.25790  0.33400  Biso   1.000  C
  C195     1.0000 0.15460  0.75790  0.16600  Biso   1.000  C
  C196     1.0000 0.84540  0.75790  0.33400  Biso   1.000  C
  C197     1.0000 0.34540  0.74210  0.83400  Biso   1.000  C
  C198     1.0000 0.65460  0.74210  0.66600  Biso   1.000  C
  C199     1.0000 0.84540  0.24210  0.83400  Biso   1.000  C
  C200     1.0000 0.15460  0.24210  0.66600  Biso   1.000  C
  H121     1.0000 0.66090  0.27910  0.12690  Biso   1.000  H
  H122     1.0000 0.33910  0.27910  0.37310  Biso   1.000  H
  H123     1.0000 0.16090  0.77910  0.12690  Biso   1.000  H
  H124     1.0000 0.83910  0.77910  0.37310  Biso   1.000  H
  H125     1.0000 0.33910  0.72090  0.87310  Biso   1.000  H
  H126     1.0000 0.66090  0.72090  0.62690  Biso   1.000  H
  H127     1.0000 0.83910  0.22090  0.87310  Biso   1.000  H
  H128     1.0000 0.16090  0.22090  0.62690  Biso   1.000  H
  C201     1.0000 0.68430  0.28030  0.22060  Biso   1.000  C
  C202     1.0000 0.31570  0.28030  0.27940  Biso   1.000  C
  C203     1.0000 0.18430  0.78030  0.22060  Biso   1.000  C
  C204     1.0000 0.81570  0.78030  0.27940  Biso   1.000  C
  C205     1.0000 0.31570  0.71970  0.77940  Biso   1.000  C
  C206     1.0000 0.68430  0.71970  0.72060  Biso   1.000  C
  C207     1.0000 0.81570  0.21970  0.77940  Biso   1.000  C
  C208     1.0000 0.18430  0.21970  0.72060  Biso   1.000  C
  C209     1.0000 0.67730  0.24680  0.27840  Biso   1.000  C
  C210     1.0000 0.32270  0.24680  0.22160  Biso   1.000  C
  C211     1.0000 0.17730  0.74680  0.27840  Biso   1.000  C
  C212     1.0000 0.82270  0.74680  0.22160  Biso   1.000  C
  C213     1.0000 0.32270  0.75320  0.72160  Biso   1.000  C
  C214     1.0000 0.67730  0.75320  0.77840  Biso   1.000  C
  C215     1.0000 0.82270  0.25320  0.72160  Biso   1.000  C
  C216     1.0000 0.17730  0.25320  0.77840  Biso   1.000  C
  H129     1.0000 0.69800  0.26090  0.31400  Biso   1.000  H
  H130     1.0000 0.30200  0.26090  0.18600  Biso   1.000  H
  H131     1.0000 0.19800  0.76090  0.31400  Biso   1.000  H
  H132     1.0000 0.80200  0.76090  0.18600  Biso   1.000  H
  H133     1.0000 0.30200  0.73910  0.68600  Biso   1.000  H
  H134     1.0000 0.69800  0.73910  0.81400  Biso   1.000  H
  H135     1.0000 0.80200  0.23910  0.68600  Biso   1.000  H
  H136     1.0000 0.19800  0.23910  0.81400  Biso   1.000  H
  C217     1.0000 0.63810  0.19070  0.28280  Biso   1.000  C
  C218     1.0000 0.36190  0.19070  0.21720  Biso   1.000  C
  C219     1.0000 0.13810  0.69070  0.28280  Biso   1.000  C
  C220     1.0000 0.86190  0.69070  0.21720  Biso   1.000  C
  C221     1.0000 0.36190  0.80930  0.71720  Biso   1.000  C
  C222     1.0000 0.63810  0.80930  0.78280  Biso   1.000  C
  C223     1.0000 0.86190  0.30930  0.71720  Biso   1.000  C
  C224     1.0000 0.13810  0.30930  0.78280  Biso   1.000  C
  H137     1.0000 0.63250  0.16850  0.32190  Biso   1.000  H
  H138     1.0000 0.36750  0.16850  0.17810  Biso   1.000  H
  H139     1.0000 0.13250  0.66850  0.32190  Biso   1.000  H
  H140     1.0000 0.86750  0.66850  0.17810  Biso   1.000  H
  H141     1.0000 0.36750  0.83150  0.67810  Biso   1.000  H
  H142     1.0000 0.63250  0.83150  0.82190  Biso   1.000  H
  H143     1.0000 0.86750  0.33150  0.67810  Biso   1.000  H
  H144     1.0000 0.13250  0.33150  0.82190  Biso   1.000  H
  C225     1.0000 0.57740  0.98130  0.42970  Biso   1.000  C
  C226     1.0000 0.42260  0.98130  0.07030  Biso   1.000  C
  C227     1.0000 0.07740  0.48130  0.42970  Biso   1.000  C
  C228     1.0000 0.92260  0.48130  0.07030  Biso   1.000  C
  C229     1.0000 0.42260  0.01870  0.57030  Biso   1.000  C
  C230     1.0000 0.57740  0.01870  0.92970  Biso   1.000  C
  C231     1.0000 0.92260  0.51870  0.57030  Biso   1.000  C
  C232     1.0000 0.07740  0.51870  0.92970  Biso   1.000  C
  H145     1.0000 0.59570  0.96630  0.39690  Biso   1.000  H
  H146     1.0000 0.40430  0.96630  0.10310  Biso   1.000  H
  H147     1.0000 0.09570  0.46630  0.39690  Biso   1.000  H
  H148     1.0000 0.90430  0.46630  0.10310  Biso   1.000  H
  H149     1.0000 0.40430  0.03370  0.60310  Biso   1.000  H
  H150     1.0000 0.59570  0.03370  0.89690  Biso   1.000  H
  H151     1.0000 0.90430  0.53370  0.60310  Biso   1.000  H
  H152     1.0000 0.09570  0.53370  0.89690  Biso   1.000  H
  C233     1.0000 0.57850  0.01130  0.54020  Biso   1.000  C
  C234     1.0000 0.42150  0.01130  0.95980  Biso   1.000  C
  C235     1.0000 0.07850  0.51130  0.54020  Biso   1.000  C
  C236     1.0000 0.92150  0.51130  0.95980  Biso   1.000  C
  C237     1.0000 0.42150  0.98870  0.45980  Biso   1.000  C
  C238     1.0000 0.57850  0.98870  0.04020  Biso   1.000  C
  C239     1.0000 0.92150  0.48870  0.45980  Biso   1.000  C
  C240     1.0000 0.07850  0.48870  0.04020  Biso   1.000  C
  H153     1.0000 0.59670  0.05840  0.55780  Biso   1.000  H
  H154     1.0000 0.40330  0.05840  0.94220  Biso   1.000  H
  H155     1.0000 0.09670  0.55840  0.55780  Biso   1.000  H
  H156     1.0000 0.90330  0.55840  0.94220  Biso   1.000  H
  H157     1.0000 0.40330  0.94160  0.44220  Biso   1.000  H
  H158     1.0000 0.59670  0.94160  0.05780  Biso   1.000  H
  H159     1.0000 0.90330  0.44160  0.44220  Biso   1.000  H
  H160     1.0000 0.09670  0.44160  0.05780  Biso   1.000  H
  H161     1.0000 0.57860  0.96790  0.57140  Biso   1.000  H
  H162     1.0000 0.42140  0.96790  0.92860  Biso   1.000  H
  H163     1.0000 0.07860  0.46790  0.57140  Biso   1.000  H
  H164     1.0000 0.92140  0.46790  0.92860  Biso   1.000  H
  H165     1.0000 0.42140  0.03210  0.42860  Biso   1.000  H
  H166     1.0000 0.57860  0.03210  0.07140  Biso   1.000  H
  H167     1.0000 0.92140  0.53210  0.42860  Biso   1.000  H
  H168     1.0000 0.07860  0.53210  0.07140  Biso   1.000  H
  H169     1.0000 0.54530  0.02780  0.52770  Biso   1.000  H
  H170     1.0000 0.45470  0.02780  0.97230  Biso   1.000  H
  H171     1.0000 0.04530  0.52780  0.52770  Biso   1.000  H
  H172     1.0000 0.95470  0.52780  0.97230  Biso   1.000  H
  H173     1.0000 0.45470  0.97220  0.47230  Biso   1.000  H
  H174     1.0000 0.54530  0.97220  0.02770  Biso   1.000  H
  H175     1.0000 0.95470  0.47220  0.47230  Biso   1.000  H
  H176     1.0000 0.04530  0.47220  0.02770  Biso   1.000  H
  C241     1.0000 0.65560  0.95840  0.49540  Biso   1.000  C
  C242     1.0000 0.34440  0.95840  0.00460  Biso   1.000  C
  C243     1.0000 0.15560  0.45840  0.49540  Biso   1.000  C
  C244     1.0000 0.84440  0.45840  0.00460  Biso   1.000  C
  C245     1.0000 0.34440  0.04160  0.50460  Biso   1.000  C
  C246     1.0000 0.65560  0.04160  0.99540  Biso   1.000  C
  C247     1.0000 0.84440  0.54160  0.50460  Biso   1.000  C
  C248     1.0000 0.15560  0.54160  0.99540  Biso   1.000  C
  H177     1.0000 0.67240  0.99800  0.52360  Biso   1.000  H
  H178     1.0000 0.32760  0.99800  0.97640  Biso   1.000  H
  H179     1.0000 0.17240  0.49800  0.52360  Biso   1.000  H
  H180     1.0000 0.82760  0.49800  0.97640  Biso   1.000  H
  H181     1.0000 0.32760  0.00200  0.47640  Biso   1.000  H
  H182     1.0000 0.67240  0.00200  0.02360  Biso   1.000  H
  H183     1.0000 0.82760  0.50200  0.47640  Biso   1.000  H
  H184     1.0000 0.17240  0.50200  0.02360  Biso   1.000  H
  H185     1.0000 0.66930  0.96000  0.45550  Biso   1.000  H
  H186     1.0000 0.33070  0.96000  0.04450  Biso   1.000  H
  H187     1.0000 0.16930  0.46000  0.45550  Biso   1.000  H
  H188     1.0000 0.83070  0.46000  0.04450  Biso   1.000  H
  H189     1.0000 0.33070  0.04000  0.54450  Biso   1.000  H
  H190     1.0000 0.66930  0.04000  0.95550  Biso   1.000  H
  H191     1.0000 0.83070  0.54000  0.54450  Biso   1.000  H
  H192     1.0000 0.16930  0.54000  0.95550  Biso   1.000  H
  H193     1.0000 0.65950  0.90340  0.51300  Biso   1.000  H
  H194     1.0000 0.34050  0.90340  0.98700  Biso   1.000  H
  H195     1.0000 0.15950  0.40340  0.51300  Biso   1.000  H
  H196     1.0000 0.84050  0.40340  0.98700  Biso   1.000  H
  H197     1.0000 0.34050  0.09660  0.48700  Biso   1.000  H
  H198     1.0000 0.65950  0.09660  0.01300  Biso   1.000  H
  H199     1.0000 0.84050  0.59660  0.48700  Biso   1.000  H
  H200     1.0000 0.15950  0.59660  0.01300  Biso   1.000  H
  C249     1.0000 0.40500  0.23600  0.98200  Biso   1.000  C
  C250     1.0000 0.59500  0.23600  0.51800  Biso   1.000  C
  C251     1.0000 0.90500  0.73600  0.98200  Biso   1.000  C
  C252     1.0000 0.09500  0.73600  0.51800  Biso   1.000  C
  C253     1.0000 0.59500  0.76400  0.01800  Biso   1.000  C
  C254     1.0000 0.40500  0.76400  0.48200  Biso   1.000  C
  C255     1.0000 0.09500  0.26400  0.01800  Biso   1.000  C
  C256     1.0000 0.90500  0.26400  0.48200  Biso   1.000  C
  H201     1.0000 0.39170  0.24730  0.94110  Biso   1.000  H
  H202     1.0000 0.60830  0.24730  0.55890  Biso   1.000  H
  H203     1.0000 0.89170  0.74730  0.94110  Biso   1.000  H
  H204     1.0000 0.10830  0.74730  0.55890  Biso   1.000  H
  H205     1.0000 0.60830  0.75270  0.05890  Biso   1.000  H
  H206     1.0000 0.39170  0.75270  0.44110  Biso   1.000  H
  H207     1.0000 0.10830  0.25270  0.05890  Biso   1.000  H
  H208     1.0000 0.89170  0.25270  0.44110  Biso   1.000  H
  C257     1.0000 0.47800  0.21200  0.05800  Biso   1.000  C
  C258     1.0000 0.52200  0.21200  0.44200  Biso   1.000  C
  C259     1.0000 0.97800  0.71200  0.05800  Biso   1.000  C
  C260     1.0000 0.02200  0.71200  0.44200  Biso   1.000  C
  C261     1.0000 0.52200  0.78800  0.94200  Biso   1.000  C
  C262     1.0000 0.47800  0.78800  0.55800  Biso   1.000  C
  C263     1.0000 0.02200  0.28800  0.94200  Biso   1.000  C
  C264     1.0000 0.97800  0.28800  0.55800  Biso   1.000  C
  H209     1.0000 0.46650  0.25060  0.08820  Biso   1.000  H
  H210     1.0000 0.53350  0.25060  0.41180  Biso   1.000  H
  H211     1.0000 0.96650  0.75060  0.08820  Biso   1.000  H
  H212     1.0000 0.03350  0.75060  0.41180  Biso   1.000  H
  H213     1.0000 0.53350  0.74940  0.91180  Biso   1.000  H
  H214     1.0000 0.46650  0.74940  0.58820  Biso   1.000  H
  H215     1.0000 0.03350  0.24940  0.91180  Biso   1.000  H
  H216     1.0000 0.96650  0.24940  0.58820  Biso   1.000  H
  H217     1.0000 0.51250  0.21730  0.05750  Biso   1.000  H
  H218     1.0000 0.48750  0.21730  0.44250  Biso   1.000  H
  H219     1.0000 0.01250  0.71730  0.05750  Biso   1.000  H
  H220     1.0000 0.98750  0.71730  0.44250  Biso   1.000  H
  H221     1.0000 0.48750  0.78270  0.94250  Biso   1.000  H
  H222     1.0000 0.51250  0.78270  0.55750  Biso   1.000  H
  H223     1.0000 0.98750  0.28270  0.94250  Biso   1.000  H
  H224     1.0000 0.01250  0.28270  0.55750  Biso   1.000  H
  H225     1.0000 0.47000  0.15590  0.07050  Biso   1.000  H
  H226     1.0000 0.53000  0.15590  0.42950  Biso   1.000  H
  H227     1.0000 0.97000  0.65590  0.07050  Biso   1.000  H
  H228     1.0000 0.03000  0.65590  0.42950  Biso   1.000  H
  H229     1.0000 0.53000  0.84410  0.92950  Biso   1.000  H
  H230     1.0000 0.47000  0.84410  0.57050  Biso   1.000  H
  H231     1.0000 0.03000  0.34410  0.92950  Biso   1.000  H
  H232     1.0000 0.97000  0.34410  0.57050  Biso   1.000  H
  C265     1.0000 0.48500  0.24200  0.94400  Biso   1.000  C
  C266     1.0000 0.51500  0.24200  0.55600  Biso   1.000  C
  C267     1.0000 0.98500  0.74200  0.94400  Biso   1.000  C
  C268     1.0000 0.01500  0.74200  0.55600  Biso   1.000  C
  C269     1.0000 0.51500  0.75800  0.05600  Biso   1.000  C
  C270     1.0000 0.48500  0.75800  0.44400  Biso   1.000  C
  C271     1.0000 0.01500  0.25800  0.05600  Biso   1.000  C
  C272     1.0000 0.98500  0.25800  0.44400  Biso   1.000  C
  H233     1.0000 0.48500  0.19280  0.91870  Biso   1.000  H
  H234     1.0000 0.51500  0.19280  0.58130  Biso   1.000  H
  H235     1.0000 0.98500  0.69280  0.91870  Biso   1.000  H
  H236     1.0000 0.01500  0.69280  0.58130  Biso   1.000  H
  H237     1.0000 0.51500  0.80720  0.08130  Biso   1.000  H
  H238     1.0000 0.48500  0.80720  0.41870  Biso   1.000  H
  H239     1.0000 0.01500  0.30720  0.08130  Biso   1.000  H
  H240     1.0000 0.98500  0.30720  0.41870  Biso   1.000  H
  H241     1.0000 0.51810  0.25350  0.96200  Biso   1.000  H
  H242     1.0000 0.48190  0.25350  0.53800  Biso   1.000  H
  H243     1.0000 0.01810  0.75350  0.96200  Biso   1.000  H
  H244     1.0000 0.98190  0.75350  0.53800  Biso   1.000  H
  H245     1.0000 0.48190  0.74650  0.03800  Biso   1.000  H
  H246     1.0000 0.51810  0.74650  0.46200  Biso   1.000  H
  H247     1.0000 0.98190  0.24650  0.03800  Biso   1.000  H
  H248     1.0000 0.01810  0.24650  0.46200  Biso   1.000  H
  H249     1.0000 0.47320  0.28860  0.91870  Biso   1.000  H
  H250     1.0000 0.52680  0.28860  0.58130  Biso   1.000  H
  H251     1.0000 0.97320  0.78860  0.91870  Biso   1.000  H
  H252     1.0000 0.02680  0.78860  0.58130  Biso   1.000  H
  H253     1.0000 0.52680  0.71140  0.08130  Biso   1.000  H
  H254     1.0000 0.47320  0.71140  0.41870  Biso   1.000  H
  H255     1.0000 0.02680  0.21140  0.08130  Biso   1.000  H
  H256     1.0000 0.97320  0.21140  0.41870  Biso   1.000  H
  C273     1.0000 0.60500  0.25000  0.44000  Biso   1.000  C
  C274     1.0000 0.39500  0.25000  0.06000  Biso   1.000  C
  C275     1.0000 0.10500  0.75000  0.44000  Biso   1.000  C
  C276     1.0000 0.89500  0.75000  0.06000  Biso   1.000  C
  C277     1.0000 0.39500  0.75000  0.56000  Biso   1.000  C
  C278     1.0000 0.60500  0.75000  0.94000  Biso   1.000  C
  C279     1.0000 0.89500  0.25000  0.56000  Biso   1.000  C
  C280     1.0000 0.10500  0.25000  0.94000  Biso   1.000  C
  H257     1.0000 0.62270  0.27370  0.40990  Biso   1.000  H
  H258     1.0000 0.37730  0.27370  0.09010  Biso   1.000  H
  H259     1.0000 0.12270  0.77370  0.40990  Biso   1.000  H
  H260     1.0000 0.87730  0.77370  0.09010  Biso   1.000  H
  H261     1.0000 0.37730  0.72630  0.59010  Biso   1.000  H
  H262     1.0000 0.62270  0.72630  0.90990  Biso   1.000  H
  H263     1.0000 0.87730  0.22630  0.59010  Biso   1.000  H
  H264     1.0000 0.12270  0.22630  0.90990  Biso   1.000  H
  C281     1.0000 0.53000  0.19900  0.48100  Biso   1.000  C
  C282     1.0000 0.47000  0.19900  0.01900  Biso   1.000  C
  C283     1.0000 0.03000  0.69900  0.48100  Biso   1.000  C
  C284     1.0000 0.97000  0.69900  0.01900  Biso   1.000  C
  C285     1.0000 0.47000  0.80100  0.51900  Biso   1.000  C
  C286     1.0000 0.53000  0.80100  0.98100  Biso   1.000  C
  C287     1.0000 0.97000  0.30100  0.51900  Biso   1.000  C
  C288     1.0000 0.03000  0.30100  0.98100  Biso   1.000  C
  H265     1.0000 0.53920  0.22650  0.52030  Biso   1.000  H
  H266     1.0000 0.46080  0.22650  0.97970  Biso   1.000  H
  H267     1.0000 0.03920  0.72650  0.52030  Biso   1.000  H
  H268     1.0000 0.96080  0.72650  0.97970  Biso   1.000  H
  H269     1.0000 0.46080  0.77350  0.47970  Biso   1.000  H
  H270     1.0000 0.53920  0.77350  0.02030  Biso   1.000  H
  H271     1.0000 0.96080  0.27350  0.47970  Biso   1.000  H
  H272     1.0000 0.03920  0.27350  0.02030  Biso   1.000  H
  H273     1.0000 0.53780  0.14110  0.48410  Biso   1.000  H
  H274     1.0000 0.46220  0.14110  0.01590  Biso   1.000  H
  H275     1.0000 0.03780  0.64110  0.48410  Biso   1.000  H
  H276     1.0000 0.96220  0.64110  0.01590  Biso   1.000  H
  H277     1.0000 0.46220  0.85890  0.51590  Biso   1.000  H
  H278     1.0000 0.53780  0.85890  0.98410  Biso   1.000  H
  H279     1.0000 0.96220  0.35890  0.51590  Biso   1.000  H
  H280     1.0000 0.03780  0.35890  0.98410  Biso   1.000  H
  H281     1.0000 0.49540  0.20610  0.46980  Biso   1.000  H
  H282     1.0000 0.50460  0.20610  0.03020  Biso   1.000  H
  H283     1.0000 0.99540  0.70610  0.46980  Biso   1.000  H
  H284     1.0000 0.00460  0.70610  0.03020  Biso   1.000  H
  H285     1.0000 0.50460  0.79390  0.53020  Biso   1.000  H
  H286     1.0000 0.49540  0.79390  0.96980  Biso   1.000  H
  H287     1.0000 0.00460  0.29390  0.53020  Biso   1.000  H
  H288     1.0000 0.99540  0.29390  0.96980  Biso   1.000  H
  C289     1.0000 0.52800  0.25900  0.37200  Biso   1.000  C
  C290     1.0000 0.47200  0.25900  0.12800  Biso   1.000  C
  C291     1.0000 0.02800  0.75900  0.37200  Biso   1.000  C
  C292     1.0000 0.97200  0.75900  0.12800  Biso   1.000  C
  C293     1.0000 0.47200  0.74100  0.62800  Biso   1.000  C
  C294     1.0000 0.52800  0.74100  0.87200  Biso   1.000  C
  C295     1.0000 0.97200  0.24100  0.62800  Biso   1.000  C
  C296     1.0000 0.02800  0.24100  0.87200  Biso   1.000  C
  H289     1.0000 0.49370  0.25770  0.37830  Biso   1.000  H
  H290     1.0000 0.50630  0.25770  0.12170  Biso   1.000  H
  H291     1.0000 0.99370  0.75770  0.37830  Biso   1.000  H
  H292     1.0000 0.00630  0.75770  0.12170  Biso   1.000  H
  H293     1.0000 0.50630  0.74230  0.62170  Biso   1.000  H
  H294     1.0000 0.49370  0.74230  0.87830  Biso   1.000  H
  H295     1.0000 0.00630  0.24230  0.62170  Biso   1.000  H
  H296     1.0000 0.99370  0.24230  0.87830  Biso   1.000  H
  H297     1.0000 0.53430  0.21890  0.34000  Biso   1.000  H
  H298     1.0000 0.46570  0.21890  0.16000  Biso   1.000  H
  H299     1.0000 0.03430  0.71890  0.34000  Biso   1.000  H
  H300     1.0000 0.96570  0.71890  0.16000  Biso   1.000  H
  H301     1.0000 0.46570  0.78110  0.66000  Biso   1.000  H
  H302     1.0000 0.53430  0.78110  0.84000  Biso   1.000  H
  H303     1.0000 0.96570  0.28110  0.66000  Biso   1.000  H
  H304     1.0000 0.03430  0.28110  0.84000  Biso   1.000  H
  H305     1.0000 0.53670  0.31360  0.35860  Biso   1.000  H
  H306     1.0000 0.46330  0.31360  0.14140  Biso   1.000  H
  H307     1.0000 0.03670  0.81360  0.35860  Biso   1.000  H
  H308     1.0000 0.96330  0.81360  0.14140  Biso   1.000  H
  H309     1.0000 0.46330  0.68640  0.64140  Biso   1.000  H
  H310     1.0000 0.53670  0.68640  0.85860  Biso   1.000  H
  H311     1.0000 0.96330  0.18640  0.64140  Biso   1.000  H
  H312     1.0000 0.03670  0.18640  0.85860  Biso   1.000  H
  C297     1.0000 0.49600  0.47400  0.36200  Biso   1.000  C
  C298     1.0000 0.50400  0.47400  0.13800  Biso   1.000  C
  C299     1.0000 0.99600  0.97400  0.36200  Biso   1.000  C
  C300     1.0000 0.00400  0.97400  0.13800  Biso   1.000  C
  C301     1.0000 0.50400  0.52600  0.63800  Biso   1.000  C
  C302     1.0000 0.49600  0.52600  0.86200  Biso   1.000  C
  C303     1.0000 0.00400  0.02600  0.63800  Biso   1.000  C
  C304     1.0000 0.99600  0.02600  0.86200  Biso   1.000  C
  H313     1.0000 0.47290  0.51510  0.36870  Biso   1.000  H
  H314     1.0000 0.52710  0.51510  0.13130  Biso   1.000  H
  H315     1.0000 0.97290  0.01510  0.36870  Biso   1.000  H
  H316     1.0000 0.02710  0.01510  0.13130  Biso   1.000  H
  H317     1.0000 0.52710  0.48490  0.63130  Biso   1.000  H
  H318     1.0000 0.47290  0.48490  0.86870  Biso   1.000  H
  H319     1.0000 0.02710  0.98490  0.63130  Biso   1.000  H
  H320     1.0000 0.97290  0.98490  0.86870  Biso   1.000  H
  C305     1.0000 0.55000  0.39100  0.29900  Biso   1.000  C
  C306     1.0000 0.45000  0.39100  0.20100  Biso   1.000  C
  C307     1.0000 0.05000  0.89100  0.29900  Biso   1.000  C
  C308     1.0000 0.95000  0.89100  0.20100  Biso   1.000  C
  C309     1.0000 0.45000  0.60900  0.70100  Biso   1.000  C
  C310     1.0000 0.55000  0.60900  0.79900  Biso   1.000  C
  C311     1.0000 0.95000  0.10900  0.70100  Biso   1.000  C
  C312     1.0000 0.05000  0.10900  0.79900  Biso   1.000  C
  H321     1.0000 0.58160  0.41500  0.29210  Biso   1.000  H
  H322     1.0000 0.41840  0.41500  0.20790  Biso   1.000  H
  H323     1.0000 0.08160  0.91500  0.29210  Biso   1.000  H
  H324     1.0000 0.91840  0.91500  0.20790  Biso   1.000  H
  H325     1.0000 0.41840  0.58500  0.70790  Biso   1.000  H
  H326     1.0000 0.58160  0.58500  0.79210  Biso   1.000  H
  H327     1.0000 0.91840  0.08500  0.70790  Biso   1.000  H
  H328     1.0000 0.08160  0.08500  0.79210  Biso   1.000  H
  H329     1.0000 0.53890  0.35680  0.26400  Biso   1.000  H
  H330     1.0000 0.46110  0.35680  0.23600  Biso   1.000  H
  H331     1.0000 0.03890  0.85680  0.26400  Biso   1.000  H
  H332     1.0000 0.96110  0.85680  0.23600  Biso   1.000  H
  H333     1.0000 0.46110  0.64320  0.73600  Biso   1.000  H
  H334     1.0000 0.53890  0.64320  0.76400  Biso   1.000  H
  H335     1.0000 0.96110  0.14320  0.73600  Biso   1.000  H
  H336     1.0000 0.03890  0.14320  0.76400  Biso   1.000  H
  H337     1.0000 0.55410  0.35770  0.33690  Biso   1.000  H
  H338     1.0000 0.44590  0.35770  0.16310  Biso   1.000  H
  H339     1.0000 0.05410  0.85770  0.33690  Biso   1.000  H
  H340     1.0000 0.94590  0.85770  0.16310  Biso   1.000  H
  H341     1.0000 0.44590  0.64230  0.66310  Biso   1.000  H
  H342     1.0000 0.55410  0.64230  0.83690  Biso   1.000  H
  H343     1.0000 0.94590  0.14230  0.66310  Biso   1.000  H
  H344     1.0000 0.05410  0.14230  0.83690  Biso   1.000  H
  C313     1.0000 0.50000  0.50900  0.25000  Biso   1.000  C
  C314     1.0000 0.00000  0.00900  0.25000  Biso   1.000  C
  C315     1.0000 0.50000  0.49100  0.75000  Biso   1.000  C
  C316     1.0000 0.00000  0.99100  0.75000  Biso   1.000  C
  H345     1.0000 0.52850  0.51100  0.22710  Biso   1.000  H
  H346     1.0000 0.47150  0.51100  0.27290  Biso   1.000  H
  H347     1.0000 0.02850  0.01100  0.22710  Biso   1.000  H
  H348     1.0000 0.97150  0.01100  0.27290  Biso   1.000  H
  H349     1.0000 0.47150  0.48900  0.77290  Biso   1.000  H
  H350     1.0000 0.52850  0.48900  0.72710  Biso   1.000  H
  H351     1.0000 0.97150  0.98900  0.77290  Biso   1.000  H
  H352     1.0000 0.02850  0.98900  0.72710  Biso   1.000  H
  H353     1.0000 0.49210  0.56460  0.26280  Biso   1.000  H
  H354     1.0000 0.50790  0.56460  0.23720  Biso   1.000  H
  H355     1.0000 0.99210  0.06460  0.26280  Biso   1.000  H
  H356     1.0000 0.00790  0.06460  0.23720  Biso   1.000  H
  H357     1.0000 0.50790  0.43540  0.73720  Biso   1.000  H
  H358     1.0000 0.49210  0.43540  0.76280  Biso   1.000  H
  H359     1.0000 0.00790  0.93540  0.73720  Biso   1.000  H
  H360     1.0000 0.99210  0.93540  0.76280  Biso   1.000  H
  H361     1.0000 0.47290  0.48660  0.22340  Biso   1.000  H
  H362     1.0000 0.52710  0.48660  0.27660  Biso   1.000  H
  H363     1.0000 0.97290  0.98660  0.22340  Biso   1.000  H
  H364     1.0000 0.02710  0.98660  0.27660  Biso   1.000  H
  H365     1.0000 0.52710  0.51340  0.77660  Biso   1.000  H
  H366     1.0000 0.47290  0.51340  0.72340  Biso   1.000  H
  H367     1.0000 0.02710  0.01340  0.77660  Biso   1.000  H
  H368     1.0000 0.97290  0.01340  0.72340  Biso   1.000  H
  C317     1.0000 0.32000  0.39400  0.51900  Biso   1.000  C
  C318     1.0000 0.68000  0.39400  0.98100  Biso   1.000  C
  C319     1.0000 0.82000  0.89400  0.51900  Biso   1.000  C
  C320     1.0000 0.18000  0.89400  0.98100  Biso   1.000  C
  C321     1.0000 0.68000  0.60600  0.48100  Biso   1.000  C
  C322     1.0000 0.32000  0.60600  0.01900  Biso   1.000  C
  C323     1.0000 0.18000  0.10600  0.48100  Biso   1.000  C
  C324     1.0000 0.82000  0.10600  0.01900  Biso   1.000  C
  H369     1.0000 0.33800  0.44250  0.52400  Biso   1.000  H
  H370     1.0000 0.66200  0.44250  0.97600  Biso   1.000  H
  H371     1.0000 0.83800  0.94250  0.52400  Biso   1.000  H
  H372     1.0000 0.16200  0.94250  0.97600  Biso   1.000  H
  H373     1.0000 0.66200  0.55750  0.47600  Biso   1.000  H
  H374     1.0000 0.33800  0.55750  0.02400  Biso   1.000  H
  H375     1.0000 0.16200  0.05750  0.47600  Biso   1.000  H
  H376     1.0000 0.83800  0.05750  0.02400  Biso   1.000  H
  C325     1.0000 0.30500  0.24500  0.50600  Biso   1.000  C
  C326     1.0000 0.69500  0.24500  0.99400  Biso   1.000  C
  C327     1.0000 0.80500  0.74500  0.50600  Biso   1.000  C
  C328     1.0000 0.19500  0.74500  0.99400  Biso   1.000  C
  C329     1.0000 0.69500  0.75500  0.49400  Biso   1.000  C
  C330     1.0000 0.30500  0.75500  0.00600  Biso   1.000  C
  C331     1.0000 0.19500  0.25500  0.49400  Biso   1.000  C
  C332     1.0000 0.80500  0.25500  0.00600  Biso   1.000  C
  H377     1.0000 0.32360  0.19480  0.51250  Biso   1.000  H
  H378     1.0000 0.67640  0.19480  0.98750  Biso   1.000  H
  H379     1.0000 0.82360  0.69480  0.51250  Biso   1.000  H
  H380     1.0000 0.17640  0.69480  0.98750  Biso   1.000  H
  H381     1.0000 0.67640  0.80520  0.48750  Biso   1.000  H
  H382     1.0000 0.32360  0.80520  0.01250  Biso   1.000  H
  H383     1.0000 0.17640  0.30520  0.48750  Biso   1.000  H
  H384     1.0000 0.82360  0.30520  0.01250  Biso   1.000  H
  H385     1.0000 0.28830  0.24550  0.46430  Biso   1.000  H
  H386     1.0000 0.71170  0.24550  0.03570  Biso   1.000  H
  H387     1.0000 0.78830  0.74550  0.46430  Biso   1.000  H
  H388     1.0000 0.21170  0.74550  0.03570  Biso   1.000  H
  H389     1.0000 0.71170  0.75450  0.53570  Biso   1.000  H
  H390     1.0000 0.28830  0.75450  0.96430  Biso   1.000  H
  H391     1.0000 0.21170  0.25450  0.53570  Biso   1.000  H
  H392     1.0000 0.78830  0.25450  0.96430  Biso   1.000  H
  H393     1.0000 0.28120  0.24840  0.53660  Biso   1.000  H
  H394     1.0000 0.71880  0.24840  0.96340  Biso   1.000  H
  H395     1.0000 0.78120  0.74840  0.53660  Biso   1.000  H
  H396     1.0000 0.21880  0.74840  0.96340  Biso   1.000  H
  H397     1.0000 0.71880  0.75160  0.46340  Biso   1.000  H
  H398     1.0000 0.28120  0.75160  0.03660  Biso   1.000  H
  H399     1.0000 0.21880  0.25160  0.46340  Biso   1.000  H
  H400     1.0000 0.78120  0.25160  0.03660  Biso   1.000  H
  C333     1.0000 0.39000  0.29800  0.51500  Biso   1.000  C
  C334     1.0000 0.61000  0.29800  0.98500  Biso   1.000  C
  C335     1.0000 0.89000  0.79800  0.51500  Biso   1.000  C
  C336     1.0000 0.11000  0.79800  0.98500  Biso   1.000  C
  C337     1.0000 0.61000  0.70200  0.48500  Biso   1.000  C
  C338     1.0000 0.39000  0.70200  0.01500  Biso   1.000  C
  C339     1.0000 0.11000  0.20200  0.48500  Biso   1.000  C
  C340     1.0000 0.89000  0.20200  0.01500  Biso   1.000  C
  H401     1.0000 0.40500  0.30450  0.55730  Biso   1.000  H
  H402     1.0000 0.59500  0.30450  0.94270  Biso   1.000  H
  H403     1.0000 0.90500  0.80450  0.55730  Biso   1.000  H
  H404     1.0000 0.09500  0.80450  0.94270  Biso   1.000  H
  H405     1.0000 0.59500  0.69550  0.44270  Biso   1.000  H
  H406     1.0000 0.40500  0.69550  0.05730  Biso   1.000  H
  H407     1.0000 0.09500  0.19550  0.44270  Biso   1.000  H
  H408     1.0000 0.90500  0.19550  0.05730  Biso   1.000  H
  H409     1.0000 0.40470  0.33630  0.48760  Biso   1.000  H
  H410     1.0000 0.59530  0.33630  0.01240  Biso   1.000  H
  H411     1.0000 0.90470  0.83630  0.48760  Biso   1.000  H
  H412     1.0000 0.09530  0.83630  0.01240  Biso   1.000  H
  H413     1.0000 0.59530  0.66370  0.51240  Biso   1.000  H
  H414     1.0000 0.40470  0.66370  0.98760  Biso   1.000  H
  H415     1.0000 0.09530  0.16370  0.51240  Biso   1.000  H
  H416     1.0000 0.90470  0.16370  0.98760  Biso   1.000  H
  H417     1.0000 0.39400  0.24220  0.50090  Biso   1.000  H
  H418     1.0000 0.60600  0.24220  0.99910  Biso   1.000  H
  H419     1.0000 0.89400  0.74220  0.50090  Biso   1.000  H
  H420     1.0000 0.10600  0.74220  0.99910  Biso   1.000  H
  H421     1.0000 0.60600  0.75780  0.49910  Biso   1.000  H
  H422     1.0000 0.39400  0.75780  0.00090  Biso   1.000  H
  H423     1.0000 0.10600  0.25780  0.49910  Biso   1.000  H
  H424     1.0000 0.89400  0.25780  0.00090  Biso   1.000  H
  C341     1.0000 0.40200  0.41300  0.50000  Biso   1.000  C
  C342     1.0000 0.59800  0.41300  0.00000  Biso   1.000  C
  C343     1.0000 0.90200  0.91300  0.50000  Biso   1.000  C
  C344     1.0000 0.09800  0.91300  0.00000  Biso   1.000  C
  C345     1.0000 0.59800  0.58700  0.50000  Biso   1.000  C
  C346     1.0000 0.40200  0.58700  0.00000  Biso   1.000  C
  C347     1.0000 0.09800  0.08700  0.50000  Biso   1.000  C
  C348     1.0000 0.90200  0.08700  0.00000  Biso   1.000  C
  H425     1.0000 0.41920  0.36760  0.48650  Biso   1.000  H
  H426     1.0000 0.58080  0.36760  0.01350  Biso   1.000  H
  H427     1.0000 0.91920  0.86760  0.48650  Biso   1.000  H
  H428     1.0000 0.08080  0.86760  0.01350  Biso   1.000  H
  H429     1.0000 0.58080  0.63240  0.51350  Biso   1.000  H
  H430     1.0000 0.41920  0.63240  0.98650  Biso   1.000  H
  H431     1.0000 0.08080  0.13240  0.51350  Biso   1.000  H
  H432     1.0000 0.91920  0.13240  0.98650  Biso   1.000  H
  C349     1.0000 0.46300  0.51300  0.46800  Biso   1.000  C
  C350     1.0000 0.53700  0.51300  0.03200  Biso   1.000  C
  C351     1.0000 0.96300  0.01300  0.46800  Biso   1.000  C
  C352     1.0000 0.03700  0.01300  0.03200  Biso   1.000  C
  C353     1.0000 0.53700  0.48700  0.53200  Biso   1.000  C
  C354     1.0000 0.46300  0.48700  0.96800  Biso   1.000  C
  C355     1.0000 0.03700  0.98700  0.53200  Biso   1.000  C
  C356     1.0000 0.96300  0.98700  0.96800  Biso   1.000  C
  H433     1.0000 0.48410  0.54290  0.49970  Biso   1.000  H
  H434     1.0000 0.51590  0.54290  0.00030  Biso   1.000  H
  H435     1.0000 0.98410  0.04290  0.49970  Biso   1.000  H
  H436     1.0000 0.01590  0.04290  0.00030  Biso   1.000  H
  H437     1.0000 0.51590  0.45710  0.50030  Biso   1.000  H
  H438     1.0000 0.48410  0.45710  0.99970  Biso   1.000  H
  H439     1.0000 0.01590  0.95710  0.50030  Biso   1.000  H
  H440     1.0000 0.98410  0.95710  0.99970  Biso   1.000  H
  H441     1.0000 0.45620  0.54820  0.43190  Biso   1.000  H
  H442     1.0000 0.54380  0.54820  0.06810  Biso   1.000  H
  H443     1.0000 0.95620  0.04820  0.43190  Biso   1.000  H
  H444     1.0000 0.04380  0.04820  0.06810  Biso   1.000  H
  H445     1.0000 0.54380  0.45180  0.56810  Biso   1.000  H
  H446     1.0000 0.45620  0.45180  0.93190  Biso   1.000  H
  H447     1.0000 0.04380  0.95180  0.56810  Biso   1.000  H
  H448     1.0000 0.95620  0.95180  0.93190  Biso   1.000  H
  H449     1.0000 0.47900  0.46320  0.45680  Biso   1.000  H
  H450     1.0000 0.52100  0.46320  0.04320  Biso   1.000  H
  H451     1.0000 0.97900  0.96320  0.45680  Biso   1.000  H
  H452     1.0000 0.02100  0.96320  0.04320  Biso   1.000  H
  H453     1.0000 0.52100  0.53680  0.54320  Biso   1.000  H
  H454     1.0000 0.47900  0.53680  0.95680  Biso   1.000  H
  H455     1.0000 0.02100  0.03680  0.54320  Biso   1.000  H
  H456     1.0000 0.97900  0.03680  0.95680  Biso   1.000  H
  C357     1.0000 0.38900  0.56300  0.51600  Biso   1.000  C
  C358     1.0000 0.61100  0.56300  0.98400  Biso   1.000  C
  C359     1.0000 0.88900  0.06300  0.51600  Biso   1.000  C
  C360     1.0000 0.11100  0.06300  0.98400  Biso   1.000  C
  C361     1.0000 0.61100  0.43700  0.48400  Biso   1.000  C
  C362     1.0000 0.38900  0.43700  0.01600  Biso   1.000  C
  C363     1.0000 0.11100  0.93700  0.48400  Biso   1.000  C
  C364     1.0000 0.88900  0.93700  0.01600  Biso   1.000  C
  H457     1.0000 0.38660  0.60550  0.48380  Biso   1.000  H
  H458     1.0000 0.61340  0.60550  0.01620  Biso   1.000  H
  H459     1.0000 0.88660  0.10550  0.48380  Biso   1.000  H
  H460     1.0000 0.11340  0.10550  0.01620  Biso   1.000  H
  H461     1.0000 0.61340  0.39450  0.51620  Biso   1.000  H
  H462     1.0000 0.38660  0.39450  0.98380  Biso   1.000  H
  H463     1.0000 0.11340  0.89450  0.51620  Biso   1.000  H
  H464     1.0000 0.88660  0.89450  0.98380  Biso   1.000  H
  H465     1.0000 0.40550  0.58540  0.55410  Biso   1.000  H
  H466     1.0000 0.59450  0.58540  0.94590  Biso   1.000  H
  H467     1.0000 0.90550  0.08540  0.55410  Biso   1.000  H
  H468     1.0000 0.09450  0.08540  0.94590  Biso   1.000  H
  H469     1.0000 0.59450  0.41460  0.44590  Biso   1.000  H
  H470     1.0000 0.40550  0.41460  0.05410  Biso   1.000  H
  H471     1.0000 0.09450  0.91460  0.44590  Biso   1.000  H
  H472     1.0000 0.90550  0.91460  0.05410  Biso   1.000  H
  H473     1.0000 0.35680  0.54480  0.52360  Biso   1.000  H
  H474     1.0000 0.64320  0.54480  0.97640  Biso   1.000  H
  H475     1.0000 0.85680  0.04480  0.52360  Biso   1.000  H
  H476     1.0000 0.14320  0.04480  0.97640  Biso   1.000  H
  H477     1.0000 0.64320  0.45520  0.47640  Biso   1.000  H
  H478     1.0000 0.35680  0.45520  0.02360  Biso   1.000  H
  H479     1.0000 0.14320  0.95520  0.47640  Biso   1.000  H
  H480     1.0000 0.85680  0.95520  0.02360  Biso   1.000  H
