data_image0
_cell_length_a       39.484
_cell_length_b       39.484
_cell_length_c       39.484
_cell_angle_alpha    90
_cell_angle_beta     90
_cell_angle_gamma    90

_symmetry_space_group_name_H-M    "P 1"
_symmetry_int_tables_number       1

loop_
  _symmetry_equiv_pos_as_xyz
  'x, y, z'

loop_
  _atom_site_label
  _atom_site_occupancy
  _atom_site_fract_x
  _atom_site_fract_y
  _atom_site_fract_z
  _atom_site_thermal_displace_type
  _atom_site_B_iso_or_equiv
  _atom_site_type_symbol
  Cu1      1.0000 0.03543  0.54087  0.26381  Biso   1.000  Cu
  Cu2      1.0000 0.26381  0.03543  0.54087  Biso   1.000  Cu
  Cu3      1.0000 0.54087  0.26381  0.03543  Biso   1.000  Cu
  Cu4      1.0000 0.95913  0.73619  0.53543  Biso   1.000  Cu
  Cu5      1.0000 0.76381  0.46457  0.45913  Biso   1.000  Cu
  Cu6      1.0000 0.45913  0.76381  0.46457  Biso   1.000  Cu
  Cu7      1.0000 0.23619  0.96457  0.04087  Biso   1.000  Cu
  Cu8      1.0000 0.73619  0.53543  0.95913  Biso   1.000  Cu
  Cu9      1.0000 0.04087  0.23619  0.96457  Biso   1.000  Cu
  Cu10     1.0000 0.46457  0.45913  0.76381  Biso   1.000  Cu
  Cu11     1.0000 0.53543  0.95913  0.73619  Biso   1.000  Cu
  Cu12     1.0000 0.96457  0.04087  0.23619  Biso   1.000  Cu
  Cu13     1.0000 0.96457  0.45913  0.73619  Biso   1.000  Cu
  Cu14     1.0000 0.73619  0.96457  0.45913  Biso   1.000  Cu
  Cu15     1.0000 0.45913  0.73619  0.96457  Biso   1.000  Cu
  Cu16     1.0000 0.04087  0.26381  0.46457  Biso   1.000  Cu
  Cu17     1.0000 0.23619  0.53543  0.54087  Biso   1.000  Cu
  Cu18     1.0000 0.54087  0.23619  0.53543  Biso   1.000  Cu
  Cu19     1.0000 0.76381  0.03543  0.95913  Biso   1.000  Cu
  Cu20     1.0000 0.26381  0.46457  0.04087  Biso   1.000  Cu
  Cu21     1.0000 0.95913  0.76381  0.03543  Biso   1.000  Cu
  Cu22     1.0000 0.53543  0.54087  0.23619  Biso   1.000  Cu
  Cu23     1.0000 0.46457  0.04087  0.26381  Biso   1.000  Cu
  Cu24     1.0000 0.03543  0.95913  0.76381  Biso   1.000  Cu
  Cu25     1.0000 0.02554  0.52929  0.32853  Biso   1.000  Cu
  Cu26     1.0000 0.32853  0.02554  0.52929  Biso   1.000  Cu
  Cu27     1.0000 0.52929  0.32853  0.02554  Biso   1.000  Cu
  Cu28     1.0000 0.97071  0.67147  0.52554  Biso   1.000  Cu
  Cu29     1.0000 0.82853  0.47446  0.47071  Biso   1.000  Cu
  Cu30     1.0000 0.47071  0.82853  0.47446  Biso   1.000  Cu
  Cu31     1.0000 0.17147  0.97446  0.02929  Biso   1.000  Cu
  Cu32     1.0000 0.67147  0.52554  0.97071  Biso   1.000  Cu
  Cu33     1.0000 0.02929  0.17147  0.97446  Biso   1.000  Cu
  Cu34     1.0000 0.47446  0.47071  0.82853  Biso   1.000  Cu
  Cu35     1.0000 0.52554  0.97071  0.67147  Biso   1.000  Cu
  Cu36     1.0000 0.97446  0.02929  0.17147  Biso   1.000  Cu
  Cu37     1.0000 0.97446  0.47071  0.67147  Biso   1.000  Cu
  Cu38     1.0000 0.67147  0.97446  0.47071  Biso   1.000  Cu
  Cu39     1.0000 0.47071  0.67147  0.97446  Biso   1.000  Cu
  Cu40     1.0000 0.02929  0.32853  0.47446  Biso   1.000  Cu
  Cu41     1.0000 0.17147  0.52554  0.52929  Biso   1.000  Cu
  Cu42     1.0000 0.52929  0.17147  0.52554  Biso   1.000  Cu
  Cu43     1.0000 0.82853  0.02554  0.97071  Biso   1.000  Cu
  Cu44     1.0000 0.32853  0.47446  0.02929  Biso   1.000  Cu
  Cu45     1.0000 0.97071  0.82853  0.02554  Biso   1.000  Cu
  Cu46     1.0000 0.52554  0.52929  0.17147  Biso   1.000  Cu
  Cu47     1.0000 0.47446  0.02929  0.32853  Biso   1.000  Cu
  Cu48     1.0000 0.02554  0.97071  0.82853  Biso   1.000  Cu
  O1       1.0000 0.03368  0.48148  0.31775  Biso   1.000  O
  O2       1.0000 0.31775  0.03368  0.48148  Biso   1.000  O
  O3       1.0000 0.48148  0.31775  0.03368  Biso   1.000  O
  O4       1.0000 0.01852  0.68225  0.53368  Biso   1.000  O
  O5       1.0000 0.81775  0.46632  0.51852  Biso   1.000  O
  O6       1.0000 0.51852  0.81775  0.46632  Biso   1.000  O
  O7       1.0000 0.18225  0.96632  0.98148  Biso   1.000  O
  O8       1.0000 0.68225  0.53368  0.01852  Biso   1.000  O
  O9       1.0000 0.98148  0.18225  0.96632  Biso   1.000  O
  O10      1.0000 0.46632  0.51852  0.81775  Biso   1.000  O
  O11      1.0000 0.53368  0.01852  0.68225  Biso   1.000  O
  O12      1.0000 0.96632  0.98148  0.18225  Biso   1.000  O
  O13      1.0000 0.96632  0.51852  0.68225  Biso   1.000  O
  O14      1.0000 0.68225  0.96632  0.51852  Biso   1.000  O
  O15      1.0000 0.51852  0.68225  0.96632  Biso   1.000  O
  O16      1.0000 0.98148  0.31775  0.46632  Biso   1.000  O
  O17      1.0000 0.18225  0.53368  0.48148  Biso   1.000  O
  O18      1.0000 0.48148  0.18225  0.53368  Biso   1.000  O
  O19      1.0000 0.81775  0.03368  0.01852  Biso   1.000  O
  O20      1.0000 0.31775  0.46632  0.98148  Biso   1.000  O
  O21      1.0000 0.01852  0.81775  0.03368  Biso   1.000  O
  O22      1.0000 0.53368  0.48148  0.18225  Biso   1.000  O
  O23      1.0000 0.46632  0.98148  0.31775  Biso   1.000  O
  O24      1.0000 0.03368  0.01852  0.81775  Biso   1.000  O
  O25      1.0000 0.03498  0.49361  0.25905  Biso   1.000  O
  O26      1.0000 0.25905  0.03498  0.49361  Biso   1.000  O
  O27      1.0000 0.49361  0.25905  0.03498  Biso   1.000  O
  O28      1.0000 0.00639  0.74095  0.53498  Biso   1.000  O
  O29      1.0000 0.75905  0.46502  0.50639  Biso   1.000  O
  O30      1.0000 0.50639  0.75905  0.46502  Biso   1.000  O
  O31      1.0000 0.24095  0.96502  0.99361  Biso   1.000  O
  O32      1.0000 0.74095  0.53498  0.00639  Biso   1.000  O
  O33      1.0000 0.99361  0.24095  0.96502  Biso   1.000  O
  O34      1.0000 0.46502  0.50639  0.75905  Biso   1.000  O
  O35      1.0000 0.53498  0.00639  0.74095  Biso   1.000  O
  O36      1.0000 0.96502  0.99361  0.24095  Biso   1.000  O
  O37      1.0000 0.96502  0.50639  0.74095  Biso   1.000  O
  O38      1.0000 0.74095  0.96502  0.50639  Biso   1.000  O
  O39      1.0000 0.50639  0.74095  0.96502  Biso   1.000  O
  O40      1.0000 0.99361  0.25905  0.46502  Biso   1.000  O
  O41      1.0000 0.24095  0.53498  0.49361  Biso   1.000  O
  O42      1.0000 0.49361  0.24095  0.53498  Biso   1.000  O
  O43      1.0000 0.75905  0.03498  0.00639  Biso   1.000  O
  O44      1.0000 0.25905  0.46502  0.99361  Biso   1.000  O
  O45      1.0000 0.00639  0.75905  0.03498  Biso   1.000  O
  O46      1.0000 0.53498  0.49361  0.24095  Biso   1.000  O
  O47      1.0000 0.46502  0.99361  0.25905  Biso   1.000  O
  O48      1.0000 0.03498  0.00639  0.75905  Biso   1.000  O
  O49      1.0000 0.03757  0.33318  0.42595  Biso   1.000  O
  O50      1.0000 0.42595  0.03757  0.33318  Biso   1.000  O
  O51      1.0000 0.33318  0.42595  0.03757  Biso   1.000  O
  O52      1.0000 0.16682  0.57405  0.53757  Biso   1.000  O
  O53      1.0000 0.92595  0.46243  0.66682  Biso   1.000  O
  O54      1.0000 0.66682  0.92595  0.46243  Biso   1.000  O
  O55      1.0000 0.07405  0.96243  0.83318  Biso   1.000  O
  O56      1.0000 0.57405  0.53757  0.16682  Biso   1.000  O
  O57      1.0000 0.83318  0.07405  0.96243  Biso   1.000  O
  O58      1.0000 0.46243  0.66682  0.92595  Biso   1.000  O
  O59      1.0000 0.53757  0.16682  0.57405  Biso   1.000  O
  O60      1.0000 0.96243  0.83318  0.07405  Biso   1.000  O
  O61      1.0000 0.96243  0.66682  0.57405  Biso   1.000  O
  O62      1.0000 0.57405  0.96243  0.66682  Biso   1.000  O
  O63      1.0000 0.66682  0.57405  0.96243  Biso   1.000  O
  O64      1.0000 0.83318  0.42595  0.46243  Biso   1.000  O
  O65      1.0000 0.07405  0.53757  0.33318  Biso   1.000  O
  O66      1.0000 0.33318  0.07405  0.53757  Biso   1.000  O
  O67      1.0000 0.92595  0.03757  0.16682  Biso   1.000  O
  O68      1.0000 0.42595  0.46243  0.83318  Biso   1.000  O
  O69      1.0000 0.16682  0.92595  0.03757  Biso   1.000  O
  O70      1.0000 0.53757  0.33318  0.07405  Biso   1.000  O
  O71      1.0000 0.46243  0.83318  0.42595  Biso   1.000  O
  O72      1.0000 0.03757  0.16682  0.92595  Biso   1.000  O
  O73      1.0000 0.03980  0.27697  0.41716  Biso   1.000  O
  O74      1.0000 0.41716  0.03980  0.27697  Biso   1.000  O
  O75      1.0000 0.27697  0.41716  0.03980  Biso   1.000  O
  O76      1.0000 0.22303  0.58284  0.53980  Biso   1.000  O
  O77      1.0000 0.91716  0.46020  0.72303  Biso   1.000  O
  O78      1.0000 0.72303  0.91716  0.46020  Biso   1.000  O
  O79      1.0000 0.08284  0.96020  0.77697  Biso   1.000  O
  O80      1.0000 0.58284  0.53980  0.22303  Biso   1.000  O
  O81      1.0000 0.77697  0.08284  0.96020  Biso   1.000  O
  O82      1.0000 0.46020  0.72303  0.91716  Biso   1.000  O
  O83      1.0000 0.53980  0.22303  0.58284  Biso   1.000  O
  O84      1.0000 0.96020  0.77697  0.08284  Biso   1.000  O
  O85      1.0000 0.96020  0.72303  0.58284  Biso   1.000  O
  O86      1.0000 0.58284  0.96020  0.72303  Biso   1.000  O
  O87      1.0000 0.72303  0.58284  0.96020  Biso   1.000  O
  O88      1.0000 0.77697  0.41716  0.46020  Biso   1.000  O
  O89      1.0000 0.08284  0.53980  0.27697  Biso   1.000  O
  O90      1.0000 0.27697  0.08284  0.53980  Biso   1.000  O
  O91      1.0000 0.91716  0.03980  0.22303  Biso   1.000  O
  O92      1.0000 0.41716  0.46020  0.77697  Biso   1.000  O
  O93      1.0000 0.22303  0.91716  0.03980  Biso   1.000  O
  O94      1.0000 0.53980  0.27697  0.08284  Biso   1.000  O
  O95      1.0000 0.46020  0.77697  0.41716  Biso   1.000  O
  O96      1.0000 0.03980  0.22303  0.91716  Biso   1.000  O
  O97      1.0000 0.03806  0.23948  0.01362  Biso   1.000  O
  O98      1.0000 0.01362  0.03806  0.23948  Biso   1.000  O
  O99      1.0000 0.23948  0.01362  0.03806  Biso   1.000  O
  O100     1.0000 0.26052  0.98638  0.53806  Biso   1.000  O
  O101     1.0000 0.51362  0.46194  0.76052  Biso   1.000  O
  O102     1.0000 0.76052  0.51362  0.46194  Biso   1.000  O
  O103     1.0000 0.48638  0.96194  0.73948  Biso   1.000  O
  O104     1.0000 0.98638  0.53806  0.26052  Biso   1.000  O
  O105     1.0000 0.73948  0.48638  0.96194  Biso   1.000  O
  O106     1.0000 0.46194  0.76052  0.51362  Biso   1.000  O
  O107     1.0000 0.53806  0.26052  0.98638  Biso   1.000  O
  O108     1.0000 0.96194  0.73948  0.48638  Biso   1.000  O
  O109     1.0000 0.96194  0.76052  0.98638  Biso   1.000  O
  O110     1.0000 0.98638  0.96194  0.76052  Biso   1.000  O
  O111     1.0000 0.76052  0.98638  0.96194  Biso   1.000  O
  O112     1.0000 0.73948  0.01362  0.46194  Biso   1.000  O
  O113     1.0000 0.48638  0.53806  0.23948  Biso   1.000  O
  O114     1.0000 0.23948  0.48638  0.53806  Biso   1.000  O
  O115     1.0000 0.51362  0.03806  0.26052  Biso   1.000  O
  O116     1.0000 0.01362  0.46194  0.73948  Biso   1.000  O
  O117     1.0000 0.26052  0.51362  0.03806  Biso   1.000  O
  O118     1.0000 0.53806  0.23948  0.48638  Biso   1.000  O
  O119     1.0000 0.46194  0.73948  0.01362  Biso   1.000  O
  O120     1.0000 0.03806  0.26052  0.51362  Biso   1.000  O
  O121     1.0000 0.02368  0.18560  0.02104  Biso   1.000  O
  O122     1.0000 0.02104  0.02368  0.18560  Biso   1.000  O
  O123     1.0000 0.18560  0.02104  0.02368  Biso   1.000  O
  O124     1.0000 0.31440  0.97896  0.52368  Biso   1.000  O
  O125     1.0000 0.52104  0.47632  0.81440  Biso   1.000  O
  O126     1.0000 0.81440  0.52104  0.47632  Biso   1.000  O
  O127     1.0000 0.47896  0.97632  0.68560  Biso   1.000  O
  O128     1.0000 0.97896  0.52368  0.31440  Biso   1.000  O
  O129     1.0000 0.68560  0.47896  0.97632  Biso   1.000  O
  O130     1.0000 0.47632  0.81440  0.52104  Biso   1.000  O
  O131     1.0000 0.52368  0.31440  0.97896  Biso   1.000  O
  O132     1.0000 0.97632  0.68560  0.47896  Biso   1.000  O
  O133     1.0000 0.97632  0.81440  0.97896  Biso   1.000  O
  O134     1.0000 0.97896  0.97632  0.81440  Biso   1.000  O
  O135     1.0000 0.81440  0.97896  0.97632  Biso   1.000  O
  O136     1.0000 0.68560  0.02104  0.47632  Biso   1.000  O
  O137     1.0000 0.47896  0.52368  0.18560  Biso   1.000  O
  O138     1.0000 0.18560  0.47896  0.52368  Biso   1.000  O
  O139     1.0000 0.52104  0.02368  0.31440  Biso   1.000  O
  O140     1.0000 0.02104  0.47632  0.68560  Biso   1.000  O
  O141     1.0000 0.31440  0.52104  0.02368  Biso   1.000  O
  O142     1.0000 0.52368  0.18560  0.47896  Biso   1.000  O
  O143     1.0000 0.47632  0.68560  0.02104  Biso   1.000  O
  O144     1.0000 0.02368  0.31440  0.52104  Biso   1.000  O
  O145     1.0000 0.98418  0.07866  0.16869  Biso   1.000  O
  O146     1.0000 0.16869  0.98418  0.07866  Biso   1.000  O
  O147     1.0000 0.07866  0.16869  0.98418  Biso   1.000  O
  O148     1.0000 0.42134  0.83131  0.48418  Biso   1.000  O
  O149     1.0000 0.66869  0.51582  0.92134  Biso   1.000  O
  O150     1.0000 0.92134  0.66869  0.51582  Biso   1.000  O
  O151     1.0000 0.33131  0.01582  0.57866  Biso   1.000  O
  O152     1.0000 0.83131  0.48418  0.42134  Biso   1.000  O
  O153     1.0000 0.57866  0.33131  0.01582  Biso   1.000  O
  O154     1.0000 0.51582  0.92134  0.66869  Biso   1.000  O
  O155     1.0000 0.48418  0.42134  0.83131  Biso   1.000  O
  O156     1.0000 0.01582  0.57866  0.33131  Biso   1.000  O
  O157     1.0000 0.01582  0.92134  0.83131  Biso   1.000  O
  O158     1.0000 0.83131  0.01582  0.92134  Biso   1.000  O
  O159     1.0000 0.92134  0.83131  0.01582  Biso   1.000  O
  O160     1.0000 0.57866  0.16869  0.51582  Biso   1.000  O
  O161     1.0000 0.33131  0.48418  0.07866  Biso   1.000  O
  O162     1.0000 0.07866  0.33131  0.48418  Biso   1.000  O
  O163     1.0000 0.66869  0.98418  0.42134  Biso   1.000  O
  O164     1.0000 0.16869  0.51582  0.57866  Biso   1.000  O
  O165     1.0000 0.42134  0.66869  0.98418  Biso   1.000  O
  O166     1.0000 0.48418  0.07866  0.33131  Biso   1.000  O
  O167     1.0000 0.51582  0.57866  0.16869  Biso   1.000  O
  O168     1.0000 0.98418  0.42134  0.66869  Biso   1.000  O
  O169     1.0000 0.96626  0.08733  0.22217  Biso   1.000  O
  O170     1.0000 0.22217  0.96626  0.08733  Biso   1.000  O
  O171     1.0000 0.08733  0.22217  0.96626  Biso   1.000  O
  O172     1.0000 0.41267  0.77783  0.46626  Biso   1.000  O
  O173     1.0000 0.72217  0.53374  0.91267  Biso   1.000  O
  O174     1.0000 0.91267  0.72217  0.53374  Biso   1.000  O
  O175     1.0000 0.27783  0.03374  0.58733  Biso   1.000  O
  O176     1.0000 0.77783  0.46626  0.41267  Biso   1.000  O
  O177     1.0000 0.58733  0.27783  0.03374  Biso   1.000  O
  O178     1.0000 0.53374  0.91267  0.72217  Biso   1.000  O
  O179     1.0000 0.46626  0.41267  0.77783  Biso   1.000  O
  O180     1.0000 0.03374  0.58733  0.27783  Biso   1.000  O
  O181     1.0000 0.03374  0.91267  0.77783  Biso   1.000  O
  O182     1.0000 0.77783  0.03374  0.91267  Biso   1.000  O
  O183     1.0000 0.91267  0.77783  0.03374  Biso   1.000  O
  O184     1.0000 0.58733  0.22217  0.53374  Biso   1.000  O
  O185     1.0000 0.27783  0.46626  0.08733  Biso   1.000  O
  O186     1.0000 0.08733  0.27783  0.46626  Biso   1.000  O
  O187     1.0000 0.72217  0.96626  0.41267  Biso   1.000  O
  O188     1.0000 0.22217  0.53374  0.58733  Biso   1.000  O
  O189     1.0000 0.41267  0.72217  0.96626  Biso   1.000  O
  O190     1.0000 0.46626  0.08733  0.27783  Biso   1.000  O
  O191     1.0000 0.53374  0.58733  0.22217  Biso   1.000  O
  O192     1.0000 0.96626  0.41267  0.72217  Biso   1.000  O
  O193     1.0000 0.04623  0.55063  0.21026  Biso   1.000  O
  O194     1.0000 0.21026  0.04623  0.55063  Biso   1.000  O
  O195     1.0000 0.55063  0.21026  0.04623  Biso   1.000  O
  O196     1.0000 0.94937  0.78974  0.54623  Biso   1.000  O
  O197     1.0000 0.71026  0.45377  0.44937  Biso   1.000  O
  O198     1.0000 0.44937  0.71026  0.45377  Biso   1.000  O
  O199     1.0000 0.28974  0.95377  0.05063  Biso   1.000  O
  O200     1.0000 0.78974  0.54623  0.94937  Biso   1.000  O
  O201     1.0000 0.05063  0.28974  0.95377  Biso   1.000  O
  O202     1.0000 0.45377  0.44937  0.71026  Biso   1.000  O
  O203     1.0000 0.54623  0.94937  0.78974  Biso   1.000  O
  O204     1.0000 0.95377  0.05063  0.28974  Biso   1.000  O
  O205     1.0000 0.95377  0.44937  0.78974  Biso   1.000  O
  O206     1.0000 0.78974  0.95377  0.44937  Biso   1.000  O
  O207     1.0000 0.44937  0.78974  0.95377  Biso   1.000  O
  O208     1.0000 0.05063  0.21026  0.45377  Biso   1.000  O
  O209     1.0000 0.28974  0.54623  0.55063  Biso   1.000  O
  O210     1.0000 0.55063  0.28974  0.54623  Biso   1.000  O
  O211     1.0000 0.71026  0.04623  0.94937  Biso   1.000  O
  O212     1.0000 0.21026  0.45377  0.05063  Biso   1.000  O
  O213     1.0000 0.94937  0.71026  0.04623  Biso   1.000  O
  O214     1.0000 0.54623  0.55063  0.28974  Biso   1.000  O
  O215     1.0000 0.45377  0.05063  0.21026  Biso   1.000  O
  O216     1.0000 0.04623  0.94937  0.71026  Biso   1.000  O
  O217     1.0000 0.01798  0.51909  0.38141  Biso   1.000  O
  O218     1.0000 0.38141  0.01798  0.51909  Biso   1.000  O
  O219     1.0000 0.51909  0.38141  0.01798  Biso   1.000  O
  O220     1.0000 0.98091  0.61859  0.51798  Biso   1.000  O
  O221     1.0000 0.88141  0.48202  0.48091  Biso   1.000  O
  O222     1.0000 0.48091  0.88141  0.48202  Biso   1.000  O
  O223     1.0000 0.11859  0.98202  0.01909  Biso   1.000  O
  O224     1.0000 0.61859  0.51798  0.98091  Biso   1.000  O
  O225     1.0000 0.01909  0.11859  0.98202  Biso   1.000  O
  O226     1.0000 0.48202  0.48091  0.88141  Biso   1.000  O
  O227     1.0000 0.51798  0.98091  0.61859  Biso   1.000  O
  O228     1.0000 0.98202  0.01909  0.11859  Biso   1.000  O
  O229     1.0000 0.98202  0.48091  0.61859  Biso   1.000  O
  O230     1.0000 0.61859  0.98202  0.48091  Biso   1.000  O
  O231     1.0000 0.48091  0.61859  0.98202  Biso   1.000  O
  O232     1.0000 0.01909  0.38141  0.48202  Biso   1.000  O
  O233     1.0000 0.11859  0.51798  0.51909  Biso   1.000  O
  O234     1.0000 0.51909  0.11859  0.51798  Biso   1.000  O
  O235     1.0000 0.88141  0.01798  0.98091  Biso   1.000  O
  O236     1.0000 0.38141  0.48202  0.01909  Biso   1.000  O
  O237     1.0000 0.98091  0.88141  0.01798  Biso   1.000  O
  O238     1.0000 0.51798  0.51909  0.11859  Biso   1.000  O
  O239     1.0000 0.48202  0.01909  0.38141  Biso   1.000  O
  O240     1.0000 0.01798  0.98091  0.88141  Biso   1.000  O
  N1       1.0000 0.03599  0.33305  0.26581  Biso   1.000  N
  N2       1.0000 0.26581  0.03599  0.33305  Biso   1.000  N
  N3       1.0000 0.33305  0.26581  0.03599  Biso   1.000  N
  N4       1.0000 0.16695  0.73419  0.53599  Biso   1.000  N
  N5       1.0000 0.76581  0.46401  0.66695  Biso   1.000  N
  N6       1.0000 0.66695  0.76581  0.46401  Biso   1.000  N
  N7       1.0000 0.23419  0.96401  0.83305  Biso   1.000  N
  N8       1.0000 0.73419  0.53599  0.16695  Biso   1.000  N
  N9       1.0000 0.83305  0.23419  0.96401  Biso   1.000  N
  N10      1.0000 0.46401  0.66695  0.76581  Biso   1.000  N
  N11      1.0000 0.53599  0.16695  0.73419  Biso   1.000  N
  N12      1.0000 0.96401  0.83305  0.23419  Biso   1.000  N
  N13      1.0000 0.96401  0.66695  0.73419  Biso   1.000  N
  N14      1.0000 0.73419  0.96401  0.66695  Biso   1.000  N
  N15      1.0000 0.66695  0.73419  0.96401  Biso   1.000  N
  N16      1.0000 0.83305  0.26581  0.46401  Biso   1.000  N
  N17      1.0000 0.23419  0.53599  0.33305  Biso   1.000  N
  N18      1.0000 0.33305  0.23419  0.53599  Biso   1.000  N
  N19      1.0000 0.76581  0.03599  0.16695  Biso   1.000  N
  N20      1.0000 0.26581  0.46401  0.83305  Biso   1.000  N
  N21      1.0000 0.16695  0.76581  0.03599  Biso   1.000  N
  N22      1.0000 0.53599  0.33305  0.23419  Biso   1.000  N
  N23      1.0000 0.46401  0.83305  0.26581  Biso   1.000  N
  N24      1.0000 0.03599  0.16695  0.76581  Biso   1.000  N
  N25      1.0000 0.01403  0.23230  0.16940  Biso   1.000  N
  N26      1.0000 0.16940  0.01403  0.23230  Biso   1.000  N
  N27      1.0000 0.23230  0.16940  0.01403  Biso   1.000  N
  N28      1.0000 0.26770  0.83060  0.51403  Biso   1.000  N
  N29      1.0000 0.66940  0.48597  0.76770  Biso   1.000  N
  N30      1.0000 0.76770  0.66940  0.48597  Biso   1.000  N
  N31      1.0000 0.33060  0.98597  0.73230  Biso   1.000  N
  N32      1.0000 0.83060  0.51403  0.26770  Biso   1.000  N
  N33      1.0000 0.73230  0.33060  0.98597  Biso   1.000  N
  N34      1.0000 0.48597  0.76770  0.66940  Biso   1.000  N
  N35      1.0000 0.51403  0.26770  0.83060  Biso   1.000  N
  N36      1.0000 0.98597  0.73230  0.33060  Biso   1.000  N
  N37      1.0000 0.98597  0.76770  0.83060  Biso   1.000  N
  N38      1.0000 0.83060  0.98597  0.76770  Biso   1.000  N
  N39      1.0000 0.76770  0.83060  0.98597  Biso   1.000  N
  N40      1.0000 0.73230  0.16940  0.48597  Biso   1.000  N
  N41      1.0000 0.33060  0.51403  0.23230  Biso   1.000  N
  N42      1.0000 0.23230  0.33060  0.51403  Biso   1.000  N
  N43      1.0000 0.66940  0.01403  0.26770  Biso   1.000  N
  N44      1.0000 0.16940  0.48597  0.73230  Biso   1.000  N
  N45      1.0000 0.26770  0.66940  0.01403  Biso   1.000  N
  N46      1.0000 0.51403  0.23230  0.33060  Biso   1.000  N
  N47      1.0000 0.48597  0.73230  0.16940  Biso   1.000  N
  N48      1.0000 0.01403  0.26770  0.66940  Biso   1.000  N
  C1       1.0000 0.03351  0.47190  0.28511  Biso   1.000  C
  C2       1.0000 0.28511  0.03351  0.47190  Biso   1.000  C
  C3       1.0000 0.47190  0.28511  0.03351  Biso   1.000  C
  C4       1.0000 0.02810  0.71489  0.53351  Biso   1.000  C
  C5       1.0000 0.78511  0.46649  0.52810  Biso   1.000  C
  C6       1.0000 0.52810  0.78511  0.46649  Biso   1.000  C
  C7       1.0000 0.21489  0.96649  0.97190  Biso   1.000  C
  C8       1.0000 0.71489  0.53351  0.02810  Biso   1.000  C
  C9       1.0000 0.97190  0.21489  0.96649  Biso   1.000  C
  C10      1.0000 0.46649  0.52810  0.78511  Biso   1.000  C
  C11      1.0000 0.53351  0.02810  0.71489  Biso   1.000  C
  C12      1.0000 0.96649  0.97190  0.21489  Biso   1.000  C
  C13      1.0000 0.96649  0.52810  0.71489  Biso   1.000  C
  C14      1.0000 0.71489  0.96649  0.52810  Biso   1.000  C
  C15      1.0000 0.52810  0.71489  0.96649  Biso   1.000  C
  C16      1.0000 0.97190  0.28511  0.46649  Biso   1.000  C
  C17      1.0000 0.21489  0.53351  0.47190  Biso   1.000  C
  C18      1.0000 0.47190  0.21489  0.53351  Biso   1.000  C
  C19      1.0000 0.78511  0.03351  0.02810  Biso   1.000  C
  C20      1.0000 0.28511  0.46649  0.97190  Biso   1.000  C
  C21      1.0000 0.02810  0.78511  0.03351  Biso   1.000  C
  C22      1.0000 0.53351  0.47190  0.21489  Biso   1.000  C
  C23      1.0000 0.46649  0.97190  0.28511  Biso   1.000  C
  C24      1.0000 0.03351  0.02810  0.78511  Biso   1.000  C
  C25      1.0000 0.03578  0.41161  0.30746  Biso   1.000  C
  C26      1.0000 0.30746  0.03578  0.41161  Biso   1.000  C
  C27      1.0000 0.41161  0.30746  0.03578  Biso   1.000  C
  C28      1.0000 0.08839  0.69254  0.53578  Biso   1.000  C
  C29      1.0000 0.80746  0.46422  0.58839  Biso   1.000  C
  C30      1.0000 0.58839  0.80746  0.46422  Biso   1.000  C
  C31      1.0000 0.19254  0.96422  0.91161  Biso   1.000  C
  C32      1.0000 0.69254  0.53578  0.08839  Biso   1.000  C
  C33      1.0000 0.91161  0.19254  0.96422  Biso   1.000  C
  C34      1.0000 0.46422  0.58839  0.80746  Biso   1.000  C
  C35      1.0000 0.53578  0.08839  0.69254  Biso   1.000  C
  C36      1.0000 0.96422  0.91161  0.19254  Biso   1.000  C
  C37      1.0000 0.96422  0.58839  0.69254  Biso   1.000  C
  C38      1.0000 0.69254  0.96422  0.58839  Biso   1.000  C
  C39      1.0000 0.58839  0.69254  0.96422  Biso   1.000  C
  C40      1.0000 0.91161  0.30746  0.46422  Biso   1.000  C
  C41      1.0000 0.19254  0.53578  0.41161  Biso   1.000  C
  C42      1.0000 0.41161  0.19254  0.53578  Biso   1.000  C
  C43      1.0000 0.80746  0.03578  0.08839  Biso   1.000  C
  C44      1.0000 0.30746  0.46422  0.91161  Biso   1.000  C
  C45      1.0000 0.08839  0.80746  0.03578  Biso   1.000  C
  C46      1.0000 0.53578  0.41161  0.19254  Biso   1.000  C
  C47      1.0000 0.46422  0.91161  0.30746  Biso   1.000  C
  C48      1.0000 0.03578  0.08839  0.80746  Biso   1.000  C
  H1       1.0000 0.03670  0.41920  0.33030  Biso   1.000  H
  H2       1.0000 0.33030  0.03670  0.41920  Biso   1.000  H
  H3       1.0000 0.41920  0.33030  0.03670  Biso   1.000  H
  H4       1.0000 0.08080  0.66970  0.53670  Biso   1.000  H
  H5       1.0000 0.83030  0.46330  0.58080  Biso   1.000  H
  H6       1.0000 0.58080  0.83030  0.46330  Biso   1.000  H
  H7       1.0000 0.16970  0.96330  0.91920  Biso   1.000  H
  H8       1.0000 0.66970  0.53670  0.08080  Biso   1.000  H
  H9       1.0000 0.91920  0.16970  0.96330  Biso   1.000  H
  H10      1.0000 0.46330  0.58080  0.83030  Biso   1.000  H
  H11      1.0000 0.53670  0.08080  0.66970  Biso   1.000  H
  H12      1.0000 0.96330  0.91920  0.16970  Biso   1.000  H
  H13      1.0000 0.96330  0.58080  0.66970  Biso   1.000  H
  H14      1.0000 0.66970  0.96330  0.58080  Biso   1.000  H
  H15      1.0000 0.58080  0.66970  0.96330  Biso   1.000  H
  H16      1.0000 0.91920  0.33030  0.46330  Biso   1.000  H
  H17      1.0000 0.16970  0.53670  0.41920  Biso   1.000  H
  H18      1.0000 0.41920  0.16970  0.53670  Biso   1.000  H
  H19      1.0000 0.83030  0.03670  0.08080  Biso   1.000  H
  H20      1.0000 0.33030  0.46330  0.91920  Biso   1.000  H
  H21      1.0000 0.08080  0.83030  0.03670  Biso   1.000  H
  H22      1.0000 0.53670  0.41920  0.16970  Biso   1.000  H
  H23      1.0000 0.46330  0.91920  0.33030  Biso   1.000  H
  H24      1.0000 0.03670  0.08080  0.83030  Biso   1.000  H
  C49      1.0000 0.03405  0.43666  0.28085  Biso   1.000  C
  C50      1.0000 0.28085  0.03405  0.43666  Biso   1.000  C
  C51      1.0000 0.43666  0.28085  0.03405  Biso   1.000  C
  C52      1.0000 0.06334  0.71915  0.53405  Biso   1.000  C
  C53      1.0000 0.78085  0.46595  0.56334  Biso   1.000  C
  C54      1.0000 0.56334  0.78085  0.46595  Biso   1.000  C
  C55      1.0000 0.21915  0.96595  0.93666  Biso   1.000  C
  C56      1.0000 0.71915  0.53405  0.06334  Biso   1.000  C
  C57      1.0000 0.93666  0.21915  0.96595  Biso   1.000  C
  C58      1.0000 0.46595  0.56334  0.78085  Biso   1.000  C
  C59      1.0000 0.53405  0.06334  0.71915  Biso   1.000  C
  C60      1.0000 0.96595  0.93666  0.21915  Biso   1.000  C
  C61      1.0000 0.96595  0.56334  0.71915  Biso   1.000  C
  C62      1.0000 0.71915  0.96595  0.56334  Biso   1.000  C
  C63      1.0000 0.56334  0.71915  0.96595  Biso   1.000  C
  C64      1.0000 0.93666  0.28085  0.46595  Biso   1.000  C
  C65      1.0000 0.21915  0.53405  0.43666  Biso   1.000  C
  C66      1.0000 0.43666  0.21915  0.53405  Biso   1.000  C
  C67      1.0000 0.78085  0.03405  0.06334  Biso   1.000  C
  C68      1.0000 0.28085  0.46595  0.93666  Biso   1.000  C
  C69      1.0000 0.06334  0.78085  0.03405  Biso   1.000  C
  C70      1.0000 0.53405  0.43666  0.21915  Biso   1.000  C
  C71      1.0000 0.46595  0.93666  0.28085  Biso   1.000  C
  C72      1.0000 0.03405  0.06334  0.78085  Biso   1.000  C
  C73      1.0000 0.03270  0.42581  0.24561  Biso   1.000  C
  C74      1.0000 0.24561  0.03270  0.42581  Biso   1.000  C
  C75      1.0000 0.42581  0.24561  0.03270  Biso   1.000  C
  C76      1.0000 0.07419  0.75439  0.53270  Biso   1.000  C
  C77      1.0000 0.74561  0.46730  0.57419  Biso   1.000  C
  C78      1.0000 0.57419  0.74561  0.46730  Biso   1.000  C
  C79      1.0000 0.25439  0.96730  0.92581  Biso   1.000  C
  C80      1.0000 0.75439  0.53270  0.07419  Biso   1.000  C
  C81      1.0000 0.92581  0.25439  0.96730  Biso   1.000  C
  C82      1.0000 0.46730  0.57419  0.74561  Biso   1.000  C
  C83      1.0000 0.53270  0.07419  0.75439  Biso   1.000  C
  C84      1.0000 0.96730  0.92581  0.25439  Biso   1.000  C
  C85      1.0000 0.96730  0.57419  0.75439  Biso   1.000  C
  C86      1.0000 0.75439  0.96730  0.57419  Biso   1.000  C
  C87      1.0000 0.57419  0.75439  0.96730  Biso   1.000  C
  C88      1.0000 0.92581  0.24561  0.46730  Biso   1.000  C
  C89      1.0000 0.25439  0.53270  0.42581  Biso   1.000  C
  C90      1.0000 0.42581  0.25439  0.53270  Biso   1.000  C
  C91      1.0000 0.74561  0.03270  0.07419  Biso   1.000  C
  C92      1.0000 0.24561  0.46730  0.92581  Biso   1.000  C
  C93      1.0000 0.07419  0.74561  0.03270  Biso   1.000  C
  C94      1.0000 0.53270  0.42581  0.25439  Biso   1.000  C
  C95      1.0000 0.46730  0.92581  0.24561  Biso   1.000  C
  C96      1.0000 0.03270  0.07419  0.74561  Biso   1.000  C
  H25      1.0000 0.03180  0.44180  0.22770  Biso   1.000  H
  H26      1.0000 0.22770  0.03180  0.44180  Biso   1.000  H
  H27      1.0000 0.44180  0.22770  0.03180  Biso   1.000  H
  H28      1.0000 0.05820  0.77230  0.53180  Biso   1.000  H
  H29      1.0000 0.72770  0.46820  0.55820  Biso   1.000  H
  H30      1.0000 0.55820  0.72770  0.46820  Biso   1.000  H
  H31      1.0000 0.27230  0.96820  0.94180  Biso   1.000  H
  H32      1.0000 0.77230  0.53180  0.05820  Biso   1.000  H
  H33      1.0000 0.94180  0.27230  0.96820  Biso   1.000  H
  H34      1.0000 0.46820  0.55820  0.72770  Biso   1.000  H
  H35      1.0000 0.53180  0.05820  0.77230  Biso   1.000  H
  H36      1.0000 0.96820  0.94180  0.27230  Biso   1.000  H
  H37      1.0000 0.96820  0.55820  0.77230  Biso   1.000  H
  H38      1.0000 0.77230  0.96820  0.55820  Biso   1.000  H
  H39      1.0000 0.55820  0.77230  0.96820  Biso   1.000  H
  H40      1.0000 0.94180  0.22770  0.46820  Biso   1.000  H
  H41      1.0000 0.27230  0.53180  0.44180  Biso   1.000  H
  H42      1.0000 0.44180  0.27230  0.53180  Biso   1.000  H
  H43      1.0000 0.72770  0.03180  0.05820  Biso   1.000  H
  H44      1.0000 0.22770  0.46820  0.94180  Biso   1.000  H
  H45      1.0000 0.05820  0.72770  0.03180  Biso   1.000  H
  H46      1.0000 0.53180  0.44180  0.27230  Biso   1.000  H
  H47      1.0000 0.46820  0.94180  0.22770  Biso   1.000  H
  H48      1.0000 0.03180  0.05820  0.72770  Biso   1.000  H
  C97      1.0000 0.03285  0.38700  0.23840  Biso   1.000  C
  C98      1.0000 0.23840  0.03285  0.38700  Biso   1.000  C
  C99      1.0000 0.38700  0.23840  0.03285  Biso   1.000  C
  C100     1.0000 0.11300  0.76160  0.53285  Biso   1.000  C
  C101     1.0000 0.73840  0.46715  0.61300  Biso   1.000  C
  C102     1.0000 0.61300  0.73840  0.46715  Biso   1.000  C
  C103     1.0000 0.26160  0.96715  0.88700  Biso   1.000  C
  C104     1.0000 0.76160  0.53285  0.11300  Biso   1.000  C
  C105     1.0000 0.88700  0.26160  0.96715  Biso   1.000  C
  C106     1.0000 0.46715  0.61300  0.73840  Biso   1.000  C
  C107     1.0000 0.53285  0.11300  0.76160  Biso   1.000  C
  C108     1.0000 0.96715  0.88700  0.26160  Biso   1.000  C
  C109     1.0000 0.96715  0.61300  0.76160  Biso   1.000  C
  C110     1.0000 0.76160  0.96715  0.61300  Biso   1.000  C
  C111     1.0000 0.61300  0.76160  0.96715  Biso   1.000  C
  C112     1.0000 0.88700  0.23840  0.46715  Biso   1.000  C
  C113     1.0000 0.26160  0.53285  0.38700  Biso   1.000  C
  C114     1.0000 0.38700  0.26160  0.53285  Biso   1.000  C
  C115     1.0000 0.73840  0.03285  0.11300  Biso   1.000  C
  C116     1.0000 0.23840  0.46715  0.88700  Biso   1.000  C
  C117     1.0000 0.11300  0.73840  0.03285  Biso   1.000  C
  C118     1.0000 0.53285  0.38700  0.26160  Biso   1.000  C
  C119     1.0000 0.46715  0.88700  0.23840  Biso   1.000  C
  C120     1.0000 0.03285  0.11300  0.73840  Biso   1.000  C
  H49      1.0000 0.03180  0.37760  0.21620  Biso   1.000  H
  H50      1.0000 0.21620  0.03180  0.37760  Biso   1.000  H
  H51      1.0000 0.37760  0.21620  0.03180  Biso   1.000  H
  H52      1.0000 0.12240  0.78380  0.53180  Biso   1.000  H
  H53      1.0000 0.71620  0.46820  0.62240  Biso   1.000  H
  H54      1.0000 0.62240  0.71620  0.46820  Biso   1.000  H
  H55      1.0000 0.28380  0.96820  0.87760  Biso   1.000  H
  H56      1.0000 0.78380  0.53180  0.12240  Biso   1.000  H
  H57      1.0000 0.87760  0.28380  0.96820  Biso   1.000  H
  H58      1.0000 0.46820  0.62240  0.71620  Biso   1.000  H
  H59      1.0000 0.53180  0.12240  0.78380  Biso   1.000  H
  H60      1.0000 0.96820  0.87760  0.28380  Biso   1.000  H
  H61      1.0000 0.96820  0.62240  0.78380  Biso   1.000  H
  H62      1.0000 0.78380  0.96820  0.62240  Biso   1.000  H
  H63      1.0000 0.62240  0.78380  0.96820  Biso   1.000  H
  H64      1.0000 0.87760  0.21620  0.46820  Biso   1.000  H
  H65      1.0000 0.28380  0.53180  0.37760  Biso   1.000  H
  H66      1.0000 0.37760  0.28380  0.53180  Biso   1.000  H
  H67      1.0000 0.71620  0.03180  0.12240  Biso   1.000  H
  H68      1.0000 0.21620  0.46820  0.87760  Biso   1.000  H
  H69      1.0000 0.12240  0.71620  0.03180  Biso   1.000  H
  H70      1.0000 0.53180  0.37760  0.28380  Biso   1.000  H
  H71      1.0000 0.46820  0.87760  0.21620  Biso   1.000  H
  H72      1.0000 0.03180  0.12240  0.71620  Biso   1.000  H
  C121     1.0000 0.03479  0.36630  0.26980  Biso   1.000  C
  C122     1.0000 0.26980  0.03479  0.36630  Biso   1.000  C
  C123     1.0000 0.36630  0.26980  0.03479  Biso   1.000  C
  C124     1.0000 0.13370  0.73020  0.53479  Biso   1.000  C
  C125     1.0000 0.76980  0.46521  0.63370  Biso   1.000  C
  C126     1.0000 0.63370  0.76980  0.46521  Biso   1.000  C
  C127     1.0000 0.23020  0.96521  0.86630  Biso   1.000  C
  C128     1.0000 0.73020  0.53479  0.13370  Biso   1.000  C
  C129     1.0000 0.86630  0.23020  0.96521  Biso   1.000  C
  C130     1.0000 0.46521  0.63370  0.76980  Biso   1.000  C
  C131     1.0000 0.53479  0.13370  0.73020  Biso   1.000  C
  C132     1.0000 0.96521  0.86630  0.23020  Biso   1.000  C
  C133     1.0000 0.96521  0.63370  0.73020  Biso   1.000  C
  C134     1.0000 0.73020  0.96521  0.63370  Biso   1.000  C
  C135     1.0000 0.63370  0.73020  0.96521  Biso   1.000  C
  C136     1.0000 0.86630  0.26980  0.46521  Biso   1.000  C
  C137     1.0000 0.23020  0.53479  0.36630  Biso   1.000  C
  C138     1.0000 0.36630  0.23020  0.53479  Biso   1.000  C
  C139     1.0000 0.76980  0.03479  0.13370  Biso   1.000  C
  C140     1.0000 0.26980  0.46521  0.86630  Biso   1.000  C
  C141     1.0000 0.13370  0.76980  0.03479  Biso   1.000  C
  C142     1.0000 0.53479  0.36630  0.23020  Biso   1.000  C
  C143     1.0000 0.46521  0.86630  0.26980  Biso   1.000  C
  C144     1.0000 0.03479  0.13370  0.76980  Biso   1.000  C
  C145     1.0000 0.03616  0.37971  0.30174  Biso   1.000  C
  C146     1.0000 0.30174  0.03616  0.37971  Biso   1.000  C
  C147     1.0000 0.37971  0.30174  0.03616  Biso   1.000  C
  C148     1.0000 0.12029  0.69826  0.53616  Biso   1.000  C
  C149     1.0000 0.80174  0.46384  0.62029  Biso   1.000  C
  C150     1.0000 0.62029  0.80174  0.46384  Biso   1.000  C
  C151     1.0000 0.19826  0.96384  0.87971  Biso   1.000  C
  C152     1.0000 0.69826  0.53616  0.12029  Biso   1.000  C
  C153     1.0000 0.87971  0.19826  0.96384  Biso   1.000  C
  C154     1.0000 0.46384  0.62029  0.80174  Biso   1.000  C
  C155     1.0000 0.53616  0.12029  0.69826  Biso   1.000  C
  C156     1.0000 0.96384  0.87971  0.19826  Biso   1.000  C
  C157     1.0000 0.96384  0.62029  0.69826  Biso   1.000  C
  C158     1.0000 0.69826  0.96384  0.62029  Biso   1.000  C
  C159     1.0000 0.62029  0.69826  0.96384  Biso   1.000  C
  C160     1.0000 0.87971  0.30174  0.46384  Biso   1.000  C
  C161     1.0000 0.19826  0.53616  0.37971  Biso   1.000  C
  C162     1.0000 0.37971  0.19826  0.53616  Biso   1.000  C
  C163     1.0000 0.80174  0.03616  0.12029  Biso   1.000  C
  C164     1.0000 0.30174  0.46384  0.87971  Biso   1.000  C
  C165     1.0000 0.12029  0.80174  0.03616  Biso   1.000  C
  C166     1.0000 0.53616  0.37971  0.19826  Biso   1.000  C
  C167     1.0000 0.46384  0.87971  0.30174  Biso   1.000  C
  C168     1.0000 0.03616  0.12029  0.80174  Biso   1.000  C
  C169     1.0000 0.03789  0.35183  0.32261  Biso   1.000  C
  C170     1.0000 0.32261  0.03789  0.35183  Biso   1.000  C
  C171     1.0000 0.35183  0.32261  0.03789  Biso   1.000  C
  C172     1.0000 0.14817  0.67739  0.53789  Biso   1.000  C
  C173     1.0000 0.82261  0.46211  0.64817  Biso   1.000  C
  C174     1.0000 0.64817  0.82261  0.46211  Biso   1.000  C
  C175     1.0000 0.17739  0.96211  0.85183  Biso   1.000  C
  C176     1.0000 0.67739  0.53789  0.14817  Biso   1.000  C
  C177     1.0000 0.85183  0.17739  0.96211  Biso   1.000  C
  C178     1.0000 0.46211  0.64817  0.82261  Biso   1.000  C
  C179     1.0000 0.53789  0.14817  0.67739  Biso   1.000  C
  C180     1.0000 0.96211  0.85183  0.17739  Biso   1.000  C
  C181     1.0000 0.96211  0.64817  0.67739  Biso   1.000  C
  C182     1.0000 0.67739  0.96211  0.64817  Biso   1.000  C
  C183     1.0000 0.64817  0.67739  0.96211  Biso   1.000  C
  C184     1.0000 0.85183  0.32261  0.46211  Biso   1.000  C
  C185     1.0000 0.17739  0.53789  0.35183  Biso   1.000  C
  C186     1.0000 0.35183  0.17739  0.53789  Biso   1.000  C
  C187     1.0000 0.82261  0.03789  0.14817  Biso   1.000  C
  C188     1.0000 0.32261  0.46211  0.85183  Biso   1.000  C
  C189     1.0000 0.14817  0.82261  0.03789  Biso   1.000  C
  C190     1.0000 0.53789  0.35183  0.17739  Biso   1.000  C
  C191     1.0000 0.46211  0.85183  0.32261  Biso   1.000  C
  C192     1.0000 0.03789  0.14817  0.82261  Biso   1.000  C
  C193     1.0000 0.03763  0.32013  0.30081  Biso   1.000  C
  C194     1.0000 0.30081  0.03763  0.32013  Biso   1.000  C
  C195     1.0000 0.32013  0.30081  0.03763  Biso   1.000  C
  C196     1.0000 0.17987  0.69919  0.53763  Biso   1.000  C
  C197     1.0000 0.80081  0.46237  0.67987  Biso   1.000  C
  C198     1.0000 0.67987  0.80081  0.46237  Biso   1.000  C
  C199     1.0000 0.19919  0.96237  0.82013  Biso   1.000  C
  C200     1.0000 0.69919  0.53763  0.17987  Biso   1.000  C
  C201     1.0000 0.82013  0.19919  0.96237  Biso   1.000  C
  C202     1.0000 0.46237  0.67987  0.80081  Biso   1.000  C
  C203     1.0000 0.53763  0.17987  0.69919  Biso   1.000  C
  C204     1.0000 0.96237  0.82013  0.19919  Biso   1.000  C
  C205     1.0000 0.96237  0.67987  0.69919  Biso   1.000  C
  C206     1.0000 0.69919  0.96237  0.67987  Biso   1.000  C
  C207     1.0000 0.67987  0.69919  0.96237  Biso   1.000  C
  C208     1.0000 0.82013  0.30081  0.46237  Biso   1.000  C
  C209     1.0000 0.19919  0.53763  0.32013  Biso   1.000  C
  C210     1.0000 0.32013  0.19919  0.53763  Biso   1.000  C
  C211     1.0000 0.80081  0.03763  0.17987  Biso   1.000  C
  C212     1.0000 0.30081  0.46237  0.82013  Biso   1.000  C
  C213     1.0000 0.17987  0.80081  0.03763  Biso   1.000  C
  C214     1.0000 0.53763  0.32013  0.19919  Biso   1.000  C
  C215     1.0000 0.46237  0.82013  0.30081  Biso   1.000  C
  C216     1.0000 0.03763  0.17987  0.80081  Biso   1.000  C
  C217     1.0000 0.03828  0.28920  0.31370  Biso   1.000  C
  C218     1.0000 0.31370  0.03828  0.28920  Biso   1.000  C
  C219     1.0000 0.28920  0.31370  0.03828  Biso   1.000  C
  C220     1.0000 0.21080  0.68630  0.53828  Biso   1.000  C
  C221     1.0000 0.81370  0.46172  0.71080  Biso   1.000  C
  C222     1.0000 0.71080  0.81370  0.46172  Biso   1.000  C
  C223     1.0000 0.18630  0.96172  0.78920  Biso   1.000  C
  C224     1.0000 0.68630  0.53828  0.21080  Biso   1.000  C
  C225     1.0000 0.78920  0.18630  0.96172  Biso   1.000  C
  C226     1.0000 0.46172  0.71080  0.81370  Biso   1.000  C
  C227     1.0000 0.53828  0.21080  0.68630  Biso   1.000  C
  C228     1.0000 0.96172  0.78920  0.18630  Biso   1.000  C
  C229     1.0000 0.96172  0.71080  0.68630  Biso   1.000  C
  C230     1.0000 0.68630  0.96172  0.71080  Biso   1.000  C
  C231     1.0000 0.71080  0.68630  0.96172  Biso   1.000  C
  C232     1.0000 0.78920  0.31370  0.46172  Biso   1.000  C
  C233     1.0000 0.18630  0.53828  0.28920  Biso   1.000  C
  C234     1.0000 0.28920  0.18630  0.53828  Biso   1.000  C
  C235     1.0000 0.81370  0.03828  0.21080  Biso   1.000  C
  C236     1.0000 0.31370  0.46172  0.78920  Biso   1.000  C
  C237     1.0000 0.21080  0.81370  0.03828  Biso   1.000  C
  C238     1.0000 0.53828  0.28920  0.18630  Biso   1.000  C
  C239     1.0000 0.46172  0.78920  0.31370  Biso   1.000  C
  C240     1.0000 0.03828  0.21080  0.81370  Biso   1.000  C
  H73      1.0000 0.03740  0.27050  0.29850  Biso   1.000  H
  H74      1.0000 0.29850  0.03740  0.27050  Biso   1.000  H
  H75      1.0000 0.27050  0.29850  0.03740  Biso   1.000  H
  H76      1.0000 0.22950  0.70150  0.53740  Biso   1.000  H
  H77      1.0000 0.79850  0.46260  0.72950  Biso   1.000  H
  H78      1.0000 0.72950  0.79850  0.46260  Biso   1.000  H
  H79      1.0000 0.20150  0.96260  0.77050  Biso   1.000  H
  H80      1.0000 0.70150  0.53740  0.22950  Biso   1.000  H
  H81      1.0000 0.77050  0.20150  0.96260  Biso   1.000  H
  H82      1.0000 0.46260  0.72950  0.79850  Biso   1.000  H
  H83      1.0000 0.53740  0.22950  0.70150  Biso   1.000  H
  H84      1.0000 0.96260  0.77050  0.20150  Biso   1.000  H
  H85      1.0000 0.96260  0.72950  0.70150  Biso   1.000  H
  H86      1.0000 0.70150  0.96260  0.72950  Biso   1.000  H
  H87      1.0000 0.72950  0.70150  0.96260  Biso   1.000  H
  H88      1.0000 0.77050  0.29850  0.46260  Biso   1.000  H
  H89      1.0000 0.20150  0.53740  0.27050  Biso   1.000  H
  H90      1.0000 0.27050  0.20150  0.53740  Biso   1.000  H
  H91      1.0000 0.79850  0.03740  0.22950  Biso   1.000  H
  H92      1.0000 0.29850  0.46260  0.77050  Biso   1.000  H
  H93      1.0000 0.22950  0.79850  0.03740  Biso   1.000  H
  H94      1.0000 0.53740  0.27050  0.20150  Biso   1.000  H
  H95      1.0000 0.46260  0.77050  0.29850  Biso   1.000  H
  H96      1.0000 0.03740  0.22950  0.79850  Biso   1.000  H
  C241     1.0000 0.04015  0.28250  0.34820  Biso   1.000  C
  C242     1.0000 0.34820  0.04015  0.28250  Biso   1.000  C
  C243     1.0000 0.28250  0.34820  0.04015  Biso   1.000  C
  C244     1.0000 0.21750  0.65180  0.54015  Biso   1.000  C
  C245     1.0000 0.84820  0.45985  0.71750  Biso   1.000  C
  C246     1.0000 0.71750  0.84820  0.45985  Biso   1.000  C
  C247     1.0000 0.15180  0.95985  0.78250  Biso   1.000  C
  C248     1.0000 0.65180  0.54015  0.21750  Biso   1.000  C
  C249     1.0000 0.78250  0.15180  0.95985  Biso   1.000  C
  C250     1.0000 0.45985  0.71750  0.84820  Biso   1.000  C
  C251     1.0000 0.54015  0.21750  0.65180  Biso   1.000  C
  C252     1.0000 0.95985  0.78250  0.15180  Biso   1.000  C
  C253     1.0000 0.95985  0.71750  0.65180  Biso   1.000  C
  C254     1.0000 0.65180  0.95985  0.71750  Biso   1.000  C
  C255     1.0000 0.71750  0.65180  0.95985  Biso   1.000  C
  C256     1.0000 0.78250  0.34820  0.45985  Biso   1.000  C
  C257     1.0000 0.15180  0.54015  0.28250  Biso   1.000  C
  C258     1.0000 0.28250  0.15180  0.54015  Biso   1.000  C
  C259     1.0000 0.84820  0.04015  0.21750  Biso   1.000  C
  C260     1.0000 0.34820  0.45985  0.78250  Biso   1.000  C
  C261     1.0000 0.21750  0.84820  0.04015  Biso   1.000  C
  C262     1.0000 0.54015  0.28250  0.15180  Biso   1.000  C
  C263     1.0000 0.45985  0.78250  0.34820  Biso   1.000  C
  C264     1.0000 0.04015  0.21750  0.84820  Biso   1.000  C
  H97      1.0000 0.04090  0.26010  0.35700  Biso   1.000  H
  H98      1.0000 0.35700  0.04090  0.26010  Biso   1.000  H
  H99      1.0000 0.26010  0.35700  0.04090  Biso   1.000  H
  H100     1.0000 0.23990  0.64300  0.54090  Biso   1.000  H
  H101     1.0000 0.85700  0.45910  0.73990  Biso   1.000  H
  H102     1.0000 0.73990  0.85700  0.45910  Biso   1.000  H
  H103     1.0000 0.14300  0.95910  0.76010  Biso   1.000  H
  H104     1.0000 0.64300  0.54090  0.23990  Biso   1.000  H
  H105     1.0000 0.76010  0.14300  0.95910  Biso   1.000  H
  H106     1.0000 0.45910  0.73990  0.85700  Biso   1.000  H
  H107     1.0000 0.54090  0.23990  0.64300  Biso   1.000  H
  H108     1.0000 0.95910  0.76010  0.14300  Biso   1.000  H
  H109     1.0000 0.95910  0.73990  0.64300  Biso   1.000  H
  H110     1.0000 0.64300  0.95910  0.73990  Biso   1.000  H
  H111     1.0000 0.73990  0.64300  0.95910  Biso   1.000  H
  H112     1.0000 0.76010  0.35700  0.45910  Biso   1.000  H
  H113     1.0000 0.14300  0.54090  0.26010  Biso   1.000  H
  H114     1.0000 0.26010  0.14300  0.54090  Biso   1.000  H
  H115     1.0000 0.85700  0.04090  0.23990  Biso   1.000  H
  H116     1.0000 0.35700  0.45910  0.76010  Biso   1.000  H
  H117     1.0000 0.23990  0.85700  0.04090  Biso   1.000  H
  H118     1.0000 0.54090  0.26010  0.14300  Biso   1.000  H
  H119     1.0000 0.45910  0.76010  0.35700  Biso   1.000  H
  H120     1.0000 0.04090  0.23990  0.85700  Biso   1.000  H
  C265     1.0000 0.04083  0.31170  0.36964  Biso   1.000  C
  C266     1.0000 0.36964  0.04083  0.31170  Biso   1.000  C
  C267     1.0000 0.31170  0.36964  0.04083  Biso   1.000  C
  C268     1.0000 0.18830  0.63036  0.54083  Biso   1.000  C
  C269     1.0000 0.86964  0.45917  0.68830  Biso   1.000  C
  C270     1.0000 0.68830  0.86964  0.45917  Biso   1.000  C
  C271     1.0000 0.13036  0.95917  0.81170  Biso   1.000  C
  C272     1.0000 0.63036  0.54083  0.18830  Biso   1.000  C
  C273     1.0000 0.81170  0.13036  0.95917  Biso   1.000  C
  C274     1.0000 0.45917  0.68830  0.86964  Biso   1.000  C
  C275     1.0000 0.54083  0.18830  0.63036  Biso   1.000  C
  C276     1.0000 0.95917  0.81170  0.13036  Biso   1.000  C
  C277     1.0000 0.95917  0.68830  0.63036  Biso   1.000  C
  C278     1.0000 0.63036  0.95917  0.68830  Biso   1.000  C
  C279     1.0000 0.68830  0.63036  0.95917  Biso   1.000  C
  C280     1.0000 0.81170  0.36964  0.45917  Biso   1.000  C
  C281     1.0000 0.13036  0.54083  0.31170  Biso   1.000  C
  C282     1.0000 0.31170  0.13036  0.54083  Biso   1.000  C
  C283     1.0000 0.86964  0.04083  0.18830  Biso   1.000  C
  C284     1.0000 0.36964  0.45917  0.81170  Biso   1.000  C
  C285     1.0000 0.18830  0.86964  0.04083  Biso   1.000  C
  C286     1.0000 0.54083  0.31170  0.13036  Biso   1.000  C
  C287     1.0000 0.45917  0.81170  0.36964  Biso   1.000  C
  C288     1.0000 0.04083  0.18830  0.86964  Biso   1.000  C
  C289     1.0000 0.03965  0.34512  0.35678  Biso   1.000  C
  C290     1.0000 0.35678  0.03965  0.34512  Biso   1.000  C
  C291     1.0000 0.34512  0.35678  0.03965  Biso   1.000  C
  C292     1.0000 0.15488  0.64322  0.53965  Biso   1.000  C
  C293     1.0000 0.85678  0.46035  0.65488  Biso   1.000  C
  C294     1.0000 0.65488  0.85678  0.46035  Biso   1.000  C
  C295     1.0000 0.14322  0.96035  0.84512  Biso   1.000  C
  C296     1.0000 0.64322  0.53965  0.15488  Biso   1.000  C
  C297     1.0000 0.84512  0.14322  0.96035  Biso   1.000  C
  C298     1.0000 0.46035  0.65488  0.85678  Biso   1.000  C
  C299     1.0000 0.53965  0.15488  0.64322  Biso   1.000  C
  C300     1.0000 0.96035  0.84512  0.14322  Biso   1.000  C
  C301     1.0000 0.96035  0.65488  0.64322  Biso   1.000  C
  C302     1.0000 0.64322  0.96035  0.65488  Biso   1.000  C
  C303     1.0000 0.65488  0.64322  0.96035  Biso   1.000  C
  C304     1.0000 0.84512  0.35678  0.46035  Biso   1.000  C
  C305     1.0000 0.14322  0.53965  0.34512  Biso   1.000  C
  C306     1.0000 0.34512  0.14322  0.53965  Biso   1.000  C
  C307     1.0000 0.85678  0.03965  0.15488  Biso   1.000  C
  C308     1.0000 0.35678  0.46035  0.84512  Biso   1.000  C
  C309     1.0000 0.15488  0.85678  0.03965  Biso   1.000  C
  C310     1.0000 0.53965  0.34512  0.14322  Biso   1.000  C
  C311     1.0000 0.46035  0.84512  0.35678  Biso   1.000  C
  C312     1.0000 0.03965  0.15488  0.85678  Biso   1.000  C
  H121     1.0000 0.04010  0.36350  0.37220  Biso   1.000  H
  H122     1.0000 0.37220  0.04010  0.36350  Biso   1.000  H
  H123     1.0000 0.36350  0.37220  0.04010  Biso   1.000  H
  H124     1.0000 0.13650  0.62780  0.54010  Biso   1.000  H
  H125     1.0000 0.87220  0.45990  0.63650  Biso   1.000  H
  H126     1.0000 0.63650  0.87220  0.45990  Biso   1.000  H
  H127     1.0000 0.12780  0.95990  0.86350  Biso   1.000  H
  H128     1.0000 0.62780  0.54010  0.13650  Biso   1.000  H
  H129     1.0000 0.86350  0.12780  0.95990  Biso   1.000  H
  H130     1.0000 0.45990  0.63650  0.87220  Biso   1.000  H
  H131     1.0000 0.54010  0.13650  0.62780  Biso   1.000  H
  H132     1.0000 0.95990  0.86350  0.12780  Biso   1.000  H
  H133     1.0000 0.95990  0.63650  0.62780  Biso   1.000  H
  H134     1.0000 0.62780  0.95990  0.63650  Biso   1.000  H
  H135     1.0000 0.63650  0.62780  0.95990  Biso   1.000  H
  H136     1.0000 0.86350  0.37220  0.45990  Biso   1.000  H
  H137     1.0000 0.12780  0.54010  0.36350  Biso   1.000  H
  H138     1.0000 0.36350  0.12780  0.54010  Biso   1.000  H
  H139     1.0000 0.87220  0.04010  0.13650  Biso   1.000  H
  H140     1.0000 0.37220  0.45990  0.86350  Biso   1.000  H
  H141     1.0000 0.13650  0.87220  0.04010  Biso   1.000  H
  H142     1.0000 0.54010  0.36350  0.12780  Biso   1.000  H
  H143     1.0000 0.45990  0.86350  0.37220  Biso   1.000  H
  H144     1.0000 0.04010  0.13650  0.87220  Biso   1.000  H
  C313     1.0000 0.04232  0.30735  0.40728  Biso   1.000  C
  C314     1.0000 0.40728  0.04232  0.30735  Biso   1.000  C
  C315     1.0000 0.30735  0.40728  0.04232  Biso   1.000  C
  C316     1.0000 0.19265  0.59272  0.54232  Biso   1.000  C
  C317     1.0000 0.90728  0.45768  0.69265  Biso   1.000  C
  C318     1.0000 0.69265  0.90728  0.45768  Biso   1.000  C
  C319     1.0000 0.09272  0.95768  0.80735  Biso   1.000  C
  C320     1.0000 0.59272  0.54232  0.19265  Biso   1.000  C
  C321     1.0000 0.80735  0.09272  0.95768  Biso   1.000  C
  C322     1.0000 0.45768  0.69265  0.90728  Biso   1.000  C
  C323     1.0000 0.54232  0.19265  0.59272  Biso   1.000  C
  C324     1.0000 0.95768  0.80735  0.09272  Biso   1.000  C
  C325     1.0000 0.95768  0.69265  0.59272  Biso   1.000  C
  C326     1.0000 0.59272  0.95768  0.69265  Biso   1.000  C
  C327     1.0000 0.69265  0.59272  0.95768  Biso   1.000  C
  C328     1.0000 0.80735  0.40728  0.45768  Biso   1.000  C
  C329     1.0000 0.09272  0.54232  0.30735  Biso   1.000  C
  C330     1.0000 0.30735  0.09272  0.54232  Biso   1.000  C
  C331     1.0000 0.90728  0.04232  0.19265  Biso   1.000  C
  C332     1.0000 0.40728  0.45768  0.80735  Biso   1.000  C
  C333     1.0000 0.19265  0.90728  0.04232  Biso   1.000  C
  C334     1.0000 0.54232  0.30735  0.09272  Biso   1.000  C
  C335     1.0000 0.45768  0.80735  0.40728  Biso   1.000  C
  C336     1.0000 0.04232  0.19265  0.90728  Biso   1.000  C
  C337     1.0000 0.03132  0.30949  0.24360  Biso   1.000  C
  C338     1.0000 0.24360  0.03132  0.30949  Biso   1.000  C
  C339     1.0000 0.30949  0.24360  0.03132  Biso   1.000  C
  C340     1.0000 0.19051  0.75640  0.53132  Biso   1.000  C
  C341     1.0000 0.74360  0.46868  0.69051  Biso   1.000  C
  C342     1.0000 0.69051  0.74360  0.46868  Biso   1.000  C
  C343     1.0000 0.25640  0.96868  0.80949  Biso   1.000  C
  C344     1.0000 0.75640  0.53132  0.19051  Biso   1.000  C
  C345     1.0000 0.80949  0.25640  0.96868  Biso   1.000  C
  C346     1.0000 0.46868  0.69051  0.74360  Biso   1.000  C
  C347     1.0000 0.53132  0.19051  0.75640  Biso   1.000  C
  C348     1.0000 0.96868  0.80949  0.25640  Biso   1.000  C
  C349     1.0000 0.96868  0.69051  0.75640  Biso   1.000  C
  C350     1.0000 0.75640  0.96868  0.69051  Biso   1.000  C
  C351     1.0000 0.69051  0.75640  0.96868  Biso   1.000  C
  C352     1.0000 0.80949  0.24360  0.46868  Biso   1.000  C
  C353     1.0000 0.25640  0.53132  0.30949  Biso   1.000  C
  C354     1.0000 0.30949  0.25640  0.53132  Biso   1.000  C
  C355     1.0000 0.74360  0.03132  0.19051  Biso   1.000  C
  C356     1.0000 0.24360  0.46868  0.80949  Biso   1.000  C
  C357     1.0000 0.19051  0.74360  0.03132  Biso   1.000  C
  C358     1.0000 0.53132  0.30949  0.25640  Biso   1.000  C
  C359     1.0000 0.46868  0.80949  0.24360  Biso   1.000  C
  C360     1.0000 0.03132  0.19051  0.74360  Biso   1.000  C
  C361     1.0000 0.00550  0.30980  0.22100  Biso   1.000  C
  C362     1.0000 0.22100  0.00550  0.30980  Biso   1.000  C
  C363     1.0000 0.30980  0.22100  0.00550  Biso   1.000  C
  C364     1.0000 0.19020  0.77900  0.50550  Biso   1.000  C
  C365     1.0000 0.72100  0.49450  0.69020  Biso   1.000  C
  C366     1.0000 0.69020  0.72100  0.49450  Biso   1.000  C
  C367     1.0000 0.27900  0.99450  0.80980  Biso   1.000  C
  C368     1.0000 0.77900  0.50550  0.19020  Biso   1.000  C
  C369     1.0000 0.80980  0.27900  0.99450  Biso   1.000  C
  C370     1.0000 0.49450  0.69020  0.72100  Biso   1.000  C
  C371     1.0000 0.50550  0.19020  0.77900  Biso   1.000  C
  C372     1.0000 0.99450  0.80980  0.27900  Biso   1.000  C
  C373     1.0000 0.99450  0.69020  0.77900  Biso   1.000  C
  C374     1.0000 0.77900  0.99450  0.69020  Biso   1.000  C
  C375     1.0000 0.69020  0.77900  0.99450  Biso   1.000  C
  C376     1.0000 0.80980  0.22100  0.49450  Biso   1.000  C
  C377     1.0000 0.27900  0.50550  0.30980  Biso   1.000  C
  C378     1.0000 0.30980  0.27900  0.50550  Biso   1.000  C
  C379     1.0000 0.72100  0.00550  0.19020  Biso   1.000  C
  C380     1.0000 0.22100  0.49450  0.80980  Biso   1.000  C
  C381     1.0000 0.19020  0.72100  0.00550  Biso   1.000  C
  C382     1.0000 0.50550  0.30980  0.27900  Biso   1.000  C
  C383     1.0000 0.49450  0.80980  0.22100  Biso   1.000  C
  C384     1.0000 0.00550  0.19020  0.72100  Biso   1.000  C
  H145     1.0000 0.98880  0.32710  0.22230  Biso   1.000  H
  H146     1.0000 0.22230  0.98880  0.32710  Biso   1.000  H
  H147     1.0000 0.32710  0.22230  0.98880  Biso   1.000  H
  H148     1.0000 0.17290  0.77770  0.48880  Biso   1.000  H
  H149     1.0000 0.72230  0.51120  0.67290  Biso   1.000  H
  H150     1.0000 0.67290  0.72230  0.51120  Biso   1.000  H
  H151     1.0000 0.27770  0.01120  0.82710  Biso   1.000  H
  H152     1.0000 0.77770  0.48880  0.17290  Biso   1.000  H
  H153     1.0000 0.82710  0.27770  0.01120  Biso   1.000  H
  H154     1.0000 0.51120  0.67290  0.72230  Biso   1.000  H
  H155     1.0000 0.48880  0.17290  0.77770  Biso   1.000  H
  H156     1.0000 0.01120  0.82710  0.27770  Biso   1.000  H
  H157     1.0000 0.01120  0.67290  0.77770  Biso   1.000  H
  H158     1.0000 0.77770  0.01120  0.67290  Biso   1.000  H
  H159     1.0000 0.67290  0.77770  0.01120  Biso   1.000  H
  H160     1.0000 0.82710  0.22230  0.51120  Biso   1.000  H
  H161     1.0000 0.27770  0.48880  0.32710  Biso   1.000  H
  H162     1.0000 0.32710  0.27770  0.48880  Biso   1.000  H
  H163     1.0000 0.72230  0.98880  0.17290  Biso   1.000  H
  H164     1.0000 0.22230  0.51120  0.82710  Biso   1.000  H
  H165     1.0000 0.17290  0.72230  0.98880  Biso   1.000  H
  H166     1.0000 0.48880  0.32710  0.27770  Biso   1.000  H
  H167     1.0000 0.51120  0.82710  0.22230  Biso   1.000  H
  H168     1.0000 0.98880  0.17290  0.72230  Biso   1.000  H
  C385     1.0000 0.00330  0.28560  0.19640  Biso   1.000  C
  C386     1.0000 0.19640  0.00330  0.28560  Biso   1.000  C
  C387     1.0000 0.28560  0.19640  0.00330  Biso   1.000  C
  C388     1.0000 0.21440  0.80360  0.50330  Biso   1.000  C
  C389     1.0000 0.69640  0.49670  0.71440  Biso   1.000  C
  C390     1.0000 0.71440  0.69640  0.49670  Biso   1.000  C
  C391     1.0000 0.30360  0.99670  0.78560  Biso   1.000  C
  C392     1.0000 0.80360  0.50330  0.21440  Biso   1.000  C
  C393     1.0000 0.78560  0.30360  0.99670  Biso   1.000  C
  C394     1.0000 0.49670  0.71440  0.69640  Biso   1.000  C
  C395     1.0000 0.50330  0.21440  0.80360  Biso   1.000  C
  C396     1.0000 0.99670  0.78560  0.30360  Biso   1.000  C
  C397     1.0000 0.99670  0.71440  0.80360  Biso   1.000  C
  C398     1.0000 0.80360  0.99670  0.71440  Biso   1.000  C
  C399     1.0000 0.71440  0.80360  0.99670  Biso   1.000  C
  C400     1.0000 0.78560  0.19640  0.49670  Biso   1.000  C
  C401     1.0000 0.30360  0.50330  0.28560  Biso   1.000  C
  C402     1.0000 0.28560  0.30360  0.50330  Biso   1.000  C
  C403     1.0000 0.69640  0.00330  0.21440  Biso   1.000  C
  C404     1.0000 0.19640  0.49670  0.78560  Biso   1.000  C
  C405     1.0000 0.21440  0.69640  0.00330  Biso   1.000  C
  C406     1.0000 0.50330  0.28560  0.30360  Biso   1.000  C
  C407     1.0000 0.49670  0.78560  0.19640  Biso   1.000  C
  C408     1.0000 0.00330  0.21440  0.69640  Biso   1.000  C
  H169     1.0000 0.98470  0.28750  0.18120  Biso   1.000  H
  H170     1.0000 0.18120  0.98470  0.28750  Biso   1.000  H
  H171     1.0000 0.28750  0.18120  0.98470  Biso   1.000  H
  H172     1.0000 0.21250  0.81880  0.48470  Biso   1.000  H
  H173     1.0000 0.68120  0.51530  0.71250  Biso   1.000  H
  H174     1.0000 0.71250  0.68120  0.51530  Biso   1.000  H
  H175     1.0000 0.31880  0.01530  0.78750  Biso   1.000  H
  H176     1.0000 0.81880  0.48470  0.21250  Biso   1.000  H
  H177     1.0000 0.78750  0.31880  0.01530  Biso   1.000  H
  H178     1.0000 0.51530  0.71250  0.68120  Biso   1.000  H
  H179     1.0000 0.48470  0.21250  0.81880  Biso   1.000  H
  H180     1.0000 0.01530  0.78750  0.31880  Biso   1.000  H
  H181     1.0000 0.01530  0.71250  0.81880  Biso   1.000  H
  H182     1.0000 0.81880  0.01530  0.71250  Biso   1.000  H
  H183     1.0000 0.71250  0.81880  0.01530  Biso   1.000  H
  H184     1.0000 0.78750  0.18120  0.51530  Biso   1.000  H
  H185     1.0000 0.31880  0.48470  0.28750  Biso   1.000  H
  H186     1.0000 0.28750  0.31880  0.48470  Biso   1.000  H
  H187     1.0000 0.68120  0.98470  0.21250  Biso   1.000  H
  H188     1.0000 0.18120  0.51530  0.78750  Biso   1.000  H
  H189     1.0000 0.21250  0.68120  0.98470  Biso   1.000  H
  H190     1.0000 0.48470  0.28750  0.31880  Biso   1.000  H
  H191     1.0000 0.51530  0.78750  0.18120  Biso   1.000  H
  H192     1.0000 0.98470  0.21250  0.68120  Biso   1.000  H
  C409     1.0000 0.02271  0.26142  0.19141  Biso   1.000  C
  C410     1.0000 0.19141  0.02271  0.26142  Biso   1.000  C
  C411     1.0000 0.26142  0.19141  0.02271  Biso   1.000  C
  C412     1.0000 0.23858  0.80859  0.52271  Biso   1.000  C
  C413     1.0000 0.69141  0.47729  0.73858  Biso   1.000  C
  C414     1.0000 0.73858  0.69141  0.47729  Biso   1.000  C
  C415     1.0000 0.30859  0.97729  0.76142  Biso   1.000  C
  C416     1.0000 0.80859  0.52271  0.23858  Biso   1.000  C
  C417     1.0000 0.76142  0.30859  0.97729  Biso   1.000  C
  C418     1.0000 0.47729  0.73858  0.69141  Biso   1.000  C
  C419     1.0000 0.52271  0.23858  0.80859  Biso   1.000  C
  C420     1.0000 0.97729  0.76142  0.30859  Biso   1.000  C
  C421     1.0000 0.97729  0.73858  0.80859  Biso   1.000  C
  C422     1.0000 0.80859  0.97729  0.73858  Biso   1.000  C
  C423     1.0000 0.73858  0.80859  0.97729  Biso   1.000  C
  C424     1.0000 0.76142  0.19141  0.47729  Biso   1.000  C
  C425     1.0000 0.30859  0.52271  0.26142  Biso   1.000  C
  C426     1.0000 0.26142  0.30859  0.52271  Biso   1.000  C
  C427     1.0000 0.69141  0.02271  0.23858  Biso   1.000  C
  C428     1.0000 0.19141  0.47729  0.76142  Biso   1.000  C
  C429     1.0000 0.23858  0.69141  0.02271  Biso   1.000  C
  C430     1.0000 0.52271  0.26142  0.30859  Biso   1.000  C
  C431     1.0000 0.47729  0.76142  0.19141  Biso   1.000  C
  C432     1.0000 0.02271  0.23858  0.69141  Biso   1.000  C
  C433     1.0000 0.05031  0.25899  0.21330  Biso   1.000  C
  C434     1.0000 0.21330  0.05031  0.25899  Biso   1.000  C
  C435     1.0000 0.25899  0.21330  0.05031  Biso   1.000  C
  C436     1.0000 0.24101  0.78670  0.55031  Biso   1.000  C
  C437     1.0000 0.71330  0.44969  0.74101  Biso   1.000  C
  C438     1.0000 0.74101  0.71330  0.44969  Biso   1.000  C
  C439     1.0000 0.28670  0.94969  0.75899  Biso   1.000  C
  C440     1.0000 0.78670  0.55031  0.24101  Biso   1.000  C
  C441     1.0000 0.75899  0.28670  0.94969  Biso   1.000  C
  C442     1.0000 0.44969  0.74101  0.71330  Biso   1.000  C
  C443     1.0000 0.55031  0.24101  0.78670  Biso   1.000  C
  C444     1.0000 0.94969  0.75899  0.28670  Biso   1.000  C
  C445     1.0000 0.94969  0.74101  0.78670  Biso   1.000  C
  C446     1.0000 0.78670  0.94969  0.74101  Biso   1.000  C
  C447     1.0000 0.74101  0.78670  0.94969  Biso   1.000  C
  C448     1.0000 0.75899  0.21330  0.44969  Biso   1.000  C
  C449     1.0000 0.28670  0.55031  0.25899  Biso   1.000  C
  C450     1.0000 0.25899  0.28670  0.55031  Biso   1.000  C
  C451     1.0000 0.71330  0.05031  0.24101  Biso   1.000  C
  C452     1.0000 0.21330  0.44969  0.75899  Biso   1.000  C
  C453     1.0000 0.24101  0.71330  0.05031  Biso   1.000  C
  C454     1.0000 0.55031  0.25899  0.28670  Biso   1.000  C
  C455     1.0000 0.44969  0.75899  0.21330  Biso   1.000  C
  C456     1.0000 0.05031  0.24101  0.71330  Biso   1.000  C
  H193     1.0000 0.06590  0.24080  0.21050  Biso   1.000  H
  H194     1.0000 0.21050  0.06590  0.24080  Biso   1.000  H
  H195     1.0000 0.24080  0.21050  0.06590  Biso   1.000  H
  H196     1.0000 0.25920  0.78950  0.56590  Biso   1.000  H
  H197     1.0000 0.71050  0.43410  0.75920  Biso   1.000  H
  H198     1.0000 0.75920  0.71050  0.43410  Biso   1.000  H
  H199     1.0000 0.28950  0.93410  0.74080  Biso   1.000  H
  H200     1.0000 0.78950  0.56590  0.25920  Biso   1.000  H
  H201     1.0000 0.74080  0.28950  0.93410  Biso   1.000  H
  H202     1.0000 0.43410  0.75920  0.71050  Biso   1.000  H
  H203     1.0000 0.56590  0.25920  0.78950  Biso   1.000  H
  H204     1.0000 0.93410  0.74080  0.28950  Biso   1.000  H
  H205     1.0000 0.93410  0.75920  0.78950  Biso   1.000  H
  H206     1.0000 0.78950  0.93410  0.75920  Biso   1.000  H
  H207     1.0000 0.75920  0.78950  0.93410  Biso   1.000  H
  H208     1.0000 0.74080  0.21050  0.43410  Biso   1.000  H
  H209     1.0000 0.28950  0.56590  0.24080  Biso   1.000  H
  H210     1.0000 0.24080  0.28950  0.56590  Biso   1.000  H
  H211     1.0000 0.71050  0.06590  0.25920  Biso   1.000  H
  H212     1.0000 0.21050  0.43410  0.74080  Biso   1.000  H
  H213     1.0000 0.25920  0.71050  0.06590  Biso   1.000  H
  H214     1.0000 0.56590  0.24080  0.28950  Biso   1.000  H
  H215     1.0000 0.43410  0.74080  0.21050  Biso   1.000  H
  H216     1.0000 0.06590  0.25920  0.71050  Biso   1.000  H
  C457     1.0000 0.05580  0.28280  0.23960  Biso   1.000  C
  C458     1.0000 0.23960  0.05580  0.28280  Biso   1.000  C
  C459     1.0000 0.28280  0.23960  0.05580  Biso   1.000  C
  C460     1.0000 0.21720  0.76040  0.55580  Biso   1.000  C
  C461     1.0000 0.73960  0.44420  0.71720  Biso   1.000  C
  C462     1.0000 0.71720  0.73960  0.44420  Biso   1.000  C
  C463     1.0000 0.26040  0.94420  0.78280  Biso   1.000  C
  C464     1.0000 0.76040  0.55580  0.21720  Biso   1.000  C
  C465     1.0000 0.78280  0.26040  0.94420  Biso   1.000  C
  C466     1.0000 0.44420  0.71720  0.73960  Biso   1.000  C
  C467     1.0000 0.55580  0.21720  0.76040  Biso   1.000  C
  C468     1.0000 0.94420  0.78280  0.26040  Biso   1.000  C
  C469     1.0000 0.94420  0.71720  0.76040  Biso   1.000  C
  C470     1.0000 0.76040  0.94420  0.71720  Biso   1.000  C
  C471     1.0000 0.71720  0.76040  0.94420  Biso   1.000  C
  C472     1.0000 0.78280  0.23960  0.44420  Biso   1.000  C
  C473     1.0000 0.26040  0.55580  0.28280  Biso   1.000  C
  C474     1.0000 0.28280  0.26040  0.55580  Biso   1.000  C
  C475     1.0000 0.73960  0.05580  0.21720  Biso   1.000  C
  C476     1.0000 0.23960  0.44420  0.78280  Biso   1.000  C
  C477     1.0000 0.21720  0.73960  0.05580  Biso   1.000  C
  C478     1.0000 0.55580  0.28280  0.26040  Biso   1.000  C
  C479     1.0000 0.44420  0.78280  0.23960  Biso   1.000  C
  C480     1.0000 0.05580  0.21720  0.73960  Biso   1.000  C
  H217     1.0000 0.07500  0.28130  0.25400  Biso   1.000  H
  H218     1.0000 0.25400  0.07500  0.28130  Biso   1.000  H
  H219     1.0000 0.28130  0.25400  0.07500  Biso   1.000  H
  H220     1.0000 0.21870  0.74600  0.57500  Biso   1.000  H
  H221     1.0000 0.75400  0.42500  0.71870  Biso   1.000  H
  H222     1.0000 0.71870  0.75400  0.42500  Biso   1.000  H
  H223     1.0000 0.24600  0.92500  0.78130  Biso   1.000  H
  H224     1.0000 0.74600  0.57500  0.21870  Biso   1.000  H
  H225     1.0000 0.78130  0.24600  0.92500  Biso   1.000  H
  H226     1.0000 0.42500  0.71870  0.75400  Biso   1.000  H
  H227     1.0000 0.57500  0.21870  0.74600  Biso   1.000  H
  H228     1.0000 0.92500  0.78130  0.24600  Biso   1.000  H
  H229     1.0000 0.92500  0.71870  0.74600  Biso   1.000  H
  H230     1.0000 0.74600  0.92500  0.71870  Biso   1.000  H
  H231     1.0000 0.71870  0.74600  0.92500  Biso   1.000  H
  H232     1.0000 0.78130  0.25400  0.42500  Biso   1.000  H
  H233     1.0000 0.24600  0.57500  0.28130  Biso   1.000  H
  H234     1.0000 0.28130  0.24600  0.57500  Biso   1.000  H
  H235     1.0000 0.75400  0.07500  0.21870  Biso   1.000  H
  H236     1.0000 0.25400  0.42500  0.78130  Biso   1.000  H
  H237     1.0000 0.21870  0.75400  0.07500  Biso   1.000  H
  H238     1.0000 0.57500  0.28130  0.24600  Biso   1.000  H
  H239     1.0000 0.42500  0.78130  0.25400  Biso   1.000  H
  H240     1.0000 0.07500  0.21870  0.75400  Biso   1.000  H
  C481     1.0000 0.01186  0.19913  0.12500  Biso   1.000  C
  C482     1.0000 0.12500  0.01186  0.19913  Biso   1.000  C
  C483     1.0000 0.19913  0.12500  0.01186  Biso   1.000  C
  C484     1.0000 0.30087  0.87500  0.51186  Biso   1.000  C
  C485     1.0000 0.62500  0.48814  0.80087  Biso   1.000  C
  C486     1.0000 0.80087  0.62500  0.48814  Biso   1.000  C
  C487     1.0000 0.37500  0.98814  0.69913  Biso   1.000  C
  C488     1.0000 0.87500  0.51186  0.30087  Biso   1.000  C
  C489     1.0000 0.69913  0.37500  0.98814  Biso   1.000  C
  C490     1.0000 0.48814  0.80087  0.62500  Biso   1.000  C
  C491     1.0000 0.51186  0.30087  0.87500  Biso   1.000  C
  C492     1.0000 0.98814  0.69913  0.37500  Biso   1.000  C
  C493     1.0000 0.98814  0.80087  0.87500  Biso   1.000  C
  C494     1.0000 0.87500  0.98814  0.80087  Biso   1.000  C
  C495     1.0000 0.80087  0.87500  0.98814  Biso   1.000  C
  C496     1.0000 0.69913  0.12500  0.48814  Biso   1.000  C
  C497     1.0000 0.37500  0.51186  0.19913  Biso   1.000  C
  C498     1.0000 0.19913  0.37500  0.51186  Biso   1.000  C
  C499     1.0000 0.62500  0.01186  0.30087  Biso   1.000  C
  C500     1.0000 0.12500  0.48814  0.69913  Biso   1.000  C
  C501     1.0000 0.30087  0.62500  0.01186  Biso   1.000  C
  C502     1.0000 0.51186  0.19913  0.37500  Biso   1.000  C
  C503     1.0000 0.48814  0.69913  0.12500  Biso   1.000  C
  C504     1.0000 0.01186  0.30087  0.62500  Biso   1.000  C
  C505     1.0000 0.01795  0.23100  0.13740  Biso   1.000  C
  C506     1.0000 0.13740  0.01795  0.23100  Biso   1.000  C
  C507     1.0000 0.23100  0.13740  0.01795  Biso   1.000  C
  C508     1.0000 0.26900  0.86260  0.51795  Biso   1.000  C
  C509     1.0000 0.63740  0.48205  0.76900  Biso   1.000  C
  C510     1.0000 0.76900  0.63740  0.48205  Biso   1.000  C
  C511     1.0000 0.36260  0.98205  0.73100  Biso   1.000  C
  C512     1.0000 0.86260  0.51795  0.26900  Biso   1.000  C
  C513     1.0000 0.73100  0.36260  0.98205  Biso   1.000  C
  C514     1.0000 0.48205  0.76900  0.63740  Biso   1.000  C
  C515     1.0000 0.51795  0.26900  0.86260  Biso   1.000  C
  C516     1.0000 0.98205  0.73100  0.36260  Biso   1.000  C
  C517     1.0000 0.98205  0.76900  0.86260  Biso   1.000  C
  C518     1.0000 0.86260  0.98205  0.76900  Biso   1.000  C
  C519     1.0000 0.76900  0.86260  0.98205  Biso   1.000  C
  C520     1.0000 0.73100  0.13740  0.48205  Biso   1.000  C
  C521     1.0000 0.36260  0.51795  0.23100  Biso   1.000  C
  C522     1.0000 0.23100  0.36260  0.51795  Biso   1.000  C
  C523     1.0000 0.63740  0.01795  0.26900  Biso   1.000  C
  C524     1.0000 0.13740  0.48205  0.73100  Biso   1.000  C
  C525     1.0000 0.26900  0.63740  0.01795  Biso   1.000  C
  C526     1.0000 0.51795  0.23100  0.36260  Biso   1.000  C
  C527     1.0000 0.48205  0.73100  0.13740  Biso   1.000  C
  C528     1.0000 0.01795  0.26900  0.63740  Biso   1.000  C
  C529     1.0000 0.02820  0.26016  0.11403  Biso   1.000  C
  C530     1.0000 0.11403  0.02820  0.26016  Biso   1.000  C
  C531     1.0000 0.26016  0.11403  0.02820  Biso   1.000  C
  C532     1.0000 0.23984  0.88597  0.52820  Biso   1.000  C
  C533     1.0000 0.61403  0.47180  0.73984  Biso   1.000  C
  C534     1.0000 0.73984  0.61403  0.47180  Biso   1.000  C
  C535     1.0000 0.38597  0.97180  0.76016  Biso   1.000  C
  C536     1.0000 0.88597  0.52820  0.23984  Biso   1.000  C
  C537     1.0000 0.76016  0.38597  0.97180  Biso   1.000  C
  C538     1.0000 0.47180  0.73984  0.61403  Biso   1.000  C
  C539     1.0000 0.52820  0.23984  0.88597  Biso   1.000  C
  C540     1.0000 0.97180  0.76016  0.38597  Biso   1.000  C
  C541     1.0000 0.97180  0.73984  0.88597  Biso   1.000  C
  C542     1.0000 0.88597  0.97180  0.73984  Biso   1.000  C
  C543     1.0000 0.73984  0.88597  0.97180  Biso   1.000  C
  C544     1.0000 0.76016  0.11403  0.47180  Biso   1.000  C
  C545     1.0000 0.38597  0.52820  0.26016  Biso   1.000  C
  C546     1.0000 0.26016  0.38597  0.52820  Biso   1.000  C
  C547     1.0000 0.61403  0.02820  0.23984  Biso   1.000  C
  C548     1.0000 0.11403  0.47180  0.76016  Biso   1.000  C
  C549     1.0000 0.23984  0.61403  0.02820  Biso   1.000  C
  C550     1.0000 0.52820  0.26016  0.38597  Biso   1.000  C
  C551     1.0000 0.47180  0.76016  0.11403  Biso   1.000  C
  C552     1.0000 0.02820  0.23984  0.61403  Biso   1.000  C
  H241     1.0000 0.03250  0.28220  0.12280  Biso   1.000  H
  H242     1.0000 0.12280  0.03250  0.28220  Biso   1.000  H
  H243     1.0000 0.28220  0.12280  0.03250  Biso   1.000  H
  H244     1.0000 0.21780  0.87720  0.53250  Biso   1.000  H
  H245     1.0000 0.62280  0.46750  0.71780  Biso   1.000  H
  H246     1.0000 0.71780  0.62280  0.46750  Biso   1.000  H
  H247     1.0000 0.37720  0.96750  0.78220  Biso   1.000  H
  H248     1.0000 0.87720  0.53250  0.21780  Biso   1.000  H
  H249     1.0000 0.78220  0.37720  0.96750  Biso   1.000  H
  H250     1.0000 0.46750  0.71780  0.62280  Biso   1.000  H
  H251     1.0000 0.53250  0.21780  0.87720  Biso   1.000  H
  H252     1.0000 0.96750  0.78220  0.37720  Biso   1.000  H
  H253     1.0000 0.96750  0.71780  0.87720  Biso   1.000  H
  H254     1.0000 0.87720  0.96750  0.71780  Biso   1.000  H
  H255     1.0000 0.71780  0.87720  0.96750  Biso   1.000  H
  H256     1.0000 0.78220  0.12280  0.46750  Biso   1.000  H
  H257     1.0000 0.37720  0.53250  0.28220  Biso   1.000  H
  H258     1.0000 0.28220  0.37720  0.53250  Biso   1.000  H
  H259     1.0000 0.62280  0.03250  0.21780  Biso   1.000  H
  H260     1.0000 0.12280  0.46750  0.78220  Biso   1.000  H
  H261     1.0000 0.21780  0.62280  0.03250  Biso   1.000  H
  H262     1.0000 0.53250  0.28220  0.37720  Biso   1.000  H
  H263     1.0000 0.46750  0.78220  0.12280  Biso   1.000  H
  H264     1.0000 0.03250  0.21780  0.62280  Biso   1.000  H
  C553     1.0000 0.03077  0.25416  0.08320  Biso   1.000  C
  C554     1.0000 0.08320  0.03077  0.25416  Biso   1.000  C
  C555     1.0000 0.25416  0.08320  0.03077  Biso   1.000  C
  C556     1.0000 0.24584  0.91680  0.53077  Biso   1.000  C
  C557     1.0000 0.58320  0.46923  0.74584  Biso   1.000  C
  C558     1.0000 0.74584  0.58320  0.46923  Biso   1.000  C
  C559     1.0000 0.41680  0.96923  0.75416  Biso   1.000  C
  C560     1.0000 0.91680  0.53077  0.24584  Biso   1.000  C
  C561     1.0000 0.75416  0.41680  0.96923  Biso   1.000  C
  C562     1.0000 0.46923  0.74584  0.58320  Biso   1.000  C
  C563     1.0000 0.53077  0.24584  0.91680  Biso   1.000  C
  C564     1.0000 0.96923  0.75416  0.41680  Biso   1.000  C
  C565     1.0000 0.96923  0.74584  0.91680  Biso   1.000  C
  C566     1.0000 0.91680  0.96923  0.74584  Biso   1.000  C
  C567     1.0000 0.74584  0.91680  0.96923  Biso   1.000  C
  C568     1.0000 0.75416  0.08320  0.46923  Biso   1.000  C
  C569     1.0000 0.41680  0.53077  0.25416  Biso   1.000  C
  C570     1.0000 0.25416  0.41680  0.53077  Biso   1.000  C
  C571     1.0000 0.58320  0.03077  0.24584  Biso   1.000  C
  C572     1.0000 0.08320  0.46923  0.75416  Biso   1.000  C
  C573     1.0000 0.24584  0.58320  0.03077  Biso   1.000  C
  C574     1.0000 0.53077  0.25416  0.41680  Biso   1.000  C
  C575     1.0000 0.46923  0.75416  0.08320  Biso   1.000  C
  C576     1.0000 0.03077  0.24584  0.58320  Biso   1.000  C
  H265     1.0000 0.03700  0.27180  0.06810  Biso   1.000  H
  H266     1.0000 0.06810  0.03700  0.27180  Biso   1.000  H
  H267     1.0000 0.27180  0.06810  0.03700  Biso   1.000  H
  H268     1.0000 0.22820  0.93190  0.53700  Biso   1.000  H
  H269     1.0000 0.56810  0.46300  0.72820  Biso   1.000  H
  H270     1.0000 0.72820  0.56810  0.46300  Biso   1.000  H
  H271     1.0000 0.43190  0.96300  0.77180  Biso   1.000  H
  H272     1.0000 0.93190  0.53700  0.22820  Biso   1.000  H
  H273     1.0000 0.77180  0.43190  0.96300  Biso   1.000  H
  H274     1.0000 0.46300  0.72820  0.56810  Biso   1.000  H
  H275     1.0000 0.53700  0.22820  0.93190  Biso   1.000  H
  H276     1.0000 0.96300  0.77180  0.43190  Biso   1.000  H
  H277     1.0000 0.96300  0.72820  0.93190  Biso   1.000  H
  H278     1.0000 0.93190  0.96300  0.72820  Biso   1.000  H
  H279     1.0000 0.72820  0.93190  0.96300  Biso   1.000  H
  H280     1.0000 0.77180  0.06810  0.46300  Biso   1.000  H
  H281     1.0000 0.43190  0.53700  0.27180  Biso   1.000  H
  H282     1.0000 0.27180  0.43190  0.53700  Biso   1.000  H
  H283     1.0000 0.56810  0.03700  0.22820  Biso   1.000  H
  H284     1.0000 0.06810  0.46300  0.77180  Biso   1.000  H
  H285     1.0000 0.22820  0.56810  0.03700  Biso   1.000  H
  H286     1.0000 0.53700  0.27180  0.43190  Biso   1.000  H
  H287     1.0000 0.46300  0.77180  0.06810  Biso   1.000  H
  H288     1.0000 0.03700  0.22820  0.56810  Biso   1.000  H
  C577     1.0000 0.02433  0.22051  0.07009  Biso   1.000  C
  C578     1.0000 0.07009  0.02433  0.22051  Biso   1.000  C
  C579     1.0000 0.22051  0.07009  0.02433  Biso   1.000  C
  C580     1.0000 0.27949  0.92991  0.52433  Biso   1.000  C
  C581     1.0000 0.57009  0.47567  0.77949  Biso   1.000  C
  C582     1.0000 0.77949  0.57009  0.47567  Biso   1.000  C
  C583     1.0000 0.42991  0.97567  0.72051  Biso   1.000  C
  C584     1.0000 0.92991  0.52433  0.27949  Biso   1.000  C
  C585     1.0000 0.72051  0.42991  0.97567  Biso   1.000  C
  C586     1.0000 0.47567  0.77949  0.57009  Biso   1.000  C
  C587     1.0000 0.52433  0.27949  0.92991  Biso   1.000  C
  C588     1.0000 0.97567  0.72051  0.42991  Biso   1.000  C
  C589     1.0000 0.97567  0.77949  0.92991  Biso   1.000  C
  C590     1.0000 0.92991  0.97567  0.77949  Biso   1.000  C
  C591     1.0000 0.77949  0.92991  0.97567  Biso   1.000  C
  C592     1.0000 0.72051  0.07009  0.47567  Biso   1.000  C
  C593     1.0000 0.42991  0.52433  0.22051  Biso   1.000  C
  C594     1.0000 0.22051  0.42991  0.52433  Biso   1.000  C
  C595     1.0000 0.57009  0.02433  0.27949  Biso   1.000  C
  C596     1.0000 0.07009  0.47567  0.72051  Biso   1.000  C
  C597     1.0000 0.27949  0.57009  0.02433  Biso   1.000  C
  C598     1.0000 0.52433  0.22051  0.42991  Biso   1.000  C
  C599     1.0000 0.47567  0.72051  0.07009  Biso   1.000  C
  C600     1.0000 0.02433  0.27949  0.57009  Biso   1.000  C
  C601     1.0000 0.01505  0.19351  0.09076  Biso   1.000  C
  C602     1.0000 0.09076  0.01505  0.19351  Biso   1.000  C
  C603     1.0000 0.19351  0.09076  0.01505  Biso   1.000  C
  C604     1.0000 0.30649  0.90924  0.51505  Biso   1.000  C
  C605     1.0000 0.59076  0.48495  0.80649  Biso   1.000  C
  C606     1.0000 0.80649  0.59076  0.48495  Biso   1.000  C
  C607     1.0000 0.40924  0.98495  0.69351  Biso   1.000  C
  C608     1.0000 0.90924  0.51505  0.30649  Biso   1.000  C
  C609     1.0000 0.69351  0.40924  0.98495  Biso   1.000  C
  C610     1.0000 0.48495  0.80649  0.59076  Biso   1.000  C
  C611     1.0000 0.51505  0.30649  0.90924  Biso   1.000  C
  C612     1.0000 0.98495  0.69351  0.40924  Biso   1.000  C
  C613     1.0000 0.98495  0.80649  0.90924  Biso   1.000  C
  C614     1.0000 0.90924  0.98495  0.80649  Biso   1.000  C
  C615     1.0000 0.80649  0.90924  0.98495  Biso   1.000  C
  C616     1.0000 0.69351  0.09076  0.48495  Biso   1.000  C
  C617     1.0000 0.40924  0.51505  0.19351  Biso   1.000  C
  C618     1.0000 0.19351  0.40924  0.51505  Biso   1.000  C
  C619     1.0000 0.59076  0.01505  0.30649  Biso   1.000  C
  C620     1.0000 0.09076  0.48495  0.69351  Biso   1.000  C
  C621     1.0000 0.30649  0.59076  0.01505  Biso   1.000  C
  C622     1.0000 0.51505  0.19351  0.40924  Biso   1.000  C
  C623     1.0000 0.48495  0.69351  0.09076  Biso   1.000  C
  C624     1.0000 0.01505  0.30649  0.59076  Biso   1.000  C
  H289     1.0000 0.01100  0.17170  0.08140  Biso   1.000  H
  H290     1.0000 0.08140  0.01100  0.17170  Biso   1.000  H
  H291     1.0000 0.17170  0.08140  0.01100  Biso   1.000  H
  H292     1.0000 0.32830  0.91860  0.51100  Biso   1.000  H
  H293     1.0000 0.58140  0.48900  0.82830  Biso   1.000  H
  H294     1.0000 0.82830  0.58140  0.48900  Biso   1.000  H
  H295     1.0000 0.41860  0.98900  0.67170  Biso   1.000  H
  H296     1.0000 0.91860  0.51100  0.32830  Biso   1.000  H
  H297     1.0000 0.67170  0.41860  0.98900  Biso   1.000  H
  H298     1.0000 0.48900  0.82830  0.58140  Biso   1.000  H
  H299     1.0000 0.51100  0.32830  0.91860  Biso   1.000  H
  H300     1.0000 0.98900  0.67170  0.41860  Biso   1.000  H
  H301     1.0000 0.98900  0.82830  0.91860  Biso   1.000  H
  H302     1.0000 0.91860  0.98900  0.82830  Biso   1.000  H
  H303     1.0000 0.82830  0.91860  0.98900  Biso   1.000  H
  H304     1.0000 0.67170  0.08140  0.48900  Biso   1.000  H
  H305     1.0000 0.41860  0.51100  0.17170  Biso   1.000  H
  H306     1.0000 0.17170  0.41860  0.51100  Biso   1.000  H
  H307     1.0000 0.58140  0.01100  0.32830  Biso   1.000  H
  H308     1.0000 0.08140  0.48900  0.67170  Biso   1.000  H
  H309     1.0000 0.32830  0.58140  0.01100  Biso   1.000  H
  H310     1.0000 0.51100  0.17170  0.41860  Biso   1.000  H
  H311     1.0000 0.48900  0.67170  0.08140  Biso   1.000  H
  H312     1.0000 0.01100  0.32830  0.58140  Biso   1.000  H
  C625     1.0000 0.02848  0.21431  0.03194  Biso   1.000  C
  C626     1.0000 0.03194  0.02848  0.21431  Biso   1.000  C
  C627     1.0000 0.21431  0.03194  0.02848  Biso   1.000  C
  C628     1.0000 0.28569  0.96806  0.52848  Biso   1.000  C
  C629     1.0000 0.53194  0.47152  0.78569  Biso   1.000  C
  C630     1.0000 0.78569  0.53194  0.47152  Biso   1.000  C
  C631     1.0000 0.46806  0.97152  0.71431  Biso   1.000  C
  C632     1.0000 0.96806  0.52848  0.28569  Biso   1.000  C
  C633     1.0000 0.71431  0.46806  0.97152  Biso   1.000  C
  C634     1.0000 0.47152  0.78569  0.53194  Biso   1.000  C
  C635     1.0000 0.52848  0.28569  0.96806  Biso   1.000  C
  C636     1.0000 0.97152  0.71431  0.46806  Biso   1.000  C
  C637     1.0000 0.97152  0.78569  0.96806  Biso   1.000  C
  C638     1.0000 0.96806  0.97152  0.78569  Biso   1.000  C
  C639     1.0000 0.78569  0.96806  0.97152  Biso   1.000  C
  C640     1.0000 0.71431  0.03194  0.47152  Biso   1.000  C
  C641     1.0000 0.46806  0.52848  0.21431  Biso   1.000  C
  C642     1.0000 0.21431  0.46806  0.52848  Biso   1.000  C
  C643     1.0000 0.53194  0.02848  0.28569  Biso   1.000  C
  C644     1.0000 0.03194  0.47152  0.71431  Biso   1.000  C
  C645     1.0000 0.28569  0.53194  0.02848  Biso   1.000  C
  C646     1.0000 0.52848  0.21431  0.46806  Biso   1.000  C
  C647     1.0000 0.47152  0.71431  0.03194  Biso   1.000  C
  C648     1.0000 0.02848  0.28569  0.53194  Biso   1.000  C
  C649     1.0000 0.99445  0.14671  0.15848  Biso   1.000  C
  C650     1.0000 0.15848  0.99445  0.14671  Biso   1.000  C
  C651     1.0000 0.14671  0.15848  0.99445  Biso   1.000  C
  C652     1.0000 0.35329  0.84152  0.49445  Biso   1.000  C
  C653     1.0000 0.65848  0.50555  0.85329  Biso   1.000  C
  C654     1.0000 0.85329  0.65848  0.50555  Biso   1.000  C
  C655     1.0000 0.34152  0.00555  0.64671  Biso   1.000  C
  C656     1.0000 0.84152  0.49445  0.35329  Biso   1.000  C
  C657     1.0000 0.64671  0.34152  0.00555  Biso   1.000  C
  C658     1.0000 0.50555  0.85329  0.65848  Biso   1.000  C
  C659     1.0000 0.49445  0.35329  0.84152  Biso   1.000  C
  C660     1.0000 0.00555  0.64671  0.34152  Biso   1.000  C
  C661     1.0000 0.00555  0.85329  0.84152  Biso   1.000  C
  C662     1.0000 0.84152  0.00555  0.85329  Biso   1.000  C
  C663     1.0000 0.85329  0.84152  0.00555  Biso   1.000  C
  C664     1.0000 0.64671  0.15848  0.50555  Biso   1.000  C
  C665     1.0000 0.34152  0.49445  0.14671  Biso   1.000  C
  C666     1.0000 0.14671  0.34152  0.49445  Biso   1.000  C
  C667     1.0000 0.65848  0.99445  0.35329  Biso   1.000  C
  C668     1.0000 0.15848  0.50555  0.64671  Biso   1.000  C
  C669     1.0000 0.35329  0.65848  0.99445  Biso   1.000  C
  C670     1.0000 0.49445  0.14671  0.34152  Biso   1.000  C
  C671     1.0000 0.50555  0.64671  0.15848  Biso   1.000  C
  C672     1.0000 0.99445  0.35329  0.65848  Biso   1.000  C
  H313     1.0000 0.99340  0.13210  0.13940  Biso   1.000  H
  H314     1.0000 0.13940  0.99340  0.13210  Biso   1.000  H
  H315     1.0000 0.13210  0.13940  0.99340  Biso   1.000  H
  H316     1.0000 0.36790  0.86060  0.49340  Biso   1.000  H
  H317     1.0000 0.63940  0.50660  0.86790  Biso   1.000  H
  H318     1.0000 0.86790  0.63940  0.50660  Biso   1.000  H
  H319     1.0000 0.36060  0.00660  0.63210  Biso   1.000  H
  H320     1.0000 0.86060  0.49340  0.36790  Biso   1.000  H
  H321     1.0000 0.63210  0.36060  0.00660  Biso   1.000  H
  H322     1.0000 0.50660  0.86790  0.63940  Biso   1.000  H
  H323     1.0000 0.49340  0.36790  0.86060  Biso   1.000  H
  H324     1.0000 0.00660  0.63210  0.36060  Biso   1.000  H
  H325     1.0000 0.00660  0.86790  0.86060  Biso   1.000  H
  H326     1.0000 0.86060  0.00660  0.86790  Biso   1.000  H
  H327     1.0000 0.86790  0.86060  0.00660  Biso   1.000  H
  H328     1.0000 0.63210  0.13940  0.50660  Biso   1.000  H
  H329     1.0000 0.36060  0.49340  0.13210  Biso   1.000  H
  H330     1.0000 0.13210  0.36060  0.49340  Biso   1.000  H
  H331     1.0000 0.63940  0.99340  0.36790  Biso   1.000  H
  H332     1.0000 0.13940  0.50660  0.63210  Biso   1.000  H
  H333     1.0000 0.36790  0.63940  0.99340  Biso   1.000  H
  H334     1.0000 0.49340  0.13210  0.36060  Biso   1.000  H
  H335     1.0000 0.50660  0.63210  0.13940  Biso   1.000  H
  H336     1.0000 0.99340  0.36790  0.63940  Biso   1.000  H
  C673     1.0000 0.00359  0.18012  0.15188  Biso   1.000  C
  C674     1.0000 0.15188  0.00359  0.18012  Biso   1.000  C
  C675     1.0000 0.18012  0.15188  0.00359  Biso   1.000  C
  C676     1.0000 0.31988  0.84812  0.50359  Biso   1.000  C
  C677     1.0000 0.65188  0.49641  0.81988  Biso   1.000  C
  C678     1.0000 0.81988  0.65188  0.49641  Biso   1.000  C
  C679     1.0000 0.34812  0.99641  0.68012  Biso   1.000  C
  C680     1.0000 0.84812  0.50359  0.31988  Biso   1.000  C
  C681     1.0000 0.68012  0.34812  0.99641  Biso   1.000  C
  C682     1.0000 0.49641  0.81988  0.65188  Biso   1.000  C
  C683     1.0000 0.50359  0.31988  0.84812  Biso   1.000  C
  C684     1.0000 0.99641  0.68012  0.34812  Biso   1.000  C
  C685     1.0000 0.99641  0.81988  0.84812  Biso   1.000  C
  C686     1.0000 0.84812  0.99641  0.81988  Biso   1.000  C
  C687     1.0000 0.81988  0.84812  0.99641  Biso   1.000  C
  C688     1.0000 0.68012  0.15188  0.49641  Biso   1.000  C
  C689     1.0000 0.34812  0.50359  0.18012  Biso   1.000  C
  C690     1.0000 0.18012  0.34812  0.50359  Biso   1.000  C
  C691     1.0000 0.65188  0.00359  0.31988  Biso   1.000  C
  C692     1.0000 0.15188  0.49641  0.68012  Biso   1.000  C
  C693     1.0000 0.31988  0.65188  0.00359  Biso   1.000  C
  C694     1.0000 0.50359  0.18012  0.34812  Biso   1.000  C
  C695     1.0000 0.49641  0.68012  0.15188  Biso   1.000  C
  C696     1.0000 0.00359  0.31988  0.65188  Biso   1.000  C
  C697     1.0000 0.00483  0.20250  0.18250  Biso   1.000  C
  C698     1.0000 0.18250  0.00483  0.20250  Biso   1.000  C
  C699     1.0000 0.20250  0.18250  0.00483  Biso   1.000  C
  C700     1.0000 0.29750  0.81750  0.50483  Biso   1.000  C
  C701     1.0000 0.68250  0.49517  0.79750  Biso   1.000  C
  C702     1.0000 0.79750  0.68250  0.49517  Biso   1.000  C
  C703     1.0000 0.31750  0.99517  0.70250  Biso   1.000  C
  C704     1.0000 0.81750  0.50483  0.29750  Biso   1.000  C
  C705     1.0000 0.70250  0.31750  0.99517  Biso   1.000  C
  C706     1.0000 0.49517  0.79750  0.68250  Biso   1.000  C
  C707     1.0000 0.50483  0.29750  0.81750  Biso   1.000  C
  C708     1.0000 0.99517  0.70250  0.31750  Biso   1.000  C
  C709     1.0000 0.99517  0.79750  0.81750  Biso   1.000  C
  C710     1.0000 0.81750  0.99517  0.79750  Biso   1.000  C
  C711     1.0000 0.79750  0.81750  0.99517  Biso   1.000  C
  C712     1.0000 0.70250  0.18250  0.49517  Biso   1.000  C
  C713     1.0000 0.31750  0.50483  0.20250  Biso   1.000  C
  C714     1.0000 0.20250  0.31750  0.50483  Biso   1.000  C
  C715     1.0000 0.68250  0.00483  0.29750  Biso   1.000  C
  C716     1.0000 0.18250  0.49517  0.70250  Biso   1.000  C
  C717     1.0000 0.29750  0.68250  0.00483  Biso   1.000  C
  C718     1.0000 0.50483  0.20250  0.31750  Biso   1.000  C
  C719     1.0000 0.49517  0.70250  0.18250  Biso   1.000  C
  C720     1.0000 0.00483  0.29750  0.68250  Biso   1.000  C
  C721     1.0000 0.99702  0.18691  0.21381  Biso   1.000  C
  C722     1.0000 0.21381  0.99702  0.18691  Biso   1.000  C
  C723     1.0000 0.18691  0.21381  0.99702  Biso   1.000  C
  C724     1.0000 0.31309  0.78619  0.49702  Biso   1.000  C
  C725     1.0000 0.71381  0.50298  0.81309  Biso   1.000  C
  C726     1.0000 0.81309  0.71381  0.50298  Biso   1.000  C
  C727     1.0000 0.28619  0.00298  0.68691  Biso   1.000  C
  C728     1.0000 0.78619  0.49702  0.31309  Biso   1.000  C
  C729     1.0000 0.68691  0.28619  0.00298  Biso   1.000  C
  C730     1.0000 0.50298  0.81309  0.71381  Biso   1.000  C
  C731     1.0000 0.49702  0.31309  0.78619  Biso   1.000  C
  C732     1.0000 0.00298  0.68691  0.28619  Biso   1.000  C
  C733     1.0000 0.00298  0.81309  0.78619  Biso   1.000  C
  C734     1.0000 0.78619  0.00298  0.81309  Biso   1.000  C
  C735     1.0000 0.81309  0.78619  0.00298  Biso   1.000  C
  C736     1.0000 0.68691  0.21381  0.50298  Biso   1.000  C
  C737     1.0000 0.28619  0.49702  0.18691  Biso   1.000  C
  C738     1.0000 0.18691  0.28619  0.49702  Biso   1.000  C
  C739     1.0000 0.71381  0.99702  0.31309  Biso   1.000  C
  C740     1.0000 0.21381  0.50298  0.68691  Biso   1.000  C
  C741     1.0000 0.31309  0.71381  0.99702  Biso   1.000  C
  C742     1.0000 0.49702  0.18691  0.28619  Biso   1.000  C
  C743     1.0000 0.50298  0.68691  0.21381  Biso   1.000  C
  C744     1.0000 0.99702  0.31309  0.71381  Biso   1.000  C
  H337     1.0000 0.99790  0.20040  0.23370  Biso   1.000  H
  H338     1.0000 0.23370  0.99790  0.20040  Biso   1.000  H
  H339     1.0000 0.20040  0.23370  0.99790  Biso   1.000  H
  H340     1.0000 0.29960  0.76630  0.49790  Biso   1.000  H
  H341     1.0000 0.73370  0.50210  0.79960  Biso   1.000  H
  H342     1.0000 0.79960  0.73370  0.50210  Biso   1.000  H
  H343     1.0000 0.26630  0.00210  0.70040  Biso   1.000  H
  H344     1.0000 0.76630  0.49790  0.29960  Biso   1.000  H
  H345     1.0000 0.70040  0.26630  0.00210  Biso   1.000  H
  H346     1.0000 0.50210  0.79960  0.73370  Biso   1.000  H
  H347     1.0000 0.49790  0.29960  0.76630  Biso   1.000  H
  H348     1.0000 0.00210  0.70040  0.26630  Biso   1.000  H
  H349     1.0000 0.00210  0.79960  0.76630  Biso   1.000  H
  H350     1.0000 0.76630  0.00210  0.79960  Biso   1.000  H
  H351     1.0000 0.79960  0.76630  0.00210  Biso   1.000  H
  H352     1.0000 0.70040  0.23370  0.50210  Biso   1.000  H
  H353     1.0000 0.26630  0.49790  0.20040  Biso   1.000  H
  H354     1.0000 0.20040  0.26630  0.49790  Biso   1.000  H
  H355     1.0000 0.73370  0.99790  0.29960  Biso   1.000  H
  H356     1.0000 0.23370  0.50210  0.70040  Biso   1.000  H
  H357     1.0000 0.29960  0.73370  0.99790  Biso   1.000  H
  H358     1.0000 0.49790  0.20040  0.26630  Biso   1.000  H
  H359     1.0000 0.50210  0.70040  0.23370  Biso   1.000  H
  H360     1.0000 0.99790  0.29960  0.73370  Biso   1.000  H
  C745     1.0000 0.98904  0.15622  0.21676  Biso   1.000  C
  C746     1.0000 0.21676  0.98904  0.15622  Biso   1.000  C
  C747     1.0000 0.15622  0.21676  0.98904  Biso   1.000  C
  C748     1.0000 0.34378  0.78324  0.48904  Biso   1.000  C
  C749     1.0000 0.71676  0.51096  0.84378  Biso   1.000  C
  C750     1.0000 0.84378  0.71676  0.51096  Biso   1.000  C
  C751     1.0000 0.28324  0.01096  0.65622  Biso   1.000  C
  C752     1.0000 0.78324  0.48904  0.34378  Biso   1.000  C
  C753     1.0000 0.65622  0.28324  0.01096  Biso   1.000  C
  C754     1.0000 0.51096  0.84378  0.71676  Biso   1.000  C
  C755     1.0000 0.48904  0.34378  0.78324  Biso   1.000  C
  C756     1.0000 0.01096  0.65622  0.28324  Biso   1.000  C
  C757     1.0000 0.01096  0.84378  0.78324  Biso   1.000  C
  C758     1.0000 0.78324  0.01096  0.84378  Biso   1.000  C
  C759     1.0000 0.84378  0.78324  0.01096  Biso   1.000  C
  C760     1.0000 0.65622  0.21676  0.51096  Biso   1.000  C
  C761     1.0000 0.28324  0.48904  0.15622  Biso   1.000  C
  C762     1.0000 0.15622  0.28324  0.48904  Biso   1.000  C
  C763     1.0000 0.71676  0.98904  0.34378  Biso   1.000  C
  C764     1.0000 0.21676  0.51096  0.65622  Biso   1.000  C
  C765     1.0000 0.34378  0.71676  0.98904  Biso   1.000  C
  C766     1.0000 0.48904  0.15622  0.28324  Biso   1.000  C
  C767     1.0000 0.51096  0.65622  0.21676  Biso   1.000  C
  C768     1.0000 0.98904  0.34378  0.71676  Biso   1.000  C
  H361     1.0000 0.98410  0.14800  0.23880  Biso   1.000  H
  H362     1.0000 0.23880  0.98410  0.14800  Biso   1.000  H
  H363     1.0000 0.14800  0.23880  0.98410  Biso   1.000  H
  H364     1.0000 0.35200  0.76120  0.48410  Biso   1.000  H
  H365     1.0000 0.73880  0.51590  0.85200  Biso   1.000  H
  H366     1.0000 0.85200  0.73880  0.51590  Biso   1.000  H
  H367     1.0000 0.26120  0.01590  0.64800  Biso   1.000  H
  H368     1.0000 0.76120  0.48410  0.35200  Biso   1.000  H
  H369     1.0000 0.64800  0.26120  0.01590  Biso   1.000  H
  H370     1.0000 0.51590  0.85200  0.73880  Biso   1.000  H
  H371     1.0000 0.48410  0.35200  0.76120  Biso   1.000  H
  H372     1.0000 0.01590  0.64800  0.26120  Biso   1.000  H
  H373     1.0000 0.01590  0.85200  0.76120  Biso   1.000  H
  H374     1.0000 0.76120  0.01590  0.85200  Biso   1.000  H
  H375     1.0000 0.85200  0.76120  0.01590  Biso   1.000  H
  H376     1.0000 0.64800  0.23880  0.51590  Biso   1.000  H
  H377     1.0000 0.26120  0.48410  0.14800  Biso   1.000  H
  H378     1.0000 0.14800  0.26120  0.48410  Biso   1.000  H
  H379     1.0000 0.73880  0.98410  0.35200  Biso   1.000  H
  H380     1.0000 0.23880  0.51590  0.64800  Biso   1.000  H
  H381     1.0000 0.35200  0.73880  0.98410  Biso   1.000  H
  H382     1.0000 0.48410  0.14800  0.26120  Biso   1.000  H
  H383     1.0000 0.51590  0.64800  0.23880  Biso   1.000  H
  H384     1.0000 0.98410  0.35200  0.73880  Biso   1.000  H
  C769     1.0000 0.98688  0.13237  0.18860  Biso   1.000  C
  C770     1.0000 0.18860  0.98688  0.13237  Biso   1.000  C
  C771     1.0000 0.13237  0.18860  0.98688  Biso   1.000  C
  C772     1.0000 0.36763  0.81140  0.48688  Biso   1.000  C
  C773     1.0000 0.68860  0.51312  0.86763  Biso   1.000  C
  C774     1.0000 0.86763  0.68860  0.51312  Biso   1.000  C
  C775     1.0000 0.31140  0.01312  0.63237  Biso   1.000  C
  C776     1.0000 0.81140  0.48688  0.36763  Biso   1.000  C
  C777     1.0000 0.63237  0.31140  0.01312  Biso   1.000  C
  C778     1.0000 0.51312  0.86763  0.68860  Biso   1.000  C
  C779     1.0000 0.48688  0.36763  0.81140  Biso   1.000  C
  C780     1.0000 0.01312  0.63237  0.31140  Biso   1.000  C
  C781     1.0000 0.01312  0.86763  0.81140  Biso   1.000  C
  C782     1.0000 0.81140  0.01312  0.86763  Biso   1.000  C
  C783     1.0000 0.86763  0.81140  0.01312  Biso   1.000  C
  C784     1.0000 0.63237  0.18860  0.51312  Biso   1.000  C
  C785     1.0000 0.31140  0.48688  0.13237  Biso   1.000  C
  C786     1.0000 0.13237  0.31140  0.48688  Biso   1.000  C
  C787     1.0000 0.68860  0.98688  0.36763  Biso   1.000  C
  C788     1.0000 0.18860  0.51312  0.63237  Biso   1.000  C
  C789     1.0000 0.36763  0.68860  0.98688  Biso   1.000  C
  C790     1.0000 0.48688  0.13237  0.31140  Biso   1.000  C
  C791     1.0000 0.51312  0.63237  0.18860  Biso   1.000  C
  C792     1.0000 0.98688  0.36763  0.68860  Biso   1.000  C
  C793     1.0000 0.97838  0.09916  0.19289  Biso   1.000  C
  C794     1.0000 0.19289  0.97838  0.09916  Biso   1.000  C
  C795     1.0000 0.09916  0.19289  0.97838  Biso   1.000  C
  C796     1.0000 0.40084  0.80711  0.47838  Biso   1.000  C
  C797     1.0000 0.69289  0.52162  0.90084  Biso   1.000  C
  C798     1.0000 0.90084  0.69289  0.52162  Biso   1.000  C
  C799     1.0000 0.30711  0.02162  0.59916  Biso   1.000  C
  C800     1.0000 0.80711  0.47838  0.40084  Biso   1.000  C
  C801     1.0000 0.59916  0.30711  0.02162  Biso   1.000  C
  C802     1.0000 0.52162  0.90084  0.69289  Biso   1.000  C
  C803     1.0000 0.47838  0.40084  0.80711  Biso   1.000  C
  C804     1.0000 0.02162  0.59916  0.30711  Biso   1.000  C
  C805     1.0000 0.02162  0.90084  0.80711  Biso   1.000  C
  C806     1.0000 0.80711  0.02162  0.90084  Biso   1.000  C
  C807     1.0000 0.90084  0.80711  0.02162  Biso   1.000  C
  C808     1.0000 0.59916  0.19289  0.52162  Biso   1.000  C
  C809     1.0000 0.30711  0.47838  0.09916  Biso   1.000  C
  C810     1.0000 0.09916  0.30711  0.47838  Biso   1.000  C
  C811     1.0000 0.69289  0.97838  0.40084  Biso   1.000  C
  C812     1.0000 0.19289  0.52162  0.59916  Biso   1.000  C
  C813     1.0000 0.40084  0.69289  0.97838  Biso   1.000  C
  C814     1.0000 0.47838  0.09916  0.30711  Biso   1.000  C
  C815     1.0000 0.52162  0.59916  0.19289  Biso   1.000  C
  C816     1.0000 0.97838  0.40084  0.69289  Biso   1.000  C
