data_image0
_cell_length_a       30.1088
_cell_length_b       30.5872
_cell_length_c       23.6853
_cell_angle_alpha    90
_cell_angle_beta     90
_cell_angle_gamma    90

_symmetry_space_group_name_H-M    "P 1"
_symmetry_int_tables_number       1

loop_
  _symmetry_equiv_pos_as_xyz
  'x, y, z'

loop_
  _atom_site_label
  _atom_site_occupancy
  _atom_site_fract_x
  _atom_site_fract_y
  _atom_site_fract_z
  _atom_site_thermal_displace_type
  _atom_site_B_iso_or_equiv
  _atom_site_type_symbol
  Y1       1.0000 0.24287  0.37983  0.05271  Biso   1.000  Y
  Y2       1.0000 0.75713  0.12017  0.55271  Biso   1.000  Y
  Y3       1.0000 0.75713  0.87983  0.44729  Biso   1.000  Y
  Y4       1.0000 0.24287  0.62017  0.94729  Biso   1.000  Y
  Y5       1.0000 0.74287  0.87983  0.05271  Biso   1.000  Y
  Y6       1.0000 0.25713  0.62017  0.55271  Biso   1.000  Y
  Y7       1.0000 0.25713  0.37983  0.44729  Biso   1.000  Y
  Y8       1.0000 0.74287  0.12017  0.94729  Biso   1.000  Y
  Y9       1.0000 0.75713  0.62017  0.94729  Biso   1.000  Y
  Y10      1.0000 0.24287  0.87983  0.44729  Biso   1.000  Y
  Y11      1.0000 0.24287  0.12017  0.55271  Biso   1.000  Y
  Y12      1.0000 0.75713  0.37983  0.05271  Biso   1.000  Y
  Y13      1.0000 0.25713  0.12017  0.94729  Biso   1.000  Y
  Y14      1.0000 0.74287  0.37983  0.44729  Biso   1.000  Y
  Y15      1.0000 0.74287  0.62017  0.55271  Biso   1.000  Y
  Y16      1.0000 0.25713  0.87983  0.05271  Biso   1.000  Y
  Cu1      1.0000 0.00000  0.37659  0.73888  Biso   1.000  Cu
  Cu2      1.0000 0.00000  0.12341  0.23888  Biso   1.000  Cu
  Cu3      1.0000 0.00000  0.87659  0.76112  Biso   1.000  Cu
  Cu4      1.0000 0.00000  0.62341  0.26112  Biso   1.000  Cu
  Cu5      1.0000 0.50000  0.87659  0.73888  Biso   1.000  Cu
  Cu6      1.0000 0.50000  0.62341  0.23888  Biso   1.000  Cu
  Cu7      1.0000 0.50000  0.37659  0.76112  Biso   1.000  Cu
  Cu8      1.0000 0.50000  0.12341  0.26112  Biso   1.000  Cu
  O1       1.0000 0.13750  0.58480  0.84530  Biso   1.000  O
  O2       1.0000 0.86250  0.91520  0.34530  Biso   1.000  O
  O3       1.0000 0.86250  0.08480  0.65470  Biso   1.000  O
  O4       1.0000 0.13750  0.41520  0.15470  Biso   1.000  O
  O5       1.0000 0.63750  0.08480  0.84530  Biso   1.000  O
  O6       1.0000 0.36250  0.41520  0.34530  Biso   1.000  O
  O7       1.0000 0.36250  0.58480  0.65470  Biso   1.000  O
  O8       1.0000 0.63750  0.91520  0.15470  Biso   1.000  O
  O9       1.0000 0.86250  0.41520  0.15470  Biso   1.000  O
  O10      1.0000 0.13750  0.08480  0.65470  Biso   1.000  O
  O11      1.0000 0.13750  0.91520  0.34530  Biso   1.000  O
  O12      1.0000 0.86250  0.58480  0.84530  Biso   1.000  O
  O13      1.0000 0.36250  0.91520  0.15470  Biso   1.000  O
  O14      1.0000 0.63750  0.58480  0.65470  Biso   1.000  O
  O15      1.0000 0.63750  0.41520  0.34530  Biso   1.000  O
  O16      1.0000 0.36250  0.08480  0.84530  Biso   1.000  O
  O17      1.0000 0.19861  0.57780  0.89440  Biso   1.000  O
  O18      1.0000 0.80139  0.92220  0.39440  Biso   1.000  O
  O19      1.0000 0.80139  0.07780  0.60560  Biso   1.000  O
  O20      1.0000 0.19861  0.42220  0.10560  Biso   1.000  O
  O21      1.0000 0.69861  0.07780  0.89440  Biso   1.000  O
  O22      1.0000 0.30139  0.42220  0.39440  Biso   1.000  O
  O23      1.0000 0.30139  0.57780  0.60560  Biso   1.000  O
  O24      1.0000 0.69861  0.92220  0.10560  Biso   1.000  O
  O25      1.0000 0.80139  0.42220  0.10560  Biso   1.000  O
  O26      1.0000 0.19861  0.07780  0.60560  Biso   1.000  O
  O27      1.0000 0.19861  0.92220  0.39440  Biso   1.000  O
  O28      1.0000 0.80139  0.57780  0.89440  Biso   1.000  O
  O29      1.0000 0.30139  0.92220  0.10560  Biso   1.000  O
  O30      1.0000 0.69861  0.57780  0.60560  Biso   1.000  O
  O31      1.0000 0.69861  0.42220  0.39440  Biso   1.000  O
  O32      1.0000 0.30139  0.07780  0.89440  Biso   1.000  O
  O33      1.0000 0.23155  0.44061  0.98810  Biso   1.000  O
  O34      1.0000 0.76845  0.05939  0.48810  Biso   1.000  O
  O35      1.0000 0.76845  0.94061  0.51190  Biso   1.000  O
  O36      1.0000 0.23155  0.55939  0.01190  Biso   1.000  O
  O37      1.0000 0.73155  0.94061  0.98810  Biso   1.000  O
  O38      1.0000 0.26845  0.55939  0.48810  Biso   1.000  O
  O39      1.0000 0.26845  0.44061  0.51190  Biso   1.000  O
  O40      1.0000 0.73155  0.05939  0.01190  Biso   1.000  O
  O41      1.0000 0.76845  0.55939  0.01190  Biso   1.000  O
  O42      1.0000 0.23155  0.94061  0.51190  Biso   1.000  O
  O43      1.0000 0.23155  0.05939  0.48810  Biso   1.000  O
  O44      1.0000 0.76845  0.44061  0.98810  Biso   1.000  O
  O45      1.0000 0.26845  0.05939  0.01190  Biso   1.000  O
  O46      1.0000 0.73155  0.44061  0.51190  Biso   1.000  O
  O47      1.0000 0.73155  0.55939  0.48810  Biso   1.000  O
  O48      1.0000 0.26845  0.94061  0.98810  Biso   1.000  O
  O49      1.0000 0.18983  0.38222  0.97850  Biso   1.000  O
  O50      1.0000 0.81017  0.11778  0.47850  Biso   1.000  O
  O51      1.0000 0.81017  0.88222  0.52150  Biso   1.000  O
  O52      1.0000 0.18983  0.61778  0.02150  Biso   1.000  O
  O53      1.0000 0.68983  0.88222  0.97850  Biso   1.000  O
  O54      1.0000 0.31017  0.61778  0.47850  Biso   1.000  O
  O55      1.0000 0.31017  0.38222  0.52150  Biso   1.000  O
  O56      1.0000 0.68983  0.11778  0.02150  Biso   1.000  O
  O57      1.0000 0.81017  0.61778  0.02150  Biso   1.000  O
  O58      1.0000 0.18983  0.88222  0.52150  Biso   1.000  O
  O59      1.0000 0.18983  0.11778  0.47850  Biso   1.000  O
  O60      1.0000 0.81017  0.38222  0.97850  Biso   1.000  O
  O61      1.0000 0.31017  0.11778  0.02150  Biso   1.000  O
  O62      1.0000 0.68983  0.38222  0.52150  Biso   1.000  O
  O63      1.0000 0.68983  0.61778  0.47850  Biso   1.000  O
  O64      1.0000 0.31017  0.88222  0.97850  Biso   1.000  O
  O65      1.0000 0.19536  0.37240  0.50980  Biso   1.000  O
  O66      1.0000 0.80464  0.12760  0.00980  Biso   1.000  O
  O67      1.0000 0.80464  0.87240  0.99020  Biso   1.000  O
  O68      1.0000 0.19536  0.62760  0.49020  Biso   1.000  O
  O69      1.0000 0.69536  0.87240  0.50980  Biso   1.000  O
  O70      1.0000 0.30464  0.62760  0.00980  Biso   1.000  O
  O71      1.0000 0.30464  0.37240  0.99020  Biso   1.000  O
  O72      1.0000 0.69536  0.12760  0.49020  Biso   1.000  O
  O73      1.0000 0.80464  0.62760  0.49020  Biso   1.000  O
  O74      1.0000 0.19536  0.87240  0.99020  Biso   1.000  O
  O75      1.0000 0.19536  0.12760  0.00980  Biso   1.000  O
  O76      1.0000 0.80464  0.37240  0.50980  Biso   1.000  O
  O77      1.0000 0.30464  0.12760  0.49020  Biso   1.000  O
  O78      1.0000 0.69536  0.37240  0.99020  Biso   1.000  O
  O79      1.0000 0.69536  0.62760  0.00980  Biso   1.000  O
  O80      1.0000 0.30464  0.87240  0.50980  Biso   1.000  O
  O81      1.0000 0.23451  0.31324  0.49290  Biso   1.000  O
  O82      1.0000 0.76549  0.18676  0.99290  Biso   1.000  O
  O83      1.0000 0.76549  0.81324  0.00710  Biso   1.000  O
  O84      1.0000 0.23451  0.68676  0.50710  Biso   1.000  O
  O85      1.0000 0.73451  0.81324  0.49290  Biso   1.000  O
  O86      1.0000 0.26549  0.68676  0.99290  Biso   1.000  O
  O87      1.0000 0.26549  0.31324  0.00710  Biso   1.000  O
  O88      1.0000 0.73451  0.18676  0.50710  Biso   1.000  O
  O89      1.0000 0.76549  0.68676  0.50710  Biso   1.000  O
  O90      1.0000 0.23451  0.81324  0.00710  Biso   1.000  O
  O91      1.0000 0.23451  0.18676  0.99290  Biso   1.000  O
  O92      1.0000 0.76549  0.31324  0.49290  Biso   1.000  O
  O93      1.0000 0.26549  0.18676  0.50710  Biso   1.000  O
  O94      1.0000 0.73451  0.31324  0.00710  Biso   1.000  O
  O95      1.0000 0.73451  0.68676  0.99290  Biso   1.000  O
  O96      1.0000 0.26549  0.81324  0.49290  Biso   1.000  O
  O97      1.0000 0.19363  0.17278  0.58140  Biso   1.000  O
  O98      1.0000 0.80637  0.32722  0.08140  Biso   1.000  O
  O99      1.0000 0.80637  0.67278  0.91860  Biso   1.000  O
  O100     1.0000 0.19363  0.82722  0.41860  Biso   1.000  O
  O101     1.0000 0.69363  0.67278  0.58140  Biso   1.000  O
  O102     1.0000 0.30637  0.82722  0.08140  Biso   1.000  O
  O103     1.0000 0.30637  0.17278  0.91860  Biso   1.000  O
  O104     1.0000 0.69363  0.32722  0.41860  Biso   1.000  O
  O105     1.0000 0.80637  0.82722  0.41860  Biso   1.000  O
  O106     1.0000 0.19363  0.67278  0.91860  Biso   1.000  O
  O107     1.0000 0.19363  0.32722  0.08140  Biso   1.000  O
  O108     1.0000 0.80637  0.17278  0.58140  Biso   1.000  O
  O109     1.0000 0.30637  0.32722  0.41860  Biso   1.000  O
  O110     1.0000 0.69363  0.17278  0.91860  Biso   1.000  O
  O111     1.0000 0.69363  0.82722  0.08140  Biso   1.000  O
  O112     1.0000 0.30637  0.67278  0.58140  Biso   1.000  O
  O113     1.0000 0.14040  0.16890  0.64320  Biso   1.000  O
  O114     1.0000 0.85960  0.33110  0.14320  Biso   1.000  O
  O115     1.0000 0.85960  0.66890  0.85680  Biso   1.000  O
  O116     1.0000 0.14040  0.83110  0.35680  Biso   1.000  O
  O117     1.0000 0.64040  0.66890  0.64320  Biso   1.000  O
  O118     1.0000 0.35960  0.83110  0.14320  Biso   1.000  O
  O119     1.0000 0.35960  0.16890  0.85680  Biso   1.000  O
  O120     1.0000 0.64040  0.33110  0.35680  Biso   1.000  O
  O121     1.0000 0.85960  0.83110  0.35680  Biso   1.000  O
  O122     1.0000 0.14040  0.66890  0.85680  Biso   1.000  O
  O123     1.0000 0.14040  0.33110  0.14320  Biso   1.000  O
  O124     1.0000 0.85960  0.16890  0.64320  Biso   1.000  O
  O125     1.0000 0.35960  0.33110  0.35680  Biso   1.000  O
  O126     1.0000 0.64040  0.16890  0.85680  Biso   1.000  O
  O127     1.0000 0.64040  0.83110  0.14320  Biso   1.000  O
  O128     1.0000 0.35960  0.66890  0.64320  Biso   1.000  O
  O129     1.0000 0.28100  0.35240  0.13190  Biso   1.000  O
  O130     1.0000 0.71900  0.14760  0.63190  Biso   1.000  O
  O131     1.0000 0.71900  0.85240  0.36810  Biso   1.000  O
  O132     1.0000 0.28100  0.64760  0.86810  Biso   1.000  O
  O133     1.0000 0.78100  0.85240  0.13190  Biso   1.000  O
  O134     1.0000 0.21900  0.64760  0.63190  Biso   1.000  O
  O135     1.0000 0.21900  0.35240  0.36810  Biso   1.000  O
  O136     1.0000 0.78100  0.14760  0.86810  Biso   1.000  O
  O137     1.0000 0.71900  0.64760  0.86810  Biso   1.000  O
  O138     1.0000 0.28100  0.85240  0.36810  Biso   1.000  O
  O139     1.0000 0.28100  0.14760  0.63190  Biso   1.000  O
  O140     1.0000 0.71900  0.35240  0.13190  Biso   1.000  O
  O141     1.0000 0.21900  0.14760  0.86810  Biso   1.000  O
  O142     1.0000 0.78100  0.35240  0.36810  Biso   1.000  O
  O143     1.0000 0.78100  0.64760  0.63190  Biso   1.000  O
  O144     1.0000 0.21900  0.85240  0.13190  Biso   1.000  O
  O145     1.0000 0.29325  0.43800  0.08340  Biso   1.000  O
  O146     1.0000 0.70675  0.06200  0.58340  Biso   1.000  O
  O147     1.0000 0.70675  0.93800  0.41660  Biso   1.000  O
  O148     1.0000 0.29325  0.56200  0.91660  Biso   1.000  O
  O149     1.0000 0.79325  0.93800  0.08340  Biso   1.000  O
  O150     1.0000 0.20675  0.56200  0.58340  Biso   1.000  O
  O151     1.0000 0.20675  0.43800  0.41660  Biso   1.000  O
  O152     1.0000 0.79325  0.06200  0.91660  Biso   1.000  O
  O153     1.0000 0.70675  0.56200  0.91660  Biso   1.000  O
  O154     1.0000 0.29325  0.93800  0.41660  Biso   1.000  O
  O155     1.0000 0.29325  0.06200  0.58340  Biso   1.000  O
  O156     1.0000 0.70675  0.43800  0.08340  Biso   1.000  O
  O157     1.0000 0.20675  0.06200  0.91660  Biso   1.000  O
  O158     1.0000 0.79325  0.43800  0.41660  Biso   1.000  O
  O159     1.0000 0.79325  0.56200  0.58340  Biso   1.000  O
  O160     1.0000 0.20675  0.93800  0.08340  Biso   1.000  O
  N1       1.0000 0.00000  0.41830  0.80370  Biso   1.000  N
  N2       1.0000 0.00000  0.08170  0.30370  Biso   1.000  N
  N3       1.0000 0.00000  0.91830  0.69630  Biso   1.000  N
  N4       1.0000 0.00000  0.58170  0.19630  Biso   1.000  N
  N5       1.0000 0.50000  0.91830  0.80370  Biso   1.000  N
  N6       1.0000 0.50000  0.58170  0.30370  Biso   1.000  N
  N7       1.0000 0.50000  0.41830  0.69630  Biso   1.000  N
  N8       1.0000 0.50000  0.08170  0.19630  Biso   1.000  N
  N9       1.0000 0.06615  0.37700  0.73790  Biso   1.000  N
  N10      1.0000 0.93385  0.12300  0.23790  Biso   1.000  N
  N11      1.0000 0.93385  0.87700  0.76210  Biso   1.000  N
  N12      1.0000 0.06615  0.62300  0.26210  Biso   1.000  N
  N13      1.0000 0.56615  0.87700  0.73790  Biso   1.000  N
  N14      1.0000 0.43385  0.62300  0.23790  Biso   1.000  N
  N15      1.0000 0.43385  0.37700  0.76210  Biso   1.000  N
  N16      1.0000 0.56615  0.12300  0.26210  Biso   1.000  N
  N17      1.0000 0.93385  0.62300  0.26210  Biso   1.000  N
  N18      1.0000 0.06615  0.87700  0.76210  Biso   1.000  N
  N19      1.0000 0.06615  0.12300  0.23790  Biso   1.000  N
  N20      1.0000 0.93385  0.37700  0.73790  Biso   1.000  N
  N21      1.0000 0.43385  0.12300  0.26210  Biso   1.000  N
  N22      1.0000 0.56615  0.37700  0.76210  Biso   1.000  N
  N23      1.0000 0.56615  0.62300  0.23790  Biso   1.000  N
  N24      1.0000 0.43385  0.87700  0.73790  Biso   1.000  N
  N25      1.0000 0.00000  0.33420  0.67460  Biso   1.000  N
  N26      1.0000 0.00000  0.16580  0.17460  Biso   1.000  N
  N27      1.0000 0.00000  0.83420  0.82540  Biso   1.000  N
  N28      1.0000 0.00000  0.66580  0.32540  Biso   1.000  N
  N29      1.0000 0.50000  0.83420  0.67460  Biso   1.000  N
  N30      1.0000 0.50000  0.66580  0.17460  Biso   1.000  N
  N31      1.0000 0.50000  0.33420  0.82540  Biso   1.000  N
  N32      1.0000 0.50000  0.16580  0.32540  Biso   1.000  N
  C1       1.0000 0.02240  0.46290  0.87450  Biso   1.000  C
  C2       1.0000 0.97760  0.03710  0.37450  Biso   1.000  C
  C3       1.0000 0.97760  0.96290  0.62550  Biso   1.000  C
  C4       1.0000 0.02240  0.53710  0.12550  Biso   1.000  C
  C5       1.0000 0.52240  0.96290  0.87450  Biso   1.000  C
  C6       1.0000 0.47760  0.53710  0.37450  Biso   1.000  C
  C7       1.0000 0.47760  0.46290  0.62550  Biso   1.000  C
  C8       1.0000 0.52240  0.03710  0.12550  Biso   1.000  C
  C9       1.0000 0.97760  0.53710  0.12550  Biso   1.000  C
  C10      1.0000 0.02240  0.96290  0.62550  Biso   1.000  C
  C11      1.0000 0.02240  0.03710  0.37450  Biso   1.000  C
  C12      1.0000 0.97760  0.46290  0.87450  Biso   1.000  C
  C13      1.0000 0.47760  0.03710  0.12550  Biso   1.000  C
  C14      1.0000 0.52240  0.46290  0.62550  Biso   1.000  C
  C15      1.0000 0.52240  0.53710  0.37450  Biso   1.000  C
  C16      1.0000 0.47760  0.96290  0.87450  Biso   1.000  C
  H1       1.0000 0.04060  0.47810  0.89940  Biso   1.000  H
  H2       1.0000 0.95940  0.02190  0.39940  Biso   1.000  H
  H3       1.0000 0.95940  0.97810  0.60060  Biso   1.000  H
  H4       1.0000 0.04060  0.52190  0.10060  Biso   1.000  H
  H5       1.0000 0.54060  0.97810  0.89940  Biso   1.000  H
  H6       1.0000 0.45940  0.52190  0.39940  Biso   1.000  H
  H7       1.0000 0.45940  0.47810  0.60060  Biso   1.000  H
  H8       1.0000 0.54060  0.02190  0.10060  Biso   1.000  H
  H9       1.0000 0.95940  0.52190  0.10060  Biso   1.000  H
  H10      1.0000 0.04060  0.97810  0.60060  Biso   1.000  H
  H11      1.0000 0.04060  0.02190  0.39940  Biso   1.000  H
  H12      1.0000 0.95940  0.47810  0.89940  Biso   1.000  H
  H13      1.0000 0.45940  0.02190  0.10060  Biso   1.000  H
  H14      1.0000 0.54060  0.47810  0.60060  Biso   1.000  H
  H15      1.0000 0.54060  0.52190  0.39940  Biso   1.000  H
  H16      1.0000 0.45940  0.97810  0.89940  Biso   1.000  H
  C17      1.0000 0.03646  0.43610  0.83050  Biso   1.000  C
  C18      1.0000 0.96354  0.06390  0.33050  Biso   1.000  C
  C19      1.0000 0.96354  0.93610  0.66950  Biso   1.000  C
  C20      1.0000 0.03646  0.56390  0.16950  Biso   1.000  C
  C21      1.0000 0.53646  0.93610  0.83050  Biso   1.000  C
  C22      1.0000 0.46354  0.56390  0.33050  Biso   1.000  C
  C23      1.0000 0.46354  0.43610  0.66950  Biso   1.000  C
  C24      1.0000 0.53646  0.06390  0.16950  Biso   1.000  C
  C25      1.0000 0.96354  0.56390  0.16950  Biso   1.000  C
  C26      1.0000 0.03646  0.93610  0.66950  Biso   1.000  C
  C27      1.0000 0.03646  0.06390  0.33050  Biso   1.000  C
  C28      1.0000 0.96354  0.43610  0.83050  Biso   1.000  C
  C29      1.0000 0.46354  0.06390  0.16950  Biso   1.000  C
  C30      1.0000 0.53646  0.43610  0.66950  Biso   1.000  C
  C31      1.0000 0.53646  0.56390  0.33050  Biso   1.000  C
  C32      1.0000 0.46354  0.93610  0.83050  Biso   1.000  C
  C33      1.0000 0.08028  0.42780  0.81660  Biso   1.000  C
  C34      1.0000 0.91972  0.07220  0.31660  Biso   1.000  C
  C35      1.0000 0.91972  0.92780  0.68340  Biso   1.000  C
  C36      1.0000 0.08028  0.57220  0.18340  Biso   1.000  C
  C37      1.0000 0.58028  0.92780  0.81660  Biso   1.000  C
  C38      1.0000 0.41972  0.57220  0.31660  Biso   1.000  C
  C39      1.0000 0.41972  0.42780  0.68340  Biso   1.000  C
  C40      1.0000 0.58028  0.07220  0.18340  Biso   1.000  C
  C41      1.0000 0.91972  0.57220  0.18340  Biso   1.000  C
  C42      1.0000 0.08028  0.92780  0.68340  Biso   1.000  C
  C43      1.0000 0.08028  0.07220  0.31660  Biso   1.000  C
  C44      1.0000 0.91972  0.42780  0.81660  Biso   1.000  C
  C45      1.0000 0.41972  0.07220  0.18340  Biso   1.000  C
  C46      1.0000 0.58028  0.42780  0.68340  Biso   1.000  C
  C47      1.0000 0.58028  0.57220  0.31660  Biso   1.000  C
  C48      1.0000 0.41972  0.92780  0.81660  Biso   1.000  C
  C49      1.0000 0.09383  0.40030  0.77540  Biso   1.000  C
  C50      1.0000 0.90617  0.09970  0.27540  Biso   1.000  C
  C51      1.0000 0.90617  0.90030  0.72460  Biso   1.000  C
  C52      1.0000 0.09383  0.59970  0.22460  Biso   1.000  C
  C53      1.0000 0.59383  0.90030  0.77540  Biso   1.000  C
  C54      1.0000 0.40617  0.59970  0.27540  Biso   1.000  C
  C55      1.0000 0.40617  0.40030  0.72460  Biso   1.000  C
  C56      1.0000 0.59383  0.09970  0.22460  Biso   1.000  C
  C57      1.0000 0.90617  0.59970  0.22460  Biso   1.000  C
  C58      1.0000 0.09383  0.90030  0.72460  Biso   1.000  C
  C59      1.0000 0.09383  0.09970  0.27540  Biso   1.000  C
  C60      1.0000 0.90617  0.40030  0.77540  Biso   1.000  C
  C61      1.0000 0.40617  0.09970  0.22460  Biso   1.000  C
  C62      1.0000 0.59383  0.40030  0.72460  Biso   1.000  C
  C63      1.0000 0.59383  0.59970  0.27540  Biso   1.000  C
  C64      1.0000 0.40617  0.90030  0.77540  Biso   1.000  C
  C65      1.0000 0.13980  0.39180  0.75890  Biso   1.000  C
  C66      1.0000 0.86020  0.10820  0.25890  Biso   1.000  C
  C67      1.0000 0.86020  0.89180  0.74110  Biso   1.000  C
  C68      1.0000 0.13980  0.60820  0.24110  Biso   1.000  C
  C69      1.0000 0.63980  0.89180  0.75890  Biso   1.000  C
  C70      1.0000 0.36020  0.60820  0.25890  Biso   1.000  C
  C71      1.0000 0.36020  0.39180  0.74110  Biso   1.000  C
  C72      1.0000 0.63980  0.10820  0.24110  Biso   1.000  C
  C73      1.0000 0.86020  0.60820  0.24110  Biso   1.000  C
  C74      1.0000 0.13980  0.89180  0.74110  Biso   1.000  C
  C75      1.0000 0.13980  0.10820  0.25890  Biso   1.000  C
  C76      1.0000 0.86020  0.39180  0.75890  Biso   1.000  C
  C77      1.0000 0.36020  0.10820  0.24110  Biso   1.000  C
  C78      1.0000 0.63980  0.39180  0.74110  Biso   1.000  C
  C79      1.0000 0.63980  0.60820  0.25890  Biso   1.000  C
  C80      1.0000 0.36020  0.89180  0.75890  Biso   1.000  C
  H17      1.0000 0.16500  0.40330  0.77600  Biso   1.000  H
  H18      1.0000 0.83500  0.09670  0.27600  Biso   1.000  H
  H19      1.0000 0.83500  0.90330  0.72400  Biso   1.000  H
  H20      1.0000 0.16500  0.59670  0.22400  Biso   1.000  H
  H21      1.0000 0.66500  0.90330  0.77600  Biso   1.000  H
  H22      1.0000 0.33500  0.59670  0.27600  Biso   1.000  H
  H23      1.0000 0.33500  0.40330  0.72400  Biso   1.000  H
  H24      1.0000 0.66500  0.09670  0.22400  Biso   1.000  H
  H25      1.0000 0.83500  0.59670  0.22400  Biso   1.000  H
  H26      1.0000 0.16500  0.90330  0.72400  Biso   1.000  H
  H27      1.0000 0.16500  0.09670  0.27600  Biso   1.000  H
  H28      1.0000 0.83500  0.40330  0.77600  Biso   1.000  H
  H29      1.0000 0.33500  0.09670  0.22400  Biso   1.000  H
  H30      1.0000 0.66500  0.40330  0.72400  Biso   1.000  H
  H31      1.0000 0.66500  0.59670  0.27600  Biso   1.000  H
  H32      1.0000 0.33500  0.90330  0.77600  Biso   1.000  H
  C81      1.0000 0.13926  0.36450  0.71490  Biso   1.000  C
  C82      1.0000 0.86074  0.13550  0.21490  Biso   1.000  C
  C83      1.0000 0.86074  0.86450  0.78510  Biso   1.000  C
  C84      1.0000 0.13926  0.63550  0.28510  Biso   1.000  C
  C85      1.0000 0.63926  0.86450  0.71490  Biso   1.000  C
  C86      1.0000 0.36074  0.63550  0.21490  Biso   1.000  C
  C87      1.0000 0.36074  0.36450  0.78510  Biso   1.000  C
  C88      1.0000 0.63926  0.13550  0.28510  Biso   1.000  C
  C89      1.0000 0.86074  0.63550  0.28510  Biso   1.000  C
  C90      1.0000 0.13926  0.86450  0.78510  Biso   1.000  C
  C91      1.0000 0.13926  0.13550  0.21490  Biso   1.000  C
  C92      1.0000 0.86074  0.36450  0.71490  Biso   1.000  C
  C93      1.0000 0.36074  0.13550  0.28510  Biso   1.000  C
  C94      1.0000 0.63926  0.36450  0.78510  Biso   1.000  C
  C95      1.0000 0.63926  0.63550  0.21490  Biso   1.000  C
  C96      1.0000 0.36074  0.86450  0.71490  Biso   1.000  C
  H33      1.0000 0.16440  0.35340  0.69710  Biso   1.000  H
  H34      1.0000 0.83560  0.14660  0.19710  Biso   1.000  H
  H35      1.0000 0.83560  0.85340  0.80290  Biso   1.000  H
  H36      1.0000 0.16440  0.64660  0.30290  Biso   1.000  H
  H37      1.0000 0.66440  0.85340  0.69710  Biso   1.000  H
  H38      1.0000 0.33560  0.64660  0.19710  Biso   1.000  H
  H39      1.0000 0.33560  0.35340  0.80290  Biso   1.000  H
  H40      1.0000 0.66440  0.14660  0.30290  Biso   1.000  H
  H41      1.0000 0.83560  0.64660  0.30290  Biso   1.000  H
  H42      1.0000 0.16440  0.85340  0.80290  Biso   1.000  H
  H43      1.0000 0.16440  0.14660  0.19710  Biso   1.000  H
  H44      1.0000 0.83560  0.35340  0.69710  Biso   1.000  H
  H45      1.0000 0.33560  0.14660  0.30290  Biso   1.000  H
  H46      1.0000 0.66440  0.35340  0.80290  Biso   1.000  H
  H47      1.0000 0.66440  0.64660  0.19710  Biso   1.000  H
  H48      1.0000 0.33560  0.85340  0.69710  Biso   1.000  H
  C97      1.0000 0.09457  0.35460  0.69920  Biso   1.000  C
  C98      1.0000 0.90543  0.14540  0.19920  Biso   1.000  C
  C99      1.0000 0.90543  0.85460  0.80080  Biso   1.000  C
  C100     1.0000 0.09457  0.64540  0.30080  Biso   1.000  C
  C101     1.0000 0.59457  0.85460  0.69920  Biso   1.000  C
  C102     1.0000 0.40543  0.64540  0.19920  Biso   1.000  C
  C103     1.0000 0.40543  0.35460  0.80080  Biso   1.000  C
  C104     1.0000 0.59457  0.14540  0.30080  Biso   1.000  C
  C105     1.0000 0.90543  0.64540  0.30080  Biso   1.000  C
  C106     1.0000 0.09457  0.85460  0.80080  Biso   1.000  C
  C107     1.0000 0.09457  0.14540  0.19920  Biso   1.000  C
  C108     1.0000 0.90543  0.35460  0.69920  Biso   1.000  C
  C109     1.0000 0.40543  0.14540  0.30080  Biso   1.000  C
  C110     1.0000 0.59457  0.35460  0.80080  Biso   1.000  C
  C111     1.0000 0.59457  0.64540  0.19920  Biso   1.000  C
  C112     1.0000 0.40543  0.85460  0.69920  Biso   1.000  C
  C113     1.0000 0.08059  0.32467  0.66050  Biso   1.000  C
  C114     1.0000 0.91941  0.17533  0.16050  Biso   1.000  C
  C115     1.0000 0.91941  0.82467  0.83950  Biso   1.000  C
  C116     1.0000 0.08059  0.67533  0.33950  Biso   1.000  C
  C117     1.0000 0.58059  0.82467  0.66050  Biso   1.000  C
  C118     1.0000 0.41941  0.67533  0.16050  Biso   1.000  C
  C119     1.0000 0.41941  0.32467  0.83950  Biso   1.000  C
  C120     1.0000 0.58059  0.17533  0.33950  Biso   1.000  C
  C121     1.0000 0.91941  0.67533  0.33950  Biso   1.000  C
  C122     1.0000 0.08059  0.82467  0.83950  Biso   1.000  C
  C123     1.0000 0.08059  0.17533  0.16050  Biso   1.000  C
  C124     1.0000 0.91941  0.32467  0.66050  Biso   1.000  C
  C125     1.0000 0.41941  0.17533  0.33950  Biso   1.000  C
  C126     1.0000 0.58059  0.32467  0.83950  Biso   1.000  C
  C127     1.0000 0.58059  0.67533  0.16050  Biso   1.000  C
  C128     1.0000 0.41941  0.82467  0.66050  Biso   1.000  C
  C129     1.0000 0.03644  0.31590  0.64800  Biso   1.000  C
  C130     1.0000 0.96356  0.18410  0.14800  Biso   1.000  C
  C131     1.0000 0.96356  0.81590  0.85200  Biso   1.000  C
  C132     1.0000 0.03644  0.68410  0.35200  Biso   1.000  C
  C133     1.0000 0.53644  0.81590  0.64800  Biso   1.000  C
  C134     1.0000 0.46356  0.68410  0.14800  Biso   1.000  C
  C135     1.0000 0.46356  0.31590  0.85200  Biso   1.000  C
  C136     1.0000 0.53644  0.18410  0.35200  Biso   1.000  C
  C137     1.0000 0.96356  0.68410  0.35200  Biso   1.000  C
  C138     1.0000 0.03644  0.81590  0.85200  Biso   1.000  C
  C139     1.0000 0.03644  0.18410  0.14800  Biso   1.000  C
  C140     1.0000 0.96356  0.31590  0.64800  Biso   1.000  C
  C141     1.0000 0.46356  0.18410  0.35200  Biso   1.000  C
  C142     1.0000 0.53644  0.31590  0.85200  Biso   1.000  C
  C143     1.0000 0.53644  0.68410  0.14800  Biso   1.000  C
  C144     1.0000 0.46356  0.81590  0.64800  Biso   1.000  C
  C145     1.0000 0.02255  0.28870  0.60330  Biso   1.000  C
  C146     1.0000 0.97745  0.21130  0.10330  Biso   1.000  C
  C147     1.0000 0.97745  0.78870  0.89670  Biso   1.000  C
  C148     1.0000 0.02255  0.71130  0.39670  Biso   1.000  C
  C149     1.0000 0.52255  0.78870  0.60330  Biso   1.000  C
  C150     1.0000 0.47745  0.71130  0.10330  Biso   1.000  C
  C151     1.0000 0.47745  0.28870  0.89670  Biso   1.000  C
  C152     1.0000 0.52255  0.21130  0.39670  Biso   1.000  C
  C153     1.0000 0.97745  0.71130  0.39670  Biso   1.000  C
  C154     1.0000 0.02255  0.78870  0.89670  Biso   1.000  C
  C155     1.0000 0.02255  0.21130  0.10330  Biso   1.000  C
  C156     1.0000 0.97745  0.28870  0.60330  Biso   1.000  C
  C157     1.0000 0.47745  0.21130  0.39670  Biso   1.000  C
  C158     1.0000 0.52255  0.28870  0.89670  Biso   1.000  C
  C159     1.0000 0.52255  0.71130  0.10330  Biso   1.000  C
  C160     1.0000 0.47745  0.78870  0.60330  Biso   1.000  C
  H49      1.0000 0.04090  0.27350  0.57850  Biso   1.000  H
  H50      1.0000 0.95910  0.22650  0.07850  Biso   1.000  H
  H51      1.0000 0.95910  0.77350  0.92150  Biso   1.000  H
  H52      1.0000 0.04090  0.72650  0.42150  Biso   1.000  H
  H53      1.0000 0.54090  0.77350  0.57850  Biso   1.000  H
  H54      1.0000 0.45910  0.72650  0.07850  Biso   1.000  H
  H55      1.0000 0.45910  0.27350  0.92150  Biso   1.000  H
  H56      1.0000 0.54090  0.22650  0.42150  Biso   1.000  H
  H57      1.0000 0.95910  0.72650  0.42150  Biso   1.000  H
  H58      1.0000 0.04090  0.77350  0.92150  Biso   1.000  H
  H59      1.0000 0.04090  0.22650  0.07850  Biso   1.000  H
  H60      1.0000 0.95910  0.27350  0.57850  Biso   1.000  H
  H61      1.0000 0.45910  0.22650  0.42150  Biso   1.000  H
  H62      1.0000 0.54090  0.27350  0.92150  Biso   1.000  H
  H63      1.0000 0.54090  0.72650  0.07850  Biso   1.000  H
  H64      1.0000 0.45910  0.77350  0.57850  Biso   1.000  H
  C161     1.0000 0.11538  0.44920  0.85270  Biso   1.000  C
  C162     1.0000 0.88462  0.05080  0.35270  Biso   1.000  C
  C163     1.0000 0.88462  0.94920  0.64730  Biso   1.000  C
  C164     1.0000 0.11538  0.55080  0.14730  Biso   1.000  C
  C165     1.0000 0.61538  0.94920  0.85270  Biso   1.000  C
  C166     1.0000 0.38462  0.55080  0.35270  Biso   1.000  C
  C167     1.0000 0.38462  0.44920  0.64730  Biso   1.000  C
  C168     1.0000 0.61538  0.05080  0.14730  Biso   1.000  C
  C169     1.0000 0.88462  0.55080  0.14730  Biso   1.000  C
  C170     1.0000 0.11538  0.94920  0.64730  Biso   1.000  C
  C171     1.0000 0.11538  0.05080  0.35270  Biso   1.000  C
  C172     1.0000 0.88462  0.44920  0.85270  Biso   1.000  C
  C173     1.0000 0.38462  0.05080  0.14730  Biso   1.000  C
  C174     1.0000 0.61538  0.44920  0.64730  Biso   1.000  C
  C175     1.0000 0.61538  0.55080  0.35270  Biso   1.000  C
  C176     1.0000 0.38462  0.94920  0.85270  Biso   1.000  C
  C177     1.0000 0.12310  0.49250  0.84680  Biso   1.000  C
  C178     1.0000 0.87690  0.00750  0.34680  Biso   1.000  C
  C179     1.0000 0.87690  0.99250  0.65320  Biso   1.000  C
  C180     1.0000 0.12310  0.50750  0.15320  Biso   1.000  C
  C181     1.0000 0.62310  0.99250  0.84680  Biso   1.000  C
  C182     1.0000 0.37690  0.50750  0.34680  Biso   1.000  C
  C183     1.0000 0.37690  0.49250  0.65320  Biso   1.000  C
  C184     1.0000 0.62310  0.00750  0.15320  Biso   1.000  C
  C185     1.0000 0.87690  0.50750  0.15320  Biso   1.000  C
  C186     1.0000 0.12310  0.99250  0.65320  Biso   1.000  C
  C187     1.0000 0.12310  0.00750  0.34680  Biso   1.000  C
  C188     1.0000 0.87690  0.49250  0.84680  Biso   1.000  C
  C189     1.0000 0.37690  0.00750  0.15320  Biso   1.000  C
  C190     1.0000 0.62310  0.49250  0.65320  Biso   1.000  C
  C191     1.0000 0.62310  0.50750  0.34680  Biso   1.000  C
  C192     1.0000 0.37690  0.99250  0.84680  Biso   1.000  C
  H65      1.0000 0.10460  0.50810  0.82260  Biso   1.000  H
  H66      1.0000 0.89540  0.99190  0.32260  Biso   1.000  H
  H67      1.0000 0.89540  0.00810  0.67740  Biso   1.000  H
  H68      1.0000 0.10460  0.49190  0.17740  Biso   1.000  H
  H69      1.0000 0.60460  0.00810  0.82260  Biso   1.000  H
  H70      1.0000 0.39540  0.49190  0.32260  Biso   1.000  H
  H71      1.0000 0.39540  0.50810  0.67740  Biso   1.000  H
  H72      1.0000 0.60460  0.99190  0.17740  Biso   1.000  H
  H73      1.0000 0.89540  0.49190  0.17740  Biso   1.000  H
  H74      1.0000 0.10460  0.00810  0.67740  Biso   1.000  H
  H75      1.0000 0.10460  0.99190  0.32260  Biso   1.000  H
  H76      1.0000 0.89540  0.50810  0.82260  Biso   1.000  H
  H77      1.0000 0.39540  0.99190  0.17740  Biso   1.000  H
  H78      1.0000 0.60460  0.50810  0.67740  Biso   1.000  H
  H79      1.0000 0.60460  0.49190  0.32260  Biso   1.000  H
  H80      1.0000 0.39540  0.00810  0.82260  Biso   1.000  H
  C193     1.0000 0.15680  0.51550  0.87450  Biso   1.000  C
  C194     1.0000 0.84320  0.98450  0.37450  Biso   1.000  C
  C195     1.0000 0.84320  0.01550  0.62550  Biso   1.000  C
  C196     1.0000 0.15680  0.48450  0.12550  Biso   1.000  C
  C197     1.0000 0.65680  0.01550  0.87450  Biso   1.000  C
  C198     1.0000 0.34320  0.48450  0.37450  Biso   1.000  C
  C199     1.0000 0.34320  0.51550  0.62550  Biso   1.000  C
  C200     1.0000 0.65680  0.98450  0.12550  Biso   1.000  C
  C201     1.0000 0.84320  0.48450  0.12550  Biso   1.000  C
  C202     1.0000 0.15680  0.01550  0.62550  Biso   1.000  C
  C203     1.0000 0.15680  0.98450  0.37450  Biso   1.000  C
  C204     1.0000 0.84320  0.51550  0.87450  Biso   1.000  C
  C205     1.0000 0.34320  0.98450  0.12550  Biso   1.000  C
  C206     1.0000 0.65680  0.51550  0.62550  Biso   1.000  C
  C207     1.0000 0.65680  0.48450  0.37450  Biso   1.000  C
  C208     1.0000 0.34320  0.01550  0.87450  Biso   1.000  C
  C209     1.0000 0.17980  0.49086  0.91430  Biso   1.000  C
  C210     1.0000 0.82020  0.00914  0.41430  Biso   1.000  C
  C211     1.0000 0.82020  0.99086  0.58570  Biso   1.000  C
  C212     1.0000 0.17980  0.50914  0.08570  Biso   1.000  C
  C213     1.0000 0.67980  0.99086  0.91430  Biso   1.000  C
  C214     1.0000 0.32020  0.50914  0.41430  Biso   1.000  C
  C215     1.0000 0.32020  0.49086  0.58570  Biso   1.000  C
  C216     1.0000 0.67980  0.00914  0.08570  Biso   1.000  C
  C217     1.0000 0.82020  0.50914  0.08570  Biso   1.000  C
  C218     1.0000 0.17980  0.99086  0.58570  Biso   1.000  C
  C219     1.0000 0.17980  0.00914  0.41430  Biso   1.000  C
  C220     1.0000 0.82020  0.49086  0.91430  Biso   1.000  C
  C221     1.0000 0.32020  0.00914  0.08570  Biso   1.000  C
  C222     1.0000 0.67980  0.49086  0.58570  Biso   1.000  C
  C223     1.0000 0.67980  0.50914  0.41430  Biso   1.000  C
  C224     1.0000 0.32020  0.99086  0.91430  Biso   1.000  C
  H81      1.0000 0.20100  0.50510  0.93630  Biso   1.000  H
  H82      1.0000 0.79900  0.99490  0.43630  Biso   1.000  H
  H83      1.0000 0.79900  0.00510  0.56370  Biso   1.000  H
  H84      1.0000 0.20100  0.49490  0.06370  Biso   1.000  H
  H85      1.0000 0.70100  0.00510  0.93630  Biso   1.000  H
  H86      1.0000 0.29900  0.49490  0.43630  Biso   1.000  H
  H87      1.0000 0.29900  0.50510  0.56370  Biso   1.000  H
  H88      1.0000 0.70100  0.99490  0.06370  Biso   1.000  H
  H89      1.0000 0.79900  0.49490  0.06370  Biso   1.000  H
  H90      1.0000 0.20100  0.00510  0.56370  Biso   1.000  H
  H91      1.0000 0.20100  0.99490  0.43630  Biso   1.000  H
  H92      1.0000 0.79900  0.50510  0.93630  Biso   1.000  H
  H93      1.0000 0.29900  0.99490  0.06370  Biso   1.000  H
  H94      1.0000 0.70100  0.50510  0.56370  Biso   1.000  H
  H95      1.0000 0.70100  0.49490  0.43630  Biso   1.000  H
  H96      1.0000 0.29900  0.00510  0.93630  Biso   1.000  H
  C225     1.0000 0.17330  0.44620  0.92360  Biso   1.000  C
  C226     1.0000 0.82670  0.05380  0.42360  Biso   1.000  C
  C227     1.0000 0.82670  0.94620  0.57640  Biso   1.000  C
  C228     1.0000 0.17330  0.55380  0.07640  Biso   1.000  C
  C229     1.0000 0.67330  0.94620  0.92360  Biso   1.000  C
  C230     1.0000 0.32670  0.55380  0.42360  Biso   1.000  C
  C231     1.0000 0.32670  0.44620  0.57640  Biso   1.000  C
  C232     1.0000 0.67330  0.05380  0.07640  Biso   1.000  C
  C233     1.0000 0.82670  0.55380  0.07640  Biso   1.000  C
  C234     1.0000 0.17330  0.94620  0.57640  Biso   1.000  C
  C235     1.0000 0.17330  0.05380  0.42360  Biso   1.000  C
  C236     1.0000 0.82670  0.44620  0.92360  Biso   1.000  C
  C237     1.0000 0.32670  0.05380  0.07640  Biso   1.000  C
  C238     1.0000 0.67330  0.44620  0.57640  Biso   1.000  C
  C239     1.0000 0.67330  0.55380  0.42360  Biso   1.000  C
  C240     1.0000 0.32670  0.94620  0.92360  Biso   1.000  C
  C241     1.0000 0.14050  0.42540  0.89080  Biso   1.000  C
  C242     1.0000 0.85950  0.07460  0.39080  Biso   1.000  C
  C243     1.0000 0.85950  0.92540  0.60920  Biso   1.000  C
  C244     1.0000 0.14050  0.57460  0.10920  Biso   1.000  C
  C245     1.0000 0.64050  0.92540  0.89080  Biso   1.000  C
  C246     1.0000 0.35950  0.57460  0.39080  Biso   1.000  C
  C247     1.0000 0.35950  0.42540  0.60920  Biso   1.000  C
  C248     1.0000 0.64050  0.07460  0.10920  Biso   1.000  C
  C249     1.0000 0.85950  0.57460  0.10920  Biso   1.000  C
  C250     1.0000 0.14050  0.92540  0.60920  Biso   1.000  C
  C251     1.0000 0.14050  0.07460  0.39080  Biso   1.000  C
  C252     1.0000 0.85950  0.42540  0.89080  Biso   1.000  C
  C253     1.0000 0.35950  0.07460  0.10920  Biso   1.000  C
  C254     1.0000 0.64050  0.42540  0.60920  Biso   1.000  C
  C255     1.0000 0.64050  0.57460  0.39080  Biso   1.000  C
  C256     1.0000 0.35950  0.92540  0.89080  Biso   1.000  C
  H97      1.0000 0.13570  0.39560  0.89480  Biso   1.000  H
  H98      1.0000 0.86430  0.10440  0.39480  Biso   1.000  H
  H99      1.0000 0.86430  0.89560  0.60520  Biso   1.000  H
  H100     1.0000 0.13570  0.60440  0.10520  Biso   1.000  H
  H101     1.0000 0.63570  0.89560  0.89480  Biso   1.000  H
  H102     1.0000 0.36430  0.60440  0.39480  Biso   1.000  H
  H103     1.0000 0.36430  0.39560  0.60520  Biso   1.000  H
  H104     1.0000 0.63570  0.10440  0.10520  Biso   1.000  H
  H105     1.0000 0.86430  0.60440  0.10520  Biso   1.000  H
  H106     1.0000 0.13570  0.89560  0.60520  Biso   1.000  H
  H107     1.0000 0.13570  0.10440  0.39480  Biso   1.000  H
  H108     1.0000 0.86430  0.39560  0.89480  Biso   1.000  H
  H109     1.0000 0.36430  0.10440  0.10520  Biso   1.000  H
  H110     1.0000 0.63570  0.39560  0.60520  Biso   1.000  H
  H111     1.0000 0.63570  0.60440  0.39480  Biso   1.000  H
  H112     1.0000 0.36430  0.89560  0.89480  Biso   1.000  H
  C257     1.0000 0.11656  0.30401  0.62740  Biso   1.000  C
  C258     1.0000 0.88344  0.19599  0.12740  Biso   1.000  C
  C259     1.0000 0.88344  0.80401  0.87260  Biso   1.000  C
  C260     1.0000 0.11656  0.69599  0.37260  Biso   1.000  C
  C261     1.0000 0.61656  0.80401  0.62740  Biso   1.000  C
  C262     1.0000 0.38344  0.69599  0.12740  Biso   1.000  C
  C263     1.0000 0.38344  0.30401  0.87260  Biso   1.000  C
  C264     1.0000 0.61656  0.19599  0.37260  Biso   1.000  C
  C265     1.0000 0.88344  0.69599  0.37260  Biso   1.000  C
  C266     1.0000 0.11656  0.80401  0.87260  Biso   1.000  C
  C267     1.0000 0.11656  0.19599  0.12740  Biso   1.000  C
  C268     1.0000 0.88344  0.30401  0.62740  Biso   1.000  C
  C269     1.0000 0.38344  0.19599  0.37260  Biso   1.000  C
  C270     1.0000 0.61656  0.30401  0.87260  Biso   1.000  C
  C271     1.0000 0.61656  0.69599  0.12740  Biso   1.000  C
  C272     1.0000 0.38344  0.80401  0.62740  Biso   1.000  C
  C273     1.0000 0.14222  0.32574  0.58950  Biso   1.000  C
  C274     1.0000 0.85778  0.17426  0.08950  Biso   1.000  C
  C275     1.0000 0.85778  0.82574  0.91050  Biso   1.000  C
  C276     1.0000 0.14222  0.67426  0.41050  Biso   1.000  C
  C277     1.0000 0.64222  0.82574  0.58950  Biso   1.000  C
  C278     1.0000 0.35778  0.67426  0.08950  Biso   1.000  C
  C279     1.0000 0.35778  0.32574  0.91050  Biso   1.000  C
  C280     1.0000 0.64222  0.17426  0.41050  Biso   1.000  C
  C281     1.0000 0.85778  0.67426  0.41050  Biso   1.000  C
  C282     1.0000 0.14222  0.82574  0.91050  Biso   1.000  C
  C283     1.0000 0.14222  0.17426  0.08950  Biso   1.000  C
  C284     1.0000 0.85778  0.32574  0.58950  Biso   1.000  C
  C285     1.0000 0.35778  0.17426  0.41050  Biso   1.000  C
  C286     1.0000 0.64222  0.32574  0.91050  Biso   1.000  C
  C287     1.0000 0.64222  0.67426  0.08950  Biso   1.000  C
  C288     1.0000 0.35778  0.82574  0.58950  Biso   1.000  C
  H113     1.0000 0.13720  0.35550  0.58450  Biso   1.000  H
  H114     1.0000 0.86280  0.14450  0.08450  Biso   1.000  H
  H115     1.0000 0.86280  0.85550  0.91550  Biso   1.000  H
  H116     1.0000 0.13720  0.64450  0.41550  Biso   1.000  H
  H117     1.0000 0.63720  0.85550  0.58450  Biso   1.000  H
  H118     1.0000 0.36280  0.64450  0.08450  Biso   1.000  H
  H119     1.0000 0.36280  0.35550  0.91550  Biso   1.000  H
  H120     1.0000 0.63720  0.14450  0.41550  Biso   1.000  H
  H121     1.0000 0.86280  0.64450  0.41550  Biso   1.000  H
  H122     1.0000 0.13720  0.85550  0.91550  Biso   1.000  H
  H123     1.0000 0.13720  0.14450  0.08450  Biso   1.000  H
  H124     1.0000 0.86280  0.35550  0.58450  Biso   1.000  H
  H125     1.0000 0.36280  0.14450  0.41550  Biso   1.000  H
  H126     1.0000 0.63720  0.35550  0.91550  Biso   1.000  H
  H127     1.0000 0.63720  0.64450  0.08450  Biso   1.000  H
  H128     1.0000 0.36280  0.85550  0.58450  Biso   1.000  H
  C289     1.0000 0.17480  0.30649  0.55840  Biso   1.000  C
  C290     1.0000 0.82520  0.19351  0.05840  Biso   1.000  C
  C291     1.0000 0.82520  0.80649  0.94160  Biso   1.000  C
  C292     1.0000 0.17480  0.69351  0.44160  Biso   1.000  C
  C293     1.0000 0.67480  0.80649  0.55840  Biso   1.000  C
  C294     1.0000 0.32520  0.69351  0.05840  Biso   1.000  C
  C295     1.0000 0.32520  0.30649  0.94160  Biso   1.000  C
  C296     1.0000 0.67480  0.19351  0.44160  Biso   1.000  C
  C297     1.0000 0.82520  0.69351  0.44160  Biso   1.000  C
  C298     1.0000 0.17480  0.80649  0.94160  Biso   1.000  C
  C299     1.0000 0.17480  0.19351  0.05840  Biso   1.000  C
  C300     1.0000 0.82520  0.30649  0.55840  Biso   1.000  C
  C301     1.0000 0.32520  0.19351  0.44160  Biso   1.000  C
  C302     1.0000 0.67480  0.30649  0.94160  Biso   1.000  C
  C303     1.0000 0.67480  0.69351  0.05840  Biso   1.000  C
  C304     1.0000 0.32520  0.80649  0.55840  Biso   1.000  C
  C305     1.0000 0.18288  0.26110  0.56450  Biso   1.000  C
  C306     1.0000 0.81712  0.23890  0.06450  Biso   1.000  C
  C307     1.0000 0.81712  0.76110  0.93550  Biso   1.000  C
  C308     1.0000 0.18288  0.73890  0.43550  Biso   1.000  C
  C309     1.0000 0.68288  0.76110  0.56450  Biso   1.000  C
  C310     1.0000 0.31712  0.73890  0.06450  Biso   1.000  C
  C311     1.0000 0.31712  0.26110  0.93550  Biso   1.000  C
  C312     1.0000 0.68288  0.23890  0.43550  Biso   1.000  C
  C313     1.0000 0.81712  0.73890  0.43550  Biso   1.000  C
  C314     1.0000 0.18288  0.76110  0.93550  Biso   1.000  C
  C315     1.0000 0.18288  0.23890  0.06450  Biso   1.000  C
  C316     1.0000 0.81712  0.26110  0.56450  Biso   1.000  C
  C317     1.0000 0.31712  0.23890  0.43550  Biso   1.000  C
  C318     1.0000 0.68288  0.26110  0.93550  Biso   1.000  C
  C319     1.0000 0.68288  0.73890  0.06450  Biso   1.000  C
  C320     1.0000 0.31712  0.76110  0.56450  Biso   1.000  C
  H129     1.0000 0.20510  0.24730  0.54400  Biso   1.000  H
  H130     1.0000 0.79490  0.25270  0.04400  Biso   1.000  H
  H131     1.0000 0.79490  0.74730  0.95600  Biso   1.000  H
  H132     1.0000 0.20510  0.75270  0.45600  Biso   1.000  H
  H133     1.0000 0.70510  0.74730  0.54400  Biso   1.000  H
  H134     1.0000 0.29490  0.75270  0.04400  Biso   1.000  H
  H135     1.0000 0.29490  0.24730  0.95600  Biso   1.000  H
  H136     1.0000 0.70510  0.25270  0.45600  Biso   1.000  H
  H137     1.0000 0.79490  0.75270  0.45600  Biso   1.000  H
  H138     1.0000 0.20510  0.74730  0.95600  Biso   1.000  H
  H139     1.0000 0.20510  0.25270  0.04400  Biso   1.000  H
  H140     1.0000 0.79490  0.24730  0.54400  Biso   1.000  H
  H141     1.0000 0.29490  0.25270  0.45600  Biso   1.000  H
  H142     1.0000 0.70510  0.24730  0.95600  Biso   1.000  H
  H143     1.0000 0.70510  0.75270  0.04400  Biso   1.000  H
  H144     1.0000 0.29490  0.74730  0.54400  Biso   1.000  H
  C321     1.0000 0.15650  0.23810  0.60220  Biso   1.000  C
  C322     1.0000 0.84350  0.26190  0.10220  Biso   1.000  C
  C323     1.0000 0.84350  0.73810  0.89780  Biso   1.000  C
  C324     1.0000 0.15650  0.76190  0.39780  Biso   1.000  C
  C325     1.0000 0.65650  0.73810  0.60220  Biso   1.000  C
  C326     1.0000 0.34350  0.76190  0.10220  Biso   1.000  C
  C327     1.0000 0.34350  0.23810  0.89780  Biso   1.000  C
  C328     1.0000 0.65650  0.26190  0.39780  Biso   1.000  C
  C329     1.0000 0.84350  0.76190  0.39780  Biso   1.000  C
  C330     1.0000 0.15650  0.73810  0.89780  Biso   1.000  C
  C331     1.0000 0.15650  0.26190  0.10220  Biso   1.000  C
  C332     1.0000 0.84350  0.23810  0.60220  Biso   1.000  C
  C333     1.0000 0.34350  0.26190  0.39780  Biso   1.000  C
  C334     1.0000 0.65650  0.23810  0.89780  Biso   1.000  C
  C335     1.0000 0.65650  0.76190  0.10220  Biso   1.000  C
  C336     1.0000 0.34350  0.73810  0.60220  Biso   1.000  C
  C337     1.0000 0.12391  0.26000  0.63400  Biso   1.000  C
  C338     1.0000 0.87609  0.24000  0.13400  Biso   1.000  C
  C339     1.0000 0.87609  0.76000  0.86600  Biso   1.000  C
  C340     1.0000 0.12391  0.74000  0.36600  Biso   1.000  C
  C341     1.0000 0.62391  0.76000  0.63400  Biso   1.000  C
  C342     1.0000 0.37609  0.74000  0.13400  Biso   1.000  C
  C343     1.0000 0.37609  0.26000  0.86600  Biso   1.000  C
  C344     1.0000 0.62391  0.24000  0.36600  Biso   1.000  C
  C345     1.0000 0.87609  0.74000  0.36600  Biso   1.000  C
  C346     1.0000 0.12391  0.76000  0.86600  Biso   1.000  C
  C347     1.0000 0.12391  0.24000  0.13400  Biso   1.000  C
  C348     1.0000 0.87609  0.26000  0.63400  Biso   1.000  C
  C349     1.0000 0.37609  0.24000  0.36600  Biso   1.000  C
  C350     1.0000 0.62391  0.26000  0.86600  Biso   1.000  C
  C351     1.0000 0.62391  0.74000  0.13400  Biso   1.000  C
  C352     1.0000 0.37609  0.76000  0.63400  Biso   1.000  C
  H145     1.0000 0.10700  0.24430  0.66000  Biso   1.000  H
  H146     1.0000 0.89300  0.25570  0.16000  Biso   1.000  H
  H147     1.0000 0.89300  0.74430  0.84000  Biso   1.000  H
  H148     1.0000 0.10700  0.75570  0.34000  Biso   1.000  H
  H149     1.0000 0.60700  0.74430  0.66000  Biso   1.000  H
  H150     1.0000 0.39300  0.75570  0.16000  Biso   1.000  H
  H151     1.0000 0.39300  0.24430  0.84000  Biso   1.000  H
  H152     1.0000 0.60700  0.25570  0.34000  Biso   1.000  H
  H153     1.0000 0.89300  0.75570  0.34000  Biso   1.000  H
  H154     1.0000 0.10700  0.74430  0.84000  Biso   1.000  H
  H155     1.0000 0.10700  0.25570  0.16000  Biso   1.000  H
  H156     1.0000 0.89300  0.24430  0.66000  Biso   1.000  H
  H157     1.0000 0.39300  0.25570  0.34000  Biso   1.000  H
  H158     1.0000 0.60700  0.24430  0.84000  Biso   1.000  H
  H159     1.0000 0.60700  0.75570  0.16000  Biso   1.000  H
  H160     1.0000 0.39300  0.74430  0.66000  Biso   1.000  H
  C353     1.0000 0.16680  0.56160  0.86780  Biso   1.000  C
  C354     1.0000 0.83320  0.93840  0.36780  Biso   1.000  C
  C355     1.0000 0.83320  0.06160  0.63220  Biso   1.000  C
  C356     1.0000 0.16680  0.43840  0.13220  Biso   1.000  C
  C357     1.0000 0.66680  0.06160  0.86780  Biso   1.000  C
  C358     1.0000 0.33320  0.43840  0.36780  Biso   1.000  C
  C359     1.0000 0.33320  0.56160  0.63220  Biso   1.000  C
  C360     1.0000 0.66680  0.93840  0.13220  Biso   1.000  C
  C361     1.0000 0.83320  0.43840  0.13220  Biso   1.000  C
  C362     1.0000 0.16680  0.06160  0.63220  Biso   1.000  C
  C363     1.0000 0.16680  0.93840  0.36780  Biso   1.000  C
  C364     1.0000 0.83320  0.56160  0.86780  Biso   1.000  C
  C365     1.0000 0.33320  0.93840  0.13220  Biso   1.000  C
  C366     1.0000 0.66680  0.56160  0.63220  Biso   1.000  C
  C367     1.0000 0.66680  0.43840  0.36780  Biso   1.000  C
  C368     1.0000 0.33320  0.06160  0.86780  Biso   1.000  C
  C369     1.0000 0.19880  0.42000  0.96610  Biso   1.000  C
  C370     1.0000 0.80120  0.08000  0.46610  Biso   1.000  C
  C371     1.0000 0.80120  0.92000  0.53390  Biso   1.000  C
  C372     1.0000 0.19880  0.58000  0.03390  Biso   1.000  C
  C373     1.0000 0.69880  0.92000  0.96610  Biso   1.000  C
  C374     1.0000 0.30120  0.58000  0.46610  Biso   1.000  C
  C375     1.0000 0.30120  0.42000  0.53390  Biso   1.000  C
  C376     1.0000 0.69880  0.08000  0.03390  Biso   1.000  C
  C377     1.0000 0.80120  0.58000  0.03390  Biso   1.000  C
  C378     1.0000 0.19880  0.92000  0.53390  Biso   1.000  C
  C379     1.0000 0.19880  0.08000  0.46610  Biso   1.000  C
  C380     1.0000 0.80120  0.42000  0.96610  Biso   1.000  C
  C381     1.0000 0.30120  0.08000  0.03390  Biso   1.000  C
  C382     1.0000 0.69880  0.42000  0.53390  Biso   1.000  C
  C383     1.0000 0.69880  0.58000  0.46610  Biso   1.000  C
  C384     1.0000 0.30120  0.92000  0.96610  Biso   1.000  C
  C385     1.0000 0.20231  0.33140  0.51640  Biso   1.000  C
  C386     1.0000 0.79769  0.16860  0.01640  Biso   1.000  C
  C387     1.0000 0.79769  0.83140  0.98360  Biso   1.000  C
  C388     1.0000 0.20231  0.66860  0.48360  Biso   1.000  C
  C389     1.0000 0.70231  0.83140  0.51640  Biso   1.000  C
  C390     1.0000 0.29769  0.66860  0.01640  Biso   1.000  C
  C391     1.0000 0.29769  0.33140  0.98360  Biso   1.000  C
  C392     1.0000 0.70231  0.16860  0.48360  Biso   1.000  C
  C393     1.0000 0.79769  0.66860  0.48360  Biso   1.000  C
  C394     1.0000 0.20231  0.83140  0.98360  Biso   1.000  C
  C395     1.0000 0.20231  0.16860  0.01640  Biso   1.000  C
  C396     1.0000 0.79769  0.33140  0.51640  Biso   1.000  C
  C397     1.0000 0.29769  0.16860  0.48360  Biso   1.000  C
  C398     1.0000 0.70231  0.33140  0.98360  Biso   1.000  C
  C399     1.0000 0.70231  0.66860  0.01640  Biso   1.000  C
  C400     1.0000 0.29769  0.83140  0.51640  Biso   1.000  C
  C401     1.0000 0.16710  0.19000  0.60960  Biso   1.000  C
  C402     1.0000 0.83290  0.31000  0.10960  Biso   1.000  C
  C403     1.0000 0.83290  0.69000  0.89040  Biso   1.000  C
  C404     1.0000 0.16710  0.81000  0.39040  Biso   1.000  C
  C405     1.0000 0.66710  0.69000  0.60960  Biso   1.000  C
  C406     1.0000 0.33290  0.81000  0.10960  Biso   1.000  C
  C407     1.0000 0.33290  0.19000  0.89040  Biso   1.000  C
  C408     1.0000 0.66710  0.31000  0.39040  Biso   1.000  C
  C409     1.0000 0.83290  0.81000  0.39040  Biso   1.000  C
  C410     1.0000 0.16710  0.69000  0.89040  Biso   1.000  C
  C411     1.0000 0.16710  0.31000  0.10960  Biso   1.000  C
  C412     1.0000 0.83290  0.19000  0.60960  Biso   1.000  C
  C413     1.0000 0.33290  0.31000  0.39040  Biso   1.000  C
  C414     1.0000 0.66710  0.19000  0.89040  Biso   1.000  C
  C415     1.0000 0.66710  0.81000  0.10960  Biso   1.000  C
  C416     1.0000 0.33290  0.69000  0.60960  Biso   1.000  C
