data_image0
_cell_length_a       16.0503
_cell_length_b       16.0503
_cell_length_c       36.843
_cell_angle_alpha    90
_cell_angle_beta     90
_cell_angle_gamma    120

_symmetry_space_group_name_H-M    "P 1"
_symmetry_int_tables_number       1

loop_
  _symmetry_equiv_pos_as_xyz
  'x, y, z'

loop_
  _atom_site_label
  _atom_site_occupancy
  _atom_site_fract_x
  _atom_site_fract_y
  _atom_site_fract_z
  _atom_site_thermal_displace_type
  _atom_site_B_iso_or_equiv
  _atom_site_type_symbol
  Cu1      1.0000 0.29777  0.14888  0.08330  Biso   1.000  Cu
  Cu2      1.0000 0.85112  0.14889  0.41663  Biso   1.000  Cu
  Cu3      1.0000 0.85111  0.70223  0.74997  Biso   1.000  Cu
  Cu4      1.0000 0.70223  0.85112  0.58330  Biso   1.000  Cu
  Cu5      1.0000 0.14888  0.85111  0.91663  Biso   1.000  Cu
  Cu6      1.0000 0.14889  0.29777  0.24997  Biso   1.000  Cu
  Cu7      1.0000 0.72617  0.86308  0.08330  Biso   1.000  Cu
  Cu8      1.0000 0.13692  0.86309  0.41663  Biso   1.000  Cu
  Cu9      1.0000 0.13691  0.27383  0.74997  Biso   1.000  Cu
  Cu10     1.0000 0.27383  0.13692  0.58330  Biso   1.000  Cu
  Cu11     1.0000 0.86308  0.13691  0.91663  Biso   1.000  Cu
  Cu12     1.0000 0.86309  0.72617  0.24997  Biso   1.000  Cu
  O1       1.0000 0.82060  0.85150  0.11140  Biso   1.000  O
  O2       1.0000 0.14850  0.96910  0.44473  Biso   1.000  O
  O3       1.0000 0.03090  0.17940  0.77807  Biso   1.000  O
  O4       1.0000 0.17940  0.14850  0.61140  Biso   1.000  O
  O5       1.0000 0.85150  0.03090  0.94473  Biso   1.000  O
  O6       1.0000 0.96910  0.82060  0.27807  Biso   1.000  O
  O7       1.0000 0.85150  0.82060  0.22193  Biso   1.000  O
  O8       1.0000 0.96910  0.14850  0.88860  Biso   1.000  O
  O9       1.0000 0.17940  0.03090  0.55527  Biso   1.000  O
  O10      1.0000 0.14850  0.17940  0.72193  Biso   1.000  O
  O11      1.0000 0.03090  0.85150  0.38860  Biso   1.000  O
  O12      1.0000 0.82060  0.96910  0.05527  Biso   1.000  O
  O13      1.0000 0.20370  0.16200  0.10880  Biso   1.000  O
  O14      1.0000 0.83800  0.04170  0.44213  Biso   1.000  O
  O15      1.0000 0.95830  0.79630  0.77547  Biso   1.000  O
  O16      1.0000 0.79630  0.83800  0.60880  Biso   1.000  O
  O17      1.0000 0.16200  0.95830  0.94213  Biso   1.000  O
  O18      1.0000 0.04170  0.20370  0.27547  Biso   1.000  O
  O19      1.0000 0.16200  0.20370  0.22453  Biso   1.000  O
  O20      1.0000 0.04170  0.83800  0.89120  Biso   1.000  O
  O21      1.0000 0.79630  0.95830  0.55787  Biso   1.000  O
  O22      1.0000 0.83800  0.79630  0.72453  Biso   1.000  O
  O23      1.0000 0.95830  0.16200  0.39120  Biso   1.000  O
  O24      1.0000 0.20370  0.04170  0.05787  Biso   1.000  O
  N1       1.0000 0.39790  0.25620  0.11410  Biso   1.000  N
  N2       1.0000 0.74380  0.14170  0.44743  Biso   1.000  N
  N3       1.0000 0.85830  0.60210  0.78077  Biso   1.000  N
  N4       1.0000 0.60210  0.74380  0.61410  Biso   1.000  N
  N5       1.0000 0.25620  0.85830  0.94743  Biso   1.000  N
  N6       1.0000 0.14170  0.39790  0.28077  Biso   1.000  N
  N7       1.0000 0.25620  0.39790  0.21923  Biso   1.000  N
  N8       1.0000 0.14170  0.74380  0.88590  Biso   1.000  N
  N9       1.0000 0.60210  0.85830  0.55257  Biso   1.000  N
  N10      1.0000 0.74380  0.60210  0.71923  Biso   1.000  N
  N11      1.0000 0.85830  0.25620  0.38590  Biso   1.000  N
  N12      1.0000 0.39790  0.14170  0.05257  Biso   1.000  N
  C1       1.0000 0.39220  0.25090  0.15170  Biso   1.000  C
  C2       1.0000 0.74910  0.14130  0.48503  Biso   1.000  C
  C3       1.0000 0.85870  0.60780  0.81837  Biso   1.000  C
  C4       1.0000 0.60780  0.74910  0.65170  Biso   1.000  C
  C5       1.0000 0.25090  0.85870  0.98503  Biso   1.000  C
  C6       1.0000 0.14130  0.39220  0.31837  Biso   1.000  C
  C7       1.0000 0.25090  0.39220  0.18163  Biso   1.000  C
  C8       1.0000 0.14130  0.74910  0.84830  Biso   1.000  C
  C9       1.0000 0.60780  0.85870  0.51497  Biso   1.000  C
  C10      1.0000 0.74910  0.60780  0.68163  Biso   1.000  C
  C11      1.0000 0.85870  0.25090  0.34830  Biso   1.000  C
  C12      1.0000 0.39220  0.14130  0.01497  Biso   1.000  C
  H1       1.0000 0.34170  0.19770  0.16290  Biso   1.000  H
  H2       1.0000 0.80230  0.14400  0.49623  Biso   1.000  H
  H3       1.0000 0.85600  0.65830  0.82957  Biso   1.000  H
  H4       1.0000 0.65830  0.80230  0.66290  Biso   1.000  H
  H5       1.0000 0.19770  0.85600  0.99623  Biso   1.000  H
  H6       1.0000 0.14400  0.34170  0.32957  Biso   1.000  H
  H7       1.0000 0.19770  0.34170  0.17043  Biso   1.000  H
  H8       1.0000 0.14400  0.80230  0.83710  Biso   1.000  H
  H9       1.0000 0.65830  0.85600  0.50377  Biso   1.000  H
  H10      1.0000 0.80230  0.65830  0.67043  Biso   1.000  H
  H11      1.0000 0.85600  0.19770  0.33710  Biso   1.000  H
  H12      1.0000 0.34170  0.14400  0.00377  Biso   1.000  H
  C13      1.0000 0.46200  0.32520  0.17260  Biso   1.000  C
  C14      1.0000 0.67480  0.13680  0.50593  Biso   1.000  C
  C15      1.0000 0.86320  0.53800  0.83927  Biso   1.000  C
  C16      1.0000 0.53800  0.67480  0.67260  Biso   1.000  C
  C17      1.0000 0.32520  0.86320  0.00593  Biso   1.000  C
  C18      1.0000 0.13680  0.46200  0.33927  Biso   1.000  C
  C19      1.0000 0.32520  0.46200  0.16073  Biso   1.000  C
  C20      1.0000 0.13680  0.67480  0.82740  Biso   1.000  C
  C21      1.0000 0.53800  0.86320  0.49407  Biso   1.000  C
  C22      1.0000 0.67480  0.53800  0.66073  Biso   1.000  C
  C23      1.0000 0.86320  0.32520  0.32740  Biso   1.000  C
  C24      1.0000 0.46200  0.13680  0.99407  Biso   1.000  C
  H13      1.0000 0.45820  0.32160  0.19780  Biso   1.000  H
  H14      1.0000 0.67840  0.13660  0.53113  Biso   1.000  H
  H15      1.0000 0.86340  0.54180  0.86447  Biso   1.000  H
  H16      1.0000 0.54180  0.67840  0.69780  Biso   1.000  H
  H17      1.0000 0.32160  0.86340  0.03113  Biso   1.000  H
  H18      1.0000 0.13660  0.45820  0.36447  Biso   1.000  H
  H19      1.0000 0.32160  0.45820  0.13553  Biso   1.000  H
  H20      1.0000 0.13660  0.67840  0.80220  Biso   1.000  H
  H21      1.0000 0.54180  0.86340  0.46887  Biso   1.000  H
  H22      1.0000 0.67840  0.54180  0.63553  Biso   1.000  H
  H23      1.0000 0.86340  0.32160  0.30220  Biso   1.000  H
  H24      1.0000 0.45820  0.13660  0.96887  Biso   1.000  H
  C25      1.0000 0.53750  0.40470  0.15590  Biso   1.000  C
  C26      1.0000 0.59530  0.13280  0.48923  Biso   1.000  C
  C27      1.0000 0.86720  0.46250  0.82257  Biso   1.000  C
  C28      1.0000 0.46250  0.59530  0.65590  Biso   1.000  C
  C29      1.0000 0.40470  0.86720  0.98923  Biso   1.000  C
  C30      1.0000 0.13280  0.53750  0.32257  Biso   1.000  C
  C31      1.0000 0.40470  0.53750  0.17743  Biso   1.000  C
  C32      1.0000 0.13280  0.59530  0.84410  Biso   1.000  C
  C33      1.0000 0.46250  0.86720  0.51077  Biso   1.000  C
  C34      1.0000 0.59530  0.46250  0.67743  Biso   1.000  C
  C35      1.0000 0.86720  0.40470  0.34410  Biso   1.000  C
  C36      1.0000 0.53750  0.13280  0.01077  Biso   1.000  C
  C37      1.0000 0.54320  0.41000  0.11820  Biso   1.000  C
  C38      1.0000 0.59000  0.13320  0.45153  Biso   1.000  C
  C39      1.0000 0.86680  0.45680  0.78487  Biso   1.000  C
  C40      1.0000 0.45680  0.59000  0.61820  Biso   1.000  C
  C41      1.0000 0.41000  0.86680  0.95153  Biso   1.000  C
  C42      1.0000 0.13320  0.54320  0.28487  Biso   1.000  C
  C43      1.0000 0.41000  0.54320  0.21513  Biso   1.000  C
  C44      1.0000 0.13320  0.59000  0.88180  Biso   1.000  C
  C45      1.0000 0.45680  0.86680  0.54847  Biso   1.000  C
  C46      1.0000 0.59000  0.45680  0.71513  Biso   1.000  C
  C47      1.0000 0.86680  0.41000  0.38180  Biso   1.000  C
  C48      1.0000 0.54320  0.13320  0.04847  Biso   1.000  C
  H25      1.0000 0.59370  0.46320  0.10700  Biso   1.000  H
  H26      1.0000 0.53680  0.13050  0.44033  Biso   1.000  H
  H27      1.0000 0.86950  0.40630  0.77367  Biso   1.000  H
  H28      1.0000 0.40630  0.53680  0.60700  Biso   1.000  H
  H29      1.0000 0.46320  0.86950  0.94033  Biso   1.000  H
  H30      1.0000 0.13050  0.59370  0.27367  Biso   1.000  H
  H31      1.0000 0.46320  0.59370  0.22633  Biso   1.000  H
  H32      1.0000 0.13050  0.53680  0.89300  Biso   1.000  H
  H33      1.0000 0.40630  0.86950  0.55967  Biso   1.000  H
  H34      1.0000 0.53680  0.40630  0.72633  Biso   1.000  H
  H35      1.0000 0.86950  0.46320  0.39300  Biso   1.000  H
  H36      1.0000 0.59370  0.13050  0.05967  Biso   1.000  H
  C49      1.0000 0.47340  0.33570  0.09730  Biso   1.000  C
  C50      1.0000 0.66430  0.13770  0.43063  Biso   1.000  C
  C51      1.0000 0.86230  0.52660  0.76397  Biso   1.000  C
  C52      1.0000 0.52660  0.66430  0.59730  Biso   1.000  C
  C53      1.0000 0.33570  0.86230  0.93063  Biso   1.000  C
  C54      1.0000 0.13770  0.47340  0.26397  Biso   1.000  C
  C55      1.0000 0.33570  0.47340  0.23603  Biso   1.000  C
  C56      1.0000 0.13770  0.66430  0.90270  Biso   1.000  C
  C57      1.0000 0.52660  0.86230  0.56937  Biso   1.000  C
  C58      1.0000 0.66430  0.52660  0.73603  Biso   1.000  C
  C59      1.0000 0.86230  0.33570  0.40270  Biso   1.000  C
  C60      1.0000 0.47340  0.13770  0.06937  Biso   1.000  C
  H37      1.0000 0.47720  0.33930  0.07210  Biso   1.000  H
  H38      1.0000 0.66070  0.13790  0.40543  Biso   1.000  H
  H39      1.0000 0.86210  0.52280  0.73877  Biso   1.000  H
  H40      1.0000 0.52280  0.66070  0.57210  Biso   1.000  H
  H41      1.0000 0.33930  0.86210  0.90543  Biso   1.000  H
  H42      1.0000 0.13790  0.47720  0.23877  Biso   1.000  H
  H43      1.0000 0.33930  0.47720  0.26123  Biso   1.000  H
  H44      1.0000 0.13790  0.66070  0.92790  Biso   1.000  H
  H45      1.0000 0.52280  0.86210  0.59457  Biso   1.000  H
  H46      1.0000 0.66070  0.52280  0.76123  Biso   1.000  H
  H47      1.0000 0.86210  0.33930  0.42790  Biso   1.000  H
  H48      1.0000 0.47720  0.13790  0.09457  Biso   1.000  H
  N13      1.0000 0.75570  0.62740  0.21950  Biso   1.000  N
  N14      1.0000 0.37260  0.12830  0.55283  Biso   1.000  N
  N15      1.0000 0.87170  0.24430  0.88617  Biso   1.000  N
  N16      1.0000 0.24430  0.37260  0.71950  Biso   1.000  N
  N17      1.0000 0.62740  0.87170  0.05283  Biso   1.000  N
  N18      1.0000 0.12830  0.75570  0.38617  Biso   1.000  N
  N19      1.0000 0.62740  0.75570  0.11383  Biso   1.000  N
  N20      1.0000 0.12830  0.37260  0.78050  Biso   1.000  N
  N21      1.0000 0.24430  0.87170  0.44717  Biso   1.000  N
  N22      1.0000 0.37260  0.24430  0.61383  Biso   1.000  N
  N23      1.0000 0.87170  0.62740  0.28050  Biso   1.000  N
  N24      1.0000 0.75570  0.12830  0.94717  Biso   1.000  N
  C61      1.0000 0.76290  0.63440  0.18190  Biso   1.000  C
  C62      1.0000 0.36560  0.12850  0.51523  Biso   1.000  C
  C63      1.0000 0.87150  0.23710  0.84857  Biso   1.000  C
  C64      1.0000 0.23710  0.36560  0.68190  Biso   1.000  C
  C65      1.0000 0.63440  0.87150  0.01523  Biso   1.000  C
  C66      1.0000 0.12850  0.76290  0.34857  Biso   1.000  C
  C67      1.0000 0.63440  0.76290  0.15143  Biso   1.000  C
  C68      1.0000 0.12850  0.36560  0.81810  Biso   1.000  C
  C69      1.0000 0.23710  0.87150  0.48477  Biso   1.000  C
  C70      1.0000 0.36560  0.23710  0.65143  Biso   1.000  C
  C71      1.0000 0.87150  0.63440  0.31810  Biso   1.000  C
  C72      1.0000 0.76290  0.12850  0.98477  Biso   1.000  C
  H49      1.0000 0.81520  0.68690  0.17110  Biso   1.000  H
  H50      1.0000 0.31310  0.12830  0.50443  Biso   1.000  H
  H51      1.0000 0.87170  0.18480  0.83777  Biso   1.000  H
  H52      1.0000 0.18480  0.31310  0.67110  Biso   1.000  H
  H53      1.0000 0.68690  0.87170  0.00443  Biso   1.000  H
  H54      1.0000 0.12830  0.81520  0.33777  Biso   1.000  H
  H55      1.0000 0.68690  0.81520  0.16223  Biso   1.000  H
  H56      1.0000 0.12830  0.31310  0.82890  Biso   1.000  H
  H57      1.0000 0.18480  0.87170  0.49557  Biso   1.000  H
  H58      1.0000 0.31310  0.18480  0.66223  Biso   1.000  H
  H59      1.0000 0.87170  0.68690  0.32890  Biso   1.000  H
  H60      1.0000 0.81520  0.12830  0.99557  Biso   1.000  H
  C73      1.0000 0.69190  0.56310  0.16040  Biso   1.000  C
  C74      1.0000 0.43690  0.12880  0.49373  Biso   1.000  C
  C75      1.0000 0.87120  0.30810  0.82707  Biso   1.000  C
  C76      1.0000 0.30810  0.43690  0.66040  Biso   1.000  C
  C77      1.0000 0.56310  0.87120  0.99373  Biso   1.000  C
  C78      1.0000 0.12880  0.69190  0.32707  Biso   1.000  C
  C79      1.0000 0.56310  0.69190  0.17293  Biso   1.000  C
  C80      1.0000 0.12880  0.43690  0.83960  Biso   1.000  C
  C81      1.0000 0.30810  0.87120  0.50627  Biso   1.000  C
  C82      1.0000 0.43690  0.30810  0.67293  Biso   1.000  C
  C83      1.0000 0.87120  0.56310  0.33960  Biso   1.000  C
  C84      1.0000 0.69190  0.12880  0.00627  Biso   1.000  C
  H61      1.0000 0.69670  0.56780  0.13520  Biso   1.000  H
  H62      1.0000 0.43220  0.12890  0.46853  Biso   1.000  H
  H63      1.0000 0.87110  0.30330  0.80187  Biso   1.000  H
  H64      1.0000 0.30330  0.43220  0.63520  Biso   1.000  H
  H65      1.0000 0.56780  0.87110  0.96853  Biso   1.000  H
  H66      1.0000 0.12890  0.69670  0.30187  Biso   1.000  H
  H67      1.0000 0.56780  0.69670  0.19813  Biso   1.000  H
  H68      1.0000 0.12890  0.43220  0.86480  Biso   1.000  H
  H69      1.0000 0.30330  0.87110  0.53147  Biso   1.000  H
  H70      1.0000 0.43220  0.30330  0.69813  Biso   1.000  H
  H71      1.0000 0.87110  0.56780  0.36480  Biso   1.000  H
  H72      1.0000 0.69670  0.12890  0.03147  Biso   1.000  H
  C85      1.0000 0.61360  0.48470  0.17650  Biso   1.000  C
  C86      1.0000 0.51530  0.12890  0.50983  Biso   1.000  C
  C87      1.0000 0.87110  0.38640  0.84317  Biso   1.000  C
  C88      1.0000 0.38640  0.51530  0.67650  Biso   1.000  C
  C89      1.0000 0.48470  0.87110  0.00983  Biso   1.000  C
  C90      1.0000 0.12890  0.61360  0.34317  Biso   1.000  C
  C91      1.0000 0.48470  0.61360  0.15683  Biso   1.000  C
  C92      1.0000 0.12890  0.51530  0.82350  Biso   1.000  C
  C93      1.0000 0.38640  0.87110  0.49017  Biso   1.000  C
  C94      1.0000 0.51530  0.38640  0.65683  Biso   1.000  C
  C95      1.0000 0.87110  0.48470  0.32350  Biso   1.000  C
  C96      1.0000 0.61360  0.12890  0.99017  Biso   1.000  C
  C97      1.0000 0.60640  0.47760  0.21410  Biso   1.000  C
  C98      1.0000 0.52240  0.12880  0.54743  Biso   1.000  C
  C99      1.0000 0.87120  0.39360  0.88077  Biso   1.000  C
  C100     1.0000 0.39360  0.52240  0.71410  Biso   1.000  C
  C101     1.0000 0.47760  0.87120  0.04743  Biso   1.000  C
  C102     1.0000 0.12880  0.60640  0.38077  Biso   1.000  C
  C103     1.0000 0.47760  0.60640  0.11923  Biso   1.000  C
  C104     1.0000 0.12880  0.52240  0.78590  Biso   1.000  C
  C105     1.0000 0.39360  0.87120  0.45257  Biso   1.000  C
  C106     1.0000 0.52240  0.39360  0.61923  Biso   1.000  C
  C107     1.0000 0.87120  0.47760  0.28590  Biso   1.000  C
  C108     1.0000 0.60640  0.12880  0.95257  Biso   1.000  C
  H73      1.0000 0.55410  0.42520  0.22490  Biso   1.000  H
  H74      1.0000 0.57480  0.12890  0.55823  Biso   1.000  H
  H75      1.0000 0.87110  0.44590  0.89157  Biso   1.000  H
  H76      1.0000 0.44590  0.57480  0.72490  Biso   1.000  H
  H77      1.0000 0.42520  0.87110  0.05823  Biso   1.000  H
  H78      1.0000 0.12890  0.55410  0.39157  Biso   1.000  H
  H79      1.0000 0.42520  0.55410  0.10843  Biso   1.000  H
  H80      1.0000 0.12890  0.57480  0.77510  Biso   1.000  H
  H81      1.0000 0.44590  0.87110  0.44177  Biso   1.000  H
  H82      1.0000 0.57480  0.44590  0.60843  Biso   1.000  H
  H83      1.0000 0.87110  0.42520  0.27510  Biso   1.000  H
  H84      1.0000 0.55410  0.12890  0.94177  Biso   1.000  H
  C109     1.0000 0.67750  0.54900  0.23560  Biso   1.000  C
  C110     1.0000 0.45100  0.12850  0.56893  Biso   1.000  C
  C111     1.0000 0.87150  0.32250  0.90227  Biso   1.000  C
  C112     1.0000 0.32250  0.45100  0.73560  Biso   1.000  C
  C113     1.0000 0.54900  0.87150  0.06893  Biso   1.000  C
  C114     1.0000 0.12850  0.67750  0.40227  Biso   1.000  C
  C115     1.0000 0.54900  0.67750  0.09773  Biso   1.000  C
  C116     1.0000 0.12850  0.45100  0.76440  Biso   1.000  C
  C117     1.0000 0.32250  0.87150  0.43107  Biso   1.000  C
  C118     1.0000 0.45100  0.32250  0.59773  Biso   1.000  C
  C119     1.0000 0.87150  0.54900  0.26440  Biso   1.000  C
  C120     1.0000 0.67750  0.12850  0.93107  Biso   1.000  C
  H85      1.0000 0.67260  0.54420  0.26070  Biso   1.000  H
  H86      1.0000 0.45580  0.12840  0.59403  Biso   1.000  H
  H87      1.0000 0.87160  0.32740  0.92737  Biso   1.000  H
  H88      1.0000 0.32740  0.45580  0.76070  Biso   1.000  H
  H89      1.0000 0.54420  0.87160  0.09403  Biso   1.000  H
  H90      1.0000 0.12840  0.67260  0.42737  Biso   1.000  H
  H91      1.0000 0.54420  0.67260  0.07263  Biso   1.000  H
  H92      1.0000 0.12840  0.45580  0.73930  Biso   1.000  H
  H93      1.0000 0.32740  0.87160  0.40597  Biso   1.000  H
  H94      1.0000 0.45580  0.32740  0.57263  Biso   1.000  H
  H95      1.0000 0.87160  0.54420  0.23930  Biso   1.000  H
  H96      1.0000 0.67260  0.12840  0.90597  Biso   1.000  H
  C121     1.0000 0.96620  0.86440  0.12810  Biso   1.000  C
  C122     1.0000 0.13560  0.10180  0.46143  Biso   1.000  C
  C123     1.0000 0.89820  0.03380  0.79477  Biso   1.000  C
  C124     1.0000 0.03380  0.13560  0.62810  Biso   1.000  C
  C125     1.0000 0.86440  0.89820  0.96143  Biso   1.000  C
  C126     1.0000 0.10180  0.96620  0.29477  Biso   1.000  C
  C127     1.0000 0.86440  0.96620  0.20523  Biso   1.000  C
  C128     1.0000 0.10180  0.13560  0.87190  Biso   1.000  C
  C129     1.0000 0.03380  0.89820  0.53857  Biso   1.000  C
  C130     1.0000 0.13560  0.03380  0.70523  Biso   1.000  C
  C131     1.0000 0.89820  0.86440  0.37190  Biso   1.000  C
  C132     1.0000 0.96620  0.10180  0.03857  Biso   1.000  C
  H97      1.0000 0.95200  0.86650  0.15330  Biso   1.000  H
  H98      1.0000 0.13350  0.08550  0.48663  Biso   1.000  H
  H99      1.0000 0.91450  0.04800  0.81997  Biso   1.000  H
  H100     1.0000 0.04800  0.13350  0.65330  Biso   1.000  H
  H101     1.0000 0.86650  0.91450  0.98663  Biso   1.000  H
  H102     1.0000 0.08550  0.95200  0.31997  Biso   1.000  H
  H103     1.0000 0.86650  0.95200  0.18003  Biso   1.000  H
  H104     1.0000 0.08550  0.13350  0.84670  Biso   1.000  H
  H105     1.0000 0.04800  0.91450  0.51337  Biso   1.000  H
  H106     1.0000 0.13350  0.04800  0.68003  Biso   1.000  H
  H107     1.0000 0.91450  0.86650  0.34670  Biso   1.000  H
  H108     1.0000 0.95200  0.08550  0.01337  Biso   1.000  H
  H109     1.0000 0.03360  0.90670  0.12390  Biso   1.000  H
  H110     1.0000 0.09330  0.12690  0.45723  Biso   1.000  H
  H111     1.0000 0.87310  0.96640  0.79057  Biso   1.000  H
  H112     1.0000 0.96640  0.09330  0.62390  Biso   1.000  H
  H113     1.0000 0.90670  0.87310  0.95723  Biso   1.000  H
  H114     1.0000 0.12690  0.03360  0.29057  Biso   1.000  H
  H115     1.0000 0.90670  0.03360  0.20943  Biso   1.000  H
  H116     1.0000 0.12690  0.09330  0.87610  Biso   1.000  H
  H117     1.0000 0.96640  0.87310  0.54277  Biso   1.000  H
  H118     1.0000 0.09330  0.96640  0.70943  Biso   1.000  H
  H119     1.0000 0.87310  0.90670  0.37610  Biso   1.000  H
  H120     1.0000 0.03360  0.12690  0.04277  Biso   1.000  H
  H121     1.0000 0.94930  0.79990  0.12160  Biso   1.000  H
  H122     1.0000 0.20010  0.14940  0.45493  Biso   1.000  H
  H123     1.0000 0.85060  0.05070  0.78827  Biso   1.000  H
  H124     1.0000 0.05070  0.20010  0.62160  Biso   1.000  H
  H125     1.0000 0.79990  0.85060  0.95493  Biso   1.000  H
  H126     1.0000 0.14940  0.94930  0.28827  Biso   1.000  H
  H127     1.0000 0.79990  0.94930  0.21173  Biso   1.000  H
  H128     1.0000 0.14940  0.20010  0.87840  Biso   1.000  H
  H129     1.0000 0.05070  0.85060  0.54507  Biso   1.000  H
  H130     1.0000 0.20010  0.05070  0.71173  Biso   1.000  H
  H131     1.0000 0.85060  0.79990  0.37840  Biso   1.000  H
  H132     1.0000 0.94930  0.14940  0.04507  Biso   1.000  H
  C133     1.0000 0.91010  0.89530  0.10570  Biso   1.000  C
  C134     1.0000 0.10470  0.01480  0.43903  Biso   1.000  C
  C135     1.0000 0.98520  0.08990  0.77237  Biso   1.000  C
  C136     1.0000 0.08990  0.10470  0.60570  Biso   1.000  C
  C137     1.0000 0.89530  0.98520  0.93903  Biso   1.000  C
  C138     1.0000 0.01480  0.91010  0.27237  Biso   1.000  C
  C139     1.0000 0.89530  0.91010  0.22763  Biso   1.000  C
  C140     1.0000 0.01480  0.10470  0.89430  Biso   1.000  C
  C141     1.0000 0.08990  0.98520  0.56097  Biso   1.000  C
  C142     1.0000 0.10470  0.08990  0.72763  Biso   1.000  C
  C143     1.0000 0.98520  0.89530  0.39430  Biso   1.000  C
  C144     1.0000 0.91010  0.01480  0.06097  Biso   1.000  C
  C145     1.0000 0.95480  0.97740  0.08330  Biso   1.000  C
  C146     1.0000 0.02260  0.97740  0.41663  Biso   1.000  C
  C147     1.0000 0.02260  0.04520  0.74997  Biso   1.000  C
  C148     1.0000 0.04520  0.02260  0.58330  Biso   1.000  C
  C149     1.0000 0.97740  0.02260  0.91663  Biso   1.000  C
  C150     1.0000 0.97740  0.95480  0.24997  Biso   1.000  C
  C151     1.0000 0.06960  0.03480  0.08330  Biso   1.000  C
  C152     1.0000 0.96520  0.03480  0.41663  Biso   1.000  C
  C153     1.0000 0.96520  0.93040  0.74997  Biso   1.000  C
  C154     1.0000 0.93040  0.96520  0.58330  Biso   1.000  C
  C155     1.0000 0.03480  0.96520  0.91663  Biso   1.000  C
  C156     1.0000 0.03480  0.06960  0.24997  Biso   1.000  C
  C157     1.0000 0.11240  0.11530  0.10390  Biso   1.000  C
  C158     1.0000 0.88470  0.99710  0.43723  Biso   1.000  C
  C159     1.0000 0.00290  0.88760  0.77057  Biso   1.000  C
  C160     1.0000 0.88760  0.88470  0.60390  Biso   1.000  C
  C161     1.0000 0.11530  0.00290  0.93723  Biso   1.000  C
  C162     1.0000 0.99710  0.11240  0.27057  Biso   1.000  C
  C163     1.0000 0.11530  0.11240  0.22943  Biso   1.000  C
  C164     1.0000 0.99710  0.88470  0.89610  Biso   1.000  C
  C165     1.0000 0.88760  0.00290  0.56277  Biso   1.000  C
  C166     1.0000 0.88470  0.88760  0.72943  Biso   1.000  C
  C167     1.0000 0.00290  0.11530  0.39610  Biso   1.000  C
  C168     1.0000 0.11240  0.99710  0.06277  Biso   1.000  C
  C169     1.0000 0.05880  0.14910  0.12770  Biso   1.000  C
  C170     1.0000 0.85090  0.90970  0.46103  Biso   1.000  C
  C171     1.0000 0.09030  0.94120  0.79437  Biso   1.000  C
  C172     1.0000 0.94120  0.85090  0.62770  Biso   1.000  C
  C173     1.0000 0.14910  0.09030  0.96103  Biso   1.000  C
  C174     1.0000 0.90970  0.05880  0.29437  Biso   1.000  C
  C175     1.0000 0.14910  0.05880  0.20563  Biso   1.000  C
  C176     1.0000 0.90970  0.85090  0.87230  Biso   1.000  C
  C177     1.0000 0.94120  0.09030  0.53897  Biso   1.000  C
  C178     1.0000 0.85090  0.94120  0.70563  Biso   1.000  C
  C179     1.0000 0.09030  0.14910  0.37230  Biso   1.000  C
  C180     1.0000 0.05880  0.90970  0.03897  Biso   1.000  C
  H133     1.0000 0.00060  0.09450  0.13630  Biso   1.000  H
  H134     1.0000 0.90550  0.90610  0.46963  Biso   1.000  H
  H135     1.0000 0.09390  0.99940  0.80297  Biso   1.000  H
  H136     1.0000 0.99940  0.90550  0.63630  Biso   1.000  H
  H137     1.0000 0.09450  0.09390  0.96963  Biso   1.000  H
  H138     1.0000 0.90610  0.00060  0.30297  Biso   1.000  H
  H139     1.0000 0.09450  0.00060  0.19703  Biso   1.000  H
  H140     1.0000 0.90610  0.90550  0.86370  Biso   1.000  H
  H141     1.0000 0.99940  0.09390  0.53037  Biso   1.000  H
  H142     1.0000 0.90550  0.99940  0.69703  Biso   1.000  H
  H143     1.0000 0.09390  0.09450  0.36370  Biso   1.000  H
  H144     1.0000 0.00060  0.90610  0.03037  Biso   1.000  H
  H145     1.0000 0.04330  0.19040  0.11390  Biso   1.000  H
  H146     1.0000 0.80960  0.85290  0.44723  Biso   1.000  H
  H147     1.0000 0.14710  0.95670  0.78057  Biso   1.000  H
  H148     1.0000 0.95670  0.80960  0.61390  Biso   1.000  H
  H149     1.0000 0.19040  0.14710  0.94723  Biso   1.000  H
  H150     1.0000 0.85290  0.04330  0.28057  Biso   1.000  H
  H151     1.0000 0.19040  0.04330  0.21943  Biso   1.000  H
  H152     1.0000 0.85290  0.80960  0.88610  Biso   1.000  H
  H153     1.0000 0.95670  0.14710  0.55277  Biso   1.000  H
  H154     1.0000 0.80960  0.95670  0.71943  Biso   1.000  H
  H155     1.0000 0.14710  0.19040  0.38610  Biso   1.000  H
  H156     1.0000 0.04330  0.85290  0.05277  Biso   1.000  H
  H157     1.0000 0.09840  0.18400  0.14800  Biso   1.000  H
  H158     1.0000 0.81600  0.91440  0.48133  Biso   1.000  H
  H159     1.0000 0.08560  0.90160  0.81467  Biso   1.000  H
  H160     1.0000 0.90160  0.81600  0.64800  Biso   1.000  H
  H161     1.0000 0.18400  0.08560  0.98133  Biso   1.000  H
  H162     1.0000 0.91440  0.09840  0.31467  Biso   1.000  H
  H163     1.0000 0.18400  0.09840  0.18533  Biso   1.000  H
  H164     1.0000 0.91440  0.81600  0.85200  Biso   1.000  H
  H165     1.0000 0.90160  0.08560  0.51867  Biso   1.000  H
  H166     1.0000 0.81600  0.90160  0.68533  Biso   1.000  H
  H167     1.0000 0.08560  0.18400  0.35200  Biso   1.000  H
  H168     1.0000 0.09840  0.91440  0.01867  Biso   1.000  H
  N25      1.0000 0.27300  0.91400  0.11980  Biso   1.000  N
  N26      1.0000 0.08600  0.35900  0.45313  Biso   1.000  N
  N27      1.0000 0.64100  0.72700  0.78647  Biso   1.000  N
  N28      1.0000 0.72700  0.08600  0.61980  Biso   1.000  N
  N29      1.0000 0.91400  0.64100  0.95313  Biso   1.000  N
  N30      1.0000 0.35900  0.27300  0.28647  Biso   1.000  N
  N31      1.0000 0.91400  0.27300  0.21353  Biso   1.000  N
  N32      1.0000 0.35900  0.08600  0.88020  Biso   1.000  N
  N33      1.0000 0.72700  0.64100  0.54687  Biso   1.000  N
  N34      1.0000 0.08600  0.72700  0.71353  Biso   1.000  N
  N35      1.0000 0.64100  0.91400  0.38020  Biso   1.000  N
  N36      1.0000 0.27300  0.35900  0.04687  Biso   1.000  N
  O25      1.0000 0.30500  0.03500  0.12300  Biso   1.000  O
  O26      1.0000 0.96500  0.27000  0.45633  Biso   1.000  O
  O27      1.0000 0.73000  0.69500  0.78967  Biso   1.000  O
  O28      1.0000 0.69500  0.96500  0.62300  Biso   1.000  O
  O29      1.0000 0.03500  0.73000  0.95633  Biso   1.000  O
  O30      1.0000 0.27000  0.30500  0.28967  Biso   1.000  O
  O31      1.0000 0.03500  0.30500  0.21033  Biso   1.000  O
  O32      1.0000 0.27000  0.96500  0.87700  Biso   1.000  O
  O33      1.0000 0.69500  0.73000  0.54367  Biso   1.000  O
  O34      1.0000 0.96500  0.69500  0.71033  Biso   1.000  O
  O35      1.0000 0.73000  0.03500  0.37700  Biso   1.000  O
  O36      1.0000 0.30500  0.27000  0.04367  Biso   1.000  O
  O37      1.0000 0.17800  0.83600  0.09160  Biso   1.000  O
  O38      1.0000 0.16400  0.34200  0.42493  Biso   1.000  O
  O39      1.0000 0.65800  0.82200  0.75827  Biso   1.000  O
  O40      1.0000 0.82200  0.16400  0.59160  Biso   1.000  O
  O41      1.0000 0.83600  0.65800  0.92493  Biso   1.000  O
  O42      1.0000 0.34200  0.17800  0.25827  Biso   1.000  O
  O43      1.0000 0.83600  0.17800  0.24173  Biso   1.000  O
  O44      1.0000 0.34200  0.16400  0.90840  Biso   1.000  O
  O45      1.0000 0.82200  0.65800  0.57507  Biso   1.000  O
  O46      1.0000 0.16400  0.82200  0.74173  Biso   1.000  O
  O47      1.0000 0.65800  0.83600  0.40840  Biso   1.000  O
  O48      1.0000 0.17800  0.34200  0.07507  Biso   1.000  O
  O49      1.0000 0.33700  0.87100  0.14500  Biso   1.000  O
  O50      1.0000 0.12900  0.46600  0.47833  Biso   1.000  O
  O51      1.0000 0.53400  0.66300  0.81167  Biso   1.000  O
  O52      1.0000 0.66300  0.12900  0.64500  Biso   1.000  O
  O53      1.0000 0.87100  0.53400  0.97833  Biso   1.000  O
  O54      1.0000 0.46600  0.33700  0.31167  Biso   1.000  O
  O55      1.0000 0.87100  0.33700  0.18833  Biso   1.000  O
  O56      1.0000 0.46600  0.12900  0.85500  Biso   1.000  O
  O57      1.0000 0.66300  0.53400  0.52167  Biso   1.000  O
  O58      1.0000 0.12900  0.66300  0.68833  Biso   1.000  O
  O59      1.0000 0.53400  0.87100  0.35500  Biso   1.000  O
  O60      1.0000 0.33700  0.46600  0.02167  Biso   1.000  O
  N37      1.0000 0.68400  0.04300  0.14730  Biso   1.000  N
  N38      1.0000 0.95700  0.64100  0.48063  Biso   1.000  N
  N39      1.0000 0.35900  0.31600  0.81397  Biso   1.000  N
  N40      1.0000 0.31600  0.95700  0.64730  Biso   1.000  N
  N41      1.0000 0.04300  0.35900  0.98063  Biso   1.000  N
  N42      1.0000 0.64100  0.68400  0.31397  Biso   1.000  N
  N43      1.0000 0.04300  0.68400  0.18603  Biso   1.000  N
  N44      1.0000 0.64100  0.95700  0.85270  Biso   1.000  N
  N45      1.0000 0.31600  0.35900  0.51937  Biso   1.000  N
  N46      1.0000 0.95700  0.31600  0.68603  Biso   1.000  N
  N47      1.0000 0.35900  0.04300  0.35270  Biso   1.000  N
  N48      1.0000 0.68400  0.64100  0.01937  Biso   1.000  N
  O61      1.0000 0.73360  0.98310  0.12450  Biso   1.000  O
  O62      1.0000 0.01690  0.75050  0.45783  Biso   1.000  O
  O63      1.0000 0.24950  0.26640  0.79117  Biso   1.000  O
  O64      1.0000 0.26640  0.01690  0.62450  Biso   1.000  O
  O65      1.0000 0.98310  0.24950  0.95783  Biso   1.000  O
  O66      1.0000 0.75050  0.73360  0.29117  Biso   1.000  O
  O67      1.0000 0.98310  0.73360  0.20883  Biso   1.000  O
  O68      1.0000 0.75050  0.01690  0.87550  Biso   1.000  O
  O69      1.0000 0.26640  0.24950  0.54217  Biso   1.000  O
  O70      1.0000 0.01690  0.26640  0.70883  Biso   1.000  O
  O71      1.0000 0.24950  0.98310  0.37550  Biso   1.000  O
  O72      1.0000 0.73360  0.75050  0.04217  Biso   1.000  O
  O73      1.0000 0.75800  0.15500  0.16800  Biso   1.000  O
  O74      1.0000 0.84500  0.60300  0.50133  Biso   1.000  O
  O75      1.0000 0.39700  0.24200  0.83467  Biso   1.000  O
  O76      1.0000 0.24200  0.84500  0.66800  Biso   1.000  O
  O77      1.0000 0.15500  0.39700  0.00133  Biso   1.000  O
  O78      1.0000 0.60300  0.75800  0.33467  Biso   1.000  O
  O79      1.0000 0.15500  0.75800  0.16533  Biso   1.000  O
  O80      1.0000 0.60300  0.84500  0.83200  Biso   1.000  O
  O81      1.0000 0.24200  0.39700  0.49867  Biso   1.000  O
  O82      1.0000 0.84500  0.24200  0.66533  Biso   1.000  O
  O83      1.0000 0.39700  0.15500  0.33200  Biso   1.000  O
  O84      1.0000 0.75800  0.60300  0.99867  Biso   1.000  O
  O85      1.0000 0.55800  0.99200  0.14900  Biso   1.000  O
  O86      1.0000 0.00800  0.56600  0.48233  Biso   1.000  O
  O87      1.0000 0.43400  0.44200  0.81567  Biso   1.000  O
  O88      1.0000 0.44200  0.00800  0.64900  Biso   1.000  O
  O89      1.0000 0.99200  0.43400  0.98233  Biso   1.000  O
  O90      1.0000 0.56600  0.55800  0.31567  Biso   1.000  O
  O91      1.0000 0.99200  0.55800  0.18433  Biso   1.000  O
  O92      1.0000 0.56600  0.00800  0.85100  Biso   1.000  O
  O93      1.0000 0.44200  0.43400  0.51767  Biso   1.000  O
  O94      1.0000 0.00800  0.44200  0.68433  Biso   1.000  O
  O95      1.0000 0.43400  0.99200  0.35100  Biso   1.000  O
  O96      1.0000 0.55800  0.56600  0.01767  Biso   1.000  O
  O97      1.0000 0.12400  0.59100  0.08300  Biso   1.000  O
  O98      1.0000 0.40900  0.53300  0.41633  Biso   1.000  O
  O99      1.0000 0.46700  0.87600  0.74967  Biso   1.000  O
  O100     1.0000 0.87600  0.40900  0.58300  Biso   1.000  O
  O101     1.0000 0.59100  0.46700  0.91633  Biso   1.000  O
  O102     1.0000 0.53300  0.12400  0.24967  Biso   1.000  O
  O103     1.0000 0.59100  0.12400  0.25033  Biso   1.000  O
  O104     1.0000 0.53300  0.40900  0.91700  Biso   1.000  O
  O105     1.0000 0.87600  0.46700  0.58367  Biso   1.000  O
  O106     1.0000 0.40900  0.87600  0.75033  Biso   1.000  O
  O107     1.0000 0.46700  0.59100  0.41700  Biso   1.000  O
  O108     1.0000 0.12400  0.53300  0.08367  Biso   1.000  O
  O109     1.0000 0.93200  0.48000  0.03600  Biso   1.000  O
  O110     1.0000 0.52000  0.45200  0.36933  Biso   1.000  O
  O111     1.0000 0.54800  0.06800  0.70267  Biso   1.000  O
  O112     1.0000 0.06800  0.52000  0.53600  Biso   1.000  O
  O113     1.0000 0.48000  0.54800  0.86933  Biso   1.000  O
  O114     1.0000 0.45200  0.93200  0.20267  Biso   1.000  O
  O115     1.0000 0.48000  0.93200  0.29733  Biso   1.000  O
  O116     1.0000 0.45200  0.52000  0.96400  Biso   1.000  O
  O117     1.0000 0.06800  0.54800  0.63067  Biso   1.000  O
  O118     1.0000 0.52000  0.06800  0.79733  Biso   1.000  O
  O119     1.0000 0.54800  0.48000  0.46400  Biso   1.000  O
  O120     1.0000 0.93200  0.45200  0.13067  Biso   1.000  O
  O121     1.0000 0.14400  0.57900  0.06700  Biso   1.000  O
  O122     1.0000 0.42100  0.56500  0.40033  Biso   1.000  O
  O123     1.0000 0.43500  0.85600  0.73367  Biso   1.000  O
  O124     1.0000 0.85600  0.42100  0.56700  Biso   1.000  O
  O125     1.0000 0.57900  0.43500  0.90033  Biso   1.000  O
  O126     1.0000 0.56500  0.14400  0.23367  Biso   1.000  O
  O127     1.0000 0.57900  0.14400  0.26633  Biso   1.000  O
  O128     1.0000 0.56500  0.42100  0.93300  Biso   1.000  O
  O129     1.0000 0.85600  0.43500  0.59967  Biso   1.000  O
  O130     1.0000 0.42100  0.85600  0.76633  Biso   1.000  O
  O131     1.0000 0.43500  0.57900  0.43300  Biso   1.000  O
  O132     1.0000 0.14400  0.56500  0.09967  Biso   1.000  O
  O133     1.0000 0.71000  0.35500  0.08330  Biso   1.000  O
  O134     1.0000 0.64500  0.35500  0.41663  Biso   1.000  O
  O135     1.0000 0.64500  0.29000  0.74997  Biso   1.000  O
  O136     1.0000 0.29000  0.64500  0.58330  Biso   1.000  O
  O137     1.0000 0.35500  0.64500  0.91663  Biso   1.000  O
  O138     1.0000 0.35500  0.71000  0.24997  Biso   1.000  O
  O139     1.0000 0.60600  0.71000  0.26640  Biso   1.000  O
  O140     1.0000 0.29000  0.89600  0.59973  Biso   1.000  O
  O141     1.0000 0.10400  0.39400  0.93307  Biso   1.000  O
  O142     1.0000 0.39400  0.29000  0.76640  Biso   1.000  O
  O143     1.0000 0.71000  0.10400  0.09973  Biso   1.000  O
  O144     1.0000 0.89600  0.60600  0.43307  Biso   1.000  O
  O145     1.0000 0.71000  0.60600  0.06693  Biso   1.000  O
  O146     1.0000 0.89600  0.29000  0.73360  Biso   1.000  O
  O147     1.0000 0.39400  0.10400  0.40027  Biso   1.000  O
  O148     1.0000 0.29000  0.39400  0.56693  Biso   1.000  O
  O149     1.0000 0.10400  0.71000  0.23360  Biso   1.000  O
  O150     1.0000 0.60600  0.89600  0.90027  Biso   1.000  O
  O151     1.0000 0.32800  0.73700  0.12800  Biso   1.000  O
  O152     1.0000 0.26300  0.59100  0.46133  Biso   1.000  O
  O153     1.0000 0.40900  0.67200  0.79467  Biso   1.000  O
  O154     1.0000 0.67200  0.26300  0.62800  Biso   1.000  O
  O155     1.0000 0.73700  0.40900  0.96133  Biso   1.000  O
  O156     1.0000 0.59100  0.32800  0.29467  Biso   1.000  O
  O157     1.0000 0.73700  0.32800  0.20533  Biso   1.000  O
  O158     1.0000 0.59100  0.26300  0.87200  Biso   1.000  O
  O159     1.0000 0.67200  0.40900  0.53867  Biso   1.000  O
  O160     1.0000 0.26300  0.67200  0.70533  Biso   1.000  O
  O161     1.0000 0.40900  0.73700  0.37200  Biso   1.000  O
  O162     1.0000 0.32800  0.59100  0.03867  Biso   1.000  O
  O163     1.0000 0.13600  0.67200  0.05800  Biso   1.000  O
  O164     1.0000 0.32800  0.46400  0.39133  Biso   1.000  O
  O165     1.0000 0.53600  0.86400  0.72467  Biso   1.000  O
  O166     1.0000 0.86400  0.32800  0.55800  Biso   1.000  O
  O167     1.0000 0.67200  0.53600  0.89133  Biso   1.000  O
  O168     1.0000 0.46400  0.13600  0.22467  Biso   1.000  O
  O169     1.0000 0.67200  0.13600  0.27533  Biso   1.000  O
  O170     1.0000 0.46400  0.32800  0.94200  Biso   1.000  O
  O171     1.0000 0.86400  0.53600  0.60867  Biso   1.000  O
  O172     1.0000 0.32800  0.86400  0.77533  Biso   1.000  O
  O173     1.0000 0.53600  0.67200  0.44200  Biso   1.000  O
  O174     1.0000 0.13600  0.46400  0.10867  Biso   1.000  O
  O175     1.0000 0.07400  0.72300  0.03860  Biso   1.000  O
  O176     1.0000 0.27700  0.35100  0.37193  Biso   1.000  O
  O177     1.0000 0.64900  0.92600  0.70527  Biso   1.000  O
  O178     1.0000 0.92600  0.27700  0.53860  Biso   1.000  O
  O179     1.0000 0.72300  0.64900  0.87193  Biso   1.000  O
  O180     1.0000 0.35100  0.07400  0.20527  Biso   1.000  O
  O181     1.0000 0.72300  0.07400  0.29473  Biso   1.000  O
  O182     1.0000 0.35100  0.27700  0.96140  Biso   1.000  O
  O183     1.0000 0.92600  0.64900  0.62807  Biso   1.000  O
  O184     1.0000 0.27700  0.92600  0.79473  Biso   1.000  O
  O185     1.0000 0.64900  0.72300  0.46140  Biso   1.000  O
  O186     1.0000 0.07400  0.35100  0.12807  Biso   1.000  O
  O187     1.0000 0.03900  0.53000  0.06950  Biso   1.000  O
  O188     1.0000 0.47000  0.50900  0.40283  Biso   1.000  O
  O189     1.0000 0.49100  0.96100  0.73617  Biso   1.000  O
  O190     1.0000 0.96100  0.47000  0.56950  Biso   1.000  O
  O191     1.0000 0.53000  0.49100  0.90283  Biso   1.000  O
  O192     1.0000 0.50900  0.03900  0.23617  Biso   1.000  O
  O193     1.0000 0.53000  0.03900  0.26383  Biso   1.000  O
  O194     1.0000 0.50900  0.47000  0.93050  Biso   1.000  O
  O195     1.0000 0.96100  0.49100  0.59717  Biso   1.000  O
  O196     1.0000 0.47000  0.96100  0.76383  Biso   1.000  O
  O197     1.0000 0.49100  0.53000  0.43050  Biso   1.000  O
  O198     1.0000 0.03900  0.50900  0.09717  Biso   1.000  O
  O199     1.0000 0.95400  0.56100  0.06640  Biso   1.000  O
  O200     1.0000 0.43900  0.39300  0.39973  Biso   1.000  O
  O201     1.0000 0.60700  0.04600  0.73307  Biso   1.000  O
  O202     1.0000 0.04600  0.43900  0.56640  Biso   1.000  O
  O203     1.0000 0.56100  0.60700  0.89973  Biso   1.000  O
  O204     1.0000 0.39300  0.95400  0.23307  Biso   1.000  O
  O205     1.0000 0.56100  0.95400  0.26693  Biso   1.000  O
  O206     1.0000 0.39300  0.43900  0.93360  Biso   1.000  O
  O207     1.0000 0.04600  0.60700  0.60027  Biso   1.000  O
  O208     1.0000 0.43900  0.04600  0.76693  Biso   1.000  O
  O209     1.0000 0.60700  0.56100  0.43360  Biso   1.000  O
  O210     1.0000 0.95400  0.39300  0.10027  Biso   1.000  O
  O211     1.0000 0.90000  0.60400  0.08680  Biso   1.000  O
  O212     1.0000 0.39600  0.29600  0.42013  Biso   1.000  O
  O213     1.0000 0.70400  0.10000  0.75347  Biso   1.000  O
  O214     1.0000 0.10000  0.39600  0.58680  Biso   1.000  O
  O215     1.0000 0.60400  0.70400  0.92013  Biso   1.000  O
  O216     1.0000 0.29600  0.90000  0.25347  Biso   1.000  O
  O217     1.0000 0.60400  0.90000  0.24653  Biso   1.000  O
  O218     1.0000 0.29600  0.39600  0.91320  Biso   1.000  O
  O219     1.0000 0.10000  0.70400  0.57987  Biso   1.000  O
  O220     1.0000 0.39600  0.10000  0.74653  Biso   1.000  O
  O221     1.0000 0.70400  0.60400  0.41320  Biso   1.000  O
  O222     1.0000 0.90000  0.29600  0.07987  Biso   1.000  O
  O223     1.0000 0.17000  0.56400  0.95620  Biso   1.000  O
  O224     1.0000 0.43600  0.60600  0.28953  Biso   1.000  O
  O225     1.0000 0.39400  0.83000  0.62287  Biso   1.000  O
  O226     1.0000 0.83000  0.43600  0.45620  Biso   1.000  O
  O227     1.0000 0.56400  0.39400  0.78953  Biso   1.000  O
  O228     1.0000 0.60600  0.17000  0.12287  Biso   1.000  O
  O229     1.0000 0.56400  0.17000  0.37713  Biso   1.000  O
  O230     1.0000 0.60600  0.43600  0.04380  Biso   1.000  O
  O231     1.0000 0.83000  0.39400  0.71047  Biso   1.000  O
  O232     1.0000 0.43600  0.83000  0.87713  Biso   1.000  O
  O233     1.0000 0.39400  0.56400  0.54380  Biso   1.000  O
  O234     1.0000 0.17000  0.60600  0.21047  Biso   1.000  O
  O235     1.0000 0.22800  0.75100  0.08500  Biso   1.000  O
  O236     1.0000 0.24900  0.47700  0.41833  Biso   1.000  O
  O237     1.0000 0.52300  0.77200  0.75167  Biso   1.000  O
  O238     1.0000 0.77200  0.24900  0.58500  Biso   1.000  O
  O239     1.0000 0.75100  0.52300  0.91833  Biso   1.000  O
  O240     1.0000 0.47700  0.22800  0.25167  Biso   1.000  O
  O241     1.0000 0.75100  0.22800  0.24833  Biso   1.000  O
  O242     1.0000 0.47700  0.24900  0.91500  Biso   1.000  O
  O243     1.0000 0.77200  0.52300  0.58167  Biso   1.000  O
  O244     1.0000 0.24900  0.77200  0.74833  Biso   1.000  O
  O245     1.0000 0.52300  0.75100  0.41500  Biso   1.000  O
  O246     1.0000 0.22800  0.47700  0.08167  Biso   1.000  O
  O247     1.0000 0.35900  0.77900  0.16300  Biso   1.000  O
  O248     1.0000 0.22100  0.58000  0.49633  Biso   1.000  O
  O249     1.0000 0.42000  0.64100  0.82967  Biso   1.000  O
  O250     1.0000 0.64100  0.22100  0.66300  Biso   1.000  O
  O251     1.0000 0.77900  0.42000  0.99633  Biso   1.000  O
  O252     1.0000 0.58000  0.35900  0.32967  Biso   1.000  O
  O253     1.0000 0.77900  0.35900  0.17033  Biso   1.000  O
  O254     1.0000 0.58000  0.22100  0.83700  Biso   1.000  O
  O255     1.0000 0.64100  0.42000  0.50367  Biso   1.000  O
  O256     1.0000 0.22100  0.64100  0.67033  Biso   1.000  O
  O257     1.0000 0.42000  0.77900  0.33700  Biso   1.000  O
  O258     1.0000 0.35900  0.58000  0.00367  Biso   1.000  O
  O259     1.0000 0.24800  0.59700  0.97130  Biso   1.000  O
  O260     1.0000 0.40300  0.65100  0.30463  Biso   1.000  O
  O261     1.0000 0.34900  0.75200  0.63797  Biso   1.000  O
  O262     1.0000 0.75200  0.40300  0.47130  Biso   1.000  O
  O263     1.0000 0.59700  0.34900  0.80463  Biso   1.000  O
  O264     1.0000 0.65100  0.24800  0.13797  Biso   1.000  O
  O265     1.0000 0.59700  0.24800  0.36203  Biso   1.000  O
  O266     1.0000 0.65100  0.40300  0.02870  Biso   1.000  O
  O267     1.0000 0.75200  0.34900  0.69537  Biso   1.000  O
  O268     1.0000 0.40300  0.75200  0.86203  Biso   1.000  O
  O269     1.0000 0.34900  0.59700  0.52870  Biso   1.000  O
  O270     1.0000 0.24800  0.65100  0.19537  Biso   1.000  O
  O271     1.0000 0.74200  0.39200  0.05900  Biso   1.000  O
  O272     1.0000 0.60800  0.35000  0.39233  Biso   1.000  O
  O273     1.0000 0.65000  0.25800  0.72567  Biso   1.000  O
  O274     1.0000 0.25800  0.60800  0.55900  Biso   1.000  O
  O275     1.0000 0.39200  0.65000  0.89233  Biso   1.000  O
  O276     1.0000 0.35000  0.74200  0.22567  Biso   1.000  O
  O277     1.0000 0.39200  0.74200  0.27433  Biso   1.000  O
  O278     1.0000 0.35000  0.60800  0.94100  Biso   1.000  O
  O279     1.0000 0.25800  0.65000  0.60767  Biso   1.000  O
  O280     1.0000 0.60800  0.25800  0.77433  Biso   1.000  O
  O281     1.0000 0.65000  0.39200  0.44100  Biso   1.000  O
  O282     1.0000 0.74200  0.35000  0.10767  Biso   1.000  O
  O283     1.0000 0.23300  0.62100  0.11610  Biso   1.000  O
  O284     1.0000 0.37900  0.61200  0.44943  Biso   1.000  O
  O285     1.0000 0.38800  0.76700  0.78277  Biso   1.000  O
  O286     1.0000 0.76700  0.37900  0.61610  Biso   1.000  O
  O287     1.0000 0.62100  0.38800  0.94943  Biso   1.000  O
  O288     1.0000 0.61200  0.23300  0.28277  Biso   1.000  O
  O289     1.0000 0.62100  0.23300  0.21723  Biso   1.000  O
  O290     1.0000 0.61200  0.37900  0.88390  Biso   1.000  O
  O291     1.0000 0.76700  0.38800  0.55057  Biso   1.000  O
  O292     1.0000 0.37900  0.76700  0.71723  Biso   1.000  O
  O293     1.0000 0.38800  0.62100  0.38390  Biso   1.000  O
  O294     1.0000 0.23300  0.61200  0.05057  Biso   1.000  O
  O295     1.0000 0.84200  0.42300  0.06550  Biso   1.000  O
  O296     1.0000 0.57700  0.41900  0.39883  Biso   1.000  O
  O297     1.0000 0.58100  0.15800  0.73217  Biso   1.000  O
  O298     1.0000 0.15800  0.57700  0.56550  Biso   1.000  O
  O299     1.0000 0.42300  0.58100  0.89883  Biso   1.000  O
  O300     1.0000 0.41900  0.84200  0.23217  Biso   1.000  O
  O301     1.0000 0.42300  0.84200  0.26783  Biso   1.000  O
  O302     1.0000 0.41900  0.57700  0.93450  Biso   1.000  O
  O303     1.0000 0.15800  0.58100  0.60117  Biso   1.000  O
  O304     1.0000 0.57700  0.15800  0.76783  Biso   1.000  O
  O305     1.0000 0.58100  0.42300  0.43450  Biso   1.000  O
  O306     1.0000 0.84200  0.41900  0.10117  Biso   1.000  O
  O307     1.0000 0.05600  0.65800  0.02210  Biso   1.000  O
  O308     1.0000 0.34200  0.39800  0.35543  Biso   1.000  O
  O309     1.0000 0.60200  0.94400  0.68877  Biso   1.000  O
  O310     1.0000 0.94400  0.34200  0.52210  Biso   1.000  O
  O311     1.0000 0.65800  0.60200  0.85543  Biso   1.000  O
  O312     1.0000 0.39800  0.05600  0.18877  Biso   1.000  O
  O313     1.0000 0.65800  0.05600  0.31123  Biso   1.000  O
  O314     1.0000 0.39800  0.34200  0.97790  Biso   1.000  O
  O315     1.0000 0.94400  0.60200  0.64457  Biso   1.000  O
  O316     1.0000 0.34200  0.94400  0.81123  Biso   1.000  O
  O317     1.0000 0.60200  0.65800  0.47790  Biso   1.000  O
  O318     1.0000 0.05600  0.39800  0.14457  Biso   1.000  O
