data_image0
_cell_length_a       26.294
_cell_length_b       34.046
_cell_length_c       34.098
_cell_angle_alpha    90
_cell_angle_beta     90
_cell_angle_gamma    90

_symmetry_space_group_name_H-M    "P 1"
_symmetry_int_tables_number       1

loop_
  _symmetry_equiv_pos_as_xyz
  'x, y, z'

loop_
  _atom_site_label
  _atom_site_occupancy
  _atom_site_fract_x
  _atom_site_fract_y
  _atom_site_fract_z
  _atom_site_thermal_displace_type
  _atom_site_B_iso_or_equiv
  _atom_site_type_symbol
  Cu1      1.0000 0.00000  0.50000  0.50000  Biso   1.000  Cu
  Cu2      1.0000 0.50000  0.00000  0.00000  Biso   1.000  Cu
  Cu3      1.0000 0.70116  0.73993  0.74685  Biso   1.000  Cu
  Cu4      1.0000 0.29884  0.26007  0.74685  Biso   1.000  Cu
  Cu5      1.0000 0.29884  0.73993  0.25315  Biso   1.000  Cu
  Cu6      1.0000 0.70116  0.26007  0.25315  Biso   1.000  Cu
  Cu7      1.0000 0.20116  0.23993  0.24685  Biso   1.000  Cu
  Cu8      1.0000 0.79884  0.76007  0.24685  Biso   1.000  Cu
  Cu9      1.0000 0.79884  0.23993  0.75315  Biso   1.000  Cu
  Cu10     1.0000 0.20116  0.76007  0.75315  Biso   1.000  Cu
  Cu11     1.0000 0.29884  0.26007  0.25315  Biso   1.000  Cu
  Cu12     1.0000 0.70116  0.73993  0.25315  Biso   1.000  Cu
  Cu13     1.0000 0.70116  0.26007  0.74685  Biso   1.000  Cu
  Cu14     1.0000 0.29884  0.73993  0.74685  Biso   1.000  Cu
  Cu15     1.0000 0.79884  0.76007  0.75315  Biso   1.000  Cu
  Cu16     1.0000 0.20116  0.23993  0.75315  Biso   1.000  Cu
  Cu17     1.0000 0.20116  0.76007  0.24685  Biso   1.000  Cu
  Cu18     1.0000 0.79884  0.23993  0.24685  Biso   1.000  Cu
  Cu19     1.0000 0.00000  0.50000  0.00000  Biso   1.000  Cu
  Cu20     1.0000 0.50000  0.00000  0.50000  Biso   1.000  Cu
  N1       1.0000 0.92380  0.50000  0.50000  Biso   1.000  N
  N2       1.0000 0.07620  0.50000  0.50000  Biso   1.000  N
  N3       1.0000 0.42380  0.00000  0.00000  Biso   1.000  N
  N4       1.0000 0.57620  0.00000  0.00000  Biso   1.000  N
  O1       1.0000 0.62180  0.72550  0.74133  Biso   1.000  O
  O2       1.0000 0.37820  0.27450  0.74133  Biso   1.000  O
  O3       1.0000 0.37820  0.72550  0.25867  Biso   1.000  O
  O4       1.0000 0.62180  0.27450  0.25867  Biso   1.000  O
  O5       1.0000 0.12180  0.22550  0.24133  Biso   1.000  O
  O6       1.0000 0.87820  0.77450  0.24133  Biso   1.000  O
  O7       1.0000 0.87820  0.22550  0.75867  Biso   1.000  O
  O8       1.0000 0.12180  0.77450  0.75867  Biso   1.000  O
  O9       1.0000 0.37820  0.27450  0.25867  Biso   1.000  O
  O10      1.0000 0.62180  0.72550  0.25867  Biso   1.000  O
  O11      1.0000 0.62180  0.27450  0.74133  Biso   1.000  O
  O12      1.0000 0.37820  0.72550  0.74133  Biso   1.000  O
  O13      1.0000 0.87820  0.77450  0.75867  Biso   1.000  O
  O14      1.0000 0.12180  0.22550  0.75867  Biso   1.000  O
  O15      1.0000 0.12180  0.77450  0.24133  Biso   1.000  O
  O16      1.0000 0.87820  0.22550  0.24133  Biso   1.000  O
  O17      1.0000 0.80330  0.70677  0.77613  Biso   1.000  O
  O18      1.0000 0.19670  0.29323  0.77613  Biso   1.000  O
  O19      1.0000 0.19670  0.70677  0.22387  Biso   1.000  O
  O20      1.0000 0.80330  0.29323  0.22387  Biso   1.000  O
  O21      1.0000 0.30330  0.20677  0.27613  Biso   1.000  O
  O22      1.0000 0.69670  0.79323  0.27613  Biso   1.000  O
  O23      1.0000 0.69670  0.20677  0.72387  Biso   1.000  O
  O24      1.0000 0.30330  0.79323  0.72387  Biso   1.000  O
  O25      1.0000 0.19670  0.29323  0.22387  Biso   1.000  O
  O26      1.0000 0.80330  0.70677  0.22387  Biso   1.000  O
  O27      1.0000 0.80330  0.29323  0.77613  Biso   1.000  O
  O28      1.0000 0.19670  0.70677  0.77613  Biso   1.000  O
  O29      1.0000 0.69670  0.79323  0.72387  Biso   1.000  O
  O30      1.0000 0.30330  0.20677  0.72387  Biso   1.000  O
  O31      1.0000 0.30330  0.79323  0.27613  Biso   1.000  O
  O32      1.0000 0.69670  0.20677  0.27613  Biso   1.000  O
  O33      1.0000 0.71960  0.68999  0.77037  Biso   1.000  O
  O34      1.0000 0.28040  0.31001  0.77037  Biso   1.000  O
  O35      1.0000 0.28040  0.68999  0.22963  Biso   1.000  O
  O36      1.0000 0.71960  0.31001  0.22963  Biso   1.000  O
  O37      1.0000 0.21960  0.18999  0.27037  Biso   1.000  O
  O38      1.0000 0.78040  0.81001  0.27037  Biso   1.000  O
  O39      1.0000 0.78040  0.18999  0.72963  Biso   1.000  O
  O40      1.0000 0.21960  0.81001  0.72963  Biso   1.000  O
  O41      1.0000 0.28040  0.31001  0.22963  Biso   1.000  O
  O42      1.0000 0.71960  0.68999  0.22963  Biso   1.000  O
  O43      1.0000 0.71960  0.31001  0.77037  Biso   1.000  O
  O44      1.0000 0.28040  0.68999  0.77037  Biso   1.000  O
  O45      1.0000 0.78040  0.81001  0.72963  Biso   1.000  O
  O46      1.0000 0.21960  0.18999  0.72963  Biso   1.000  O
  O47      1.0000 0.21960  0.81001  0.27037  Biso   1.000  O
  O48      1.0000 0.78040  0.18999  0.27037  Biso   1.000  O
  C1       1.0000 0.89070  0.53140  0.50000  Biso   1.000  C
  C2       1.0000 0.10930  0.46860  0.50000  Biso   1.000  C
  C3       1.0000 0.10930  0.53140  0.50000  Biso   1.000  C
  C4       1.0000 0.89070  0.46860  0.50000  Biso   1.000  C
  C5       1.0000 0.39070  0.03140  0.00000  Biso   1.000  C
  C6       1.0000 0.60930  0.96860  0.00000  Biso   1.000  C
  C7       1.0000 0.60930  0.03140  0.00000  Biso   1.000  C
  C8       1.0000 0.39070  0.96860  0.00000  Biso   1.000  C
  C9       1.0000 0.83800  0.50000  0.98041  Biso   1.000  C
  C10      1.0000 0.16200  0.50000  0.98041  Biso   1.000  C
  C11      1.0000 0.16200  0.50000  0.01959  Biso   1.000  C
  C12      1.0000 0.83800  0.50000  0.01959  Biso   1.000  C
  C13      1.0000 0.33800  0.00000  0.48041  Biso   1.000  C
  C14      1.0000 0.66200  0.00000  0.48041  Biso   1.000  C
  C15      1.0000 0.66200  0.00000  0.51959  Biso   1.000  C
  C16      1.0000 0.33800  0.00000  0.51959  Biso   1.000  C
  H1       1.0000 0.80900  0.50000  0.96380  Biso   1.000  H
  H2       1.0000 0.19100  0.50000  0.96380  Biso   1.000  H
  H3       1.0000 0.19100  0.50000  0.03620  Biso   1.000  H
  H4       1.0000 0.80900  0.50000  0.03620  Biso   1.000  H
  H5       1.0000 0.30900  0.00000  0.46380  Biso   1.000  H
  H6       1.0000 0.69100  0.00000  0.46380  Biso   1.000  H
  H7       1.0000 0.69100  0.00000  0.53620  Biso   1.000  H
  H8       1.0000 0.30900  0.00000  0.53620  Biso   1.000  H
  O49      1.0000 0.72120  0.71568  0.69510  Biso   1.000  O
  O50      1.0000 0.27880  0.28432  0.69510  Biso   1.000  O
  O51      1.0000 0.27880  0.71568  0.30490  Biso   1.000  O
  O52      1.0000 0.72120  0.28432  0.30490  Biso   1.000  O
  O53      1.0000 0.22120  0.21568  0.19510  Biso   1.000  O
  O54      1.0000 0.77880  0.78432  0.19510  Biso   1.000  O
  O55      1.0000 0.77880  0.21568  0.80490  Biso   1.000  O
  O56      1.0000 0.22120  0.78432  0.80490  Biso   1.000  O
  O57      1.0000 0.27880  0.28432  0.30490  Biso   1.000  O
  O58      1.0000 0.72120  0.71568  0.30490  Biso   1.000  O
  O59      1.0000 0.72120  0.28432  0.69510  Biso   1.000  O
  O60      1.0000 0.27880  0.71568  0.69510  Biso   1.000  O
  O61      1.0000 0.77880  0.78432  0.80490  Biso   1.000  O
  O62      1.0000 0.22120  0.21568  0.80490  Biso   1.000  O
  O63      1.0000 0.22120  0.78432  0.19510  Biso   1.000  O
  O64      1.0000 0.77880  0.21568  0.19510  Biso   1.000  O
  N5       1.0000 0.00000  0.56130  0.50000  Biso   1.000  N
  N6       1.0000 0.00000  0.43870  0.50000  Biso   1.000  N
  N7       1.0000 0.50000  0.06130  0.00000  Biso   1.000  N
  N8       1.0000 0.50000  0.93870  0.00000  Biso   1.000  N
  O65      1.0000 0.80530  0.73473  0.70100  Biso   1.000  O
  O66      1.0000 0.19470  0.26527  0.70100  Biso   1.000  O
  O67      1.0000 0.19470  0.73473  0.29900  Biso   1.000  O
  O68      1.0000 0.80530  0.26527  0.29900  Biso   1.000  O
  O69      1.0000 0.30530  0.23473  0.20100  Biso   1.000  O
  O70      1.0000 0.69470  0.76527  0.20100  Biso   1.000  O
  O71      1.0000 0.69470  0.23473  0.79900  Biso   1.000  O
  O72      1.0000 0.30530  0.76527  0.79900  Biso   1.000  O
  O73      1.0000 0.19470  0.26527  0.29900  Biso   1.000  O
  O74      1.0000 0.80530  0.73473  0.29900  Biso   1.000  O
  O75      1.0000 0.80530  0.26527  0.70100  Biso   1.000  O
  O76      1.0000 0.19470  0.73473  0.70100  Biso   1.000  O
  O77      1.0000 0.69470  0.76527  0.79900  Biso   1.000  O
  O78      1.0000 0.30530  0.23473  0.79900  Biso   1.000  O
  O79      1.0000 0.30530  0.76527  0.20100  Biso   1.000  O
  O80      1.0000 0.69470  0.23473  0.20100  Biso   1.000  O
  C17      1.0000 0.90730  0.57020  0.50000  Biso   1.000  C
  C18      1.0000 0.09270  0.42980  0.50000  Biso   1.000  C
  C19      1.0000 0.09270  0.57020  0.50000  Biso   1.000  C
  C20      1.0000 0.90730  0.42980  0.50000  Biso   1.000  C
  C21      1.0000 0.40730  0.07020  0.00000  Biso   1.000  C
  C22      1.0000 0.59270  0.92980  0.00000  Biso   1.000  C
  C23      1.0000 0.59270  0.07020  0.00000  Biso   1.000  C
  C24      1.0000 0.40730  0.92980  0.00000  Biso   1.000  C
  C25      1.0000 0.82870  0.69300  0.63510  Biso   1.000  C
  C26      1.0000 0.17130  0.30700  0.63510  Biso   1.000  C
  C27      1.0000 0.17130  0.69300  0.36490  Biso   1.000  C
  C28      1.0000 0.82870  0.30700  0.36490  Biso   1.000  C
  C29      1.0000 0.32870  0.19300  0.13510  Biso   1.000  C
  C30      1.0000 0.67130  0.80700  0.13510  Biso   1.000  C
  C31      1.0000 0.67130  0.19300  0.86490  Biso   1.000  C
  C32      1.0000 0.32870  0.80700  0.86490  Biso   1.000  C
  C33      1.0000 0.17130  0.30700  0.36490  Biso   1.000  C
  C34      1.0000 0.82870  0.69300  0.36490  Biso   1.000  C
  C35      1.0000 0.82870  0.30700  0.63510  Biso   1.000  C
  C36      1.0000 0.17130  0.69300  0.63510  Biso   1.000  C
  C37      1.0000 0.67130  0.80700  0.86490  Biso   1.000  C
  C38      1.0000 0.32870  0.19300  0.86490  Biso   1.000  C
  C39      1.0000 0.32870  0.80700  0.13510  Biso   1.000  C
  C40      1.0000 0.67130  0.19300  0.13510  Biso   1.000  C
  H9       1.0000 0.85570  0.69880  0.65260  Biso   1.000  H
  H10      1.0000 0.14430  0.30120  0.65260  Biso   1.000  H
  H11      1.0000 0.14430  0.69880  0.34740  Biso   1.000  H
  H12      1.0000 0.85570  0.30120  0.34740  Biso   1.000  H
  H13      1.0000 0.35570  0.19880  0.15260  Biso   1.000  H
  H14      1.0000 0.64430  0.80120  0.15260  Biso   1.000  H
  H15      1.0000 0.64430  0.19880  0.84740  Biso   1.000  H
  H16      1.0000 0.35570  0.80120  0.84740  Biso   1.000  H
  H17      1.0000 0.14430  0.30120  0.34740  Biso   1.000  H
  H18      1.0000 0.85570  0.69880  0.34740  Biso   1.000  H
  H19      1.0000 0.85570  0.30120  0.65260  Biso   1.000  H
  H20      1.0000 0.14430  0.69880  0.65260  Biso   1.000  H
  H21      1.0000 0.64430  0.80120  0.84740  Biso   1.000  H
  H22      1.0000 0.35570  0.19880  0.84740  Biso   1.000  H
  H23      1.0000 0.35570  0.80120  0.15260  Biso   1.000  H
  H24      1.0000 0.64430  0.19880  0.15260  Biso   1.000  H
  C41      1.0000 0.85000  0.61650  0.53560  Biso   1.000  C
  C42      1.0000 0.15000  0.38350  0.53560  Biso   1.000  C
  C43      1.0000 0.15000  0.61650  0.46440  Biso   1.000  C
  C44      1.0000 0.85000  0.38350  0.46440  Biso   1.000  C
  C45      1.0000 0.35000  0.11650  0.03560  Biso   1.000  C
  C46      1.0000 0.65000  0.88350  0.03560  Biso   1.000  C
  C47      1.0000 0.65000  0.11650  0.96440  Biso   1.000  C
  C48      1.0000 0.35000  0.88350  0.96440  Biso   1.000  C
  C49      1.0000 0.15000  0.38350  0.46440  Biso   1.000  C
  C50      1.0000 0.85000  0.61650  0.46440  Biso   1.000  C
  C51      1.0000 0.85000  0.38350  0.53560  Biso   1.000  C
  C52      1.0000 0.15000  0.61650  0.53560  Biso   1.000  C
  C53      1.0000 0.65000  0.88350  0.96440  Biso   1.000  C
  C54      1.0000 0.35000  0.11650  0.96440  Biso   1.000  C
  C55      1.0000 0.35000  0.88350  0.03560  Biso   1.000  C
  C56      1.0000 0.65000  0.11650  0.03560  Biso   1.000  C
  H25      1.0000 0.85890  0.60410  0.55960  Biso   1.000  H
  H26      1.0000 0.14110  0.39590  0.55960  Biso   1.000  H
  H27      1.0000 0.14110  0.60410  0.44040  Biso   1.000  H
  H28      1.0000 0.85890  0.39590  0.44040  Biso   1.000  H
  H29      1.0000 0.35890  0.10410  0.05960  Biso   1.000  H
  H30      1.0000 0.64110  0.89590  0.05960  Biso   1.000  H
  H31      1.0000 0.64110  0.10410  0.94040  Biso   1.000  H
  H32      1.0000 0.35890  0.89590  0.94040  Biso   1.000  H
  H33      1.0000 0.14110  0.39590  0.44040  Biso   1.000  H
  H34      1.0000 0.85890  0.60410  0.44040  Biso   1.000  H
  H35      1.0000 0.85890  0.39590  0.55960  Biso   1.000  H
  H36      1.0000 0.14110  0.60410  0.55960  Biso   1.000  H
  H37      1.0000 0.64110  0.89590  0.94040  Biso   1.000  H
  H38      1.0000 0.35890  0.10410  0.94040  Biso   1.000  H
  H39      1.0000 0.35890  0.89590  0.05960  Biso   1.000  H
  H40      1.0000 0.64110  0.10410  0.05960  Biso   1.000  H
  C57      1.0000 0.80190  0.66730  0.57350  Biso   1.000  C
  C58      1.0000 0.19810  0.33270  0.57350  Biso   1.000  C
  C59      1.0000 0.19810  0.66730  0.42650  Biso   1.000  C
  C60      1.0000 0.80190  0.33270  0.42650  Biso   1.000  C
  C61      1.0000 0.30190  0.16730  0.07350  Biso   1.000  C
  C62      1.0000 0.69810  0.83270  0.07350  Biso   1.000  C
  C63      1.0000 0.69810  0.16730  0.92650  Biso   1.000  C
  C64      1.0000 0.30190  0.83270  0.92650  Biso   1.000  C
  C65      1.0000 0.19810  0.33270  0.42650  Biso   1.000  C
  C66      1.0000 0.80190  0.66730  0.42650  Biso   1.000  C
  C67      1.0000 0.80190  0.33270  0.57350  Biso   1.000  C
  C68      1.0000 0.19810  0.66730  0.57350  Biso   1.000  C
  C69      1.0000 0.69810  0.83270  0.92650  Biso   1.000  C
  C70      1.0000 0.30190  0.16730  0.92650  Biso   1.000  C
  C71      1.0000 0.30190  0.83270  0.07350  Biso   1.000  C
  C72      1.0000 0.69810  0.16730  0.07350  Biso   1.000  C
  C73      1.0000 0.95760  0.58410  0.50000  Biso   1.000  C
  C74      1.0000 0.04240  0.41590  0.50000  Biso   1.000  C
  C75      1.0000 0.04240  0.58410  0.50000  Biso   1.000  C
  C76      1.0000 0.95760  0.41590  0.50000  Biso   1.000  C
  C77      1.0000 0.45760  0.08410  0.00000  Biso   1.000  C
  C78      1.0000 0.54240  0.91590  0.00000  Biso   1.000  C
  C79      1.0000 0.54240  0.08410  0.00000  Biso   1.000  C
  C80      1.0000 0.45760  0.91590  0.00000  Biso   1.000  C
  C81      1.0000 0.86980  0.60320  0.50000  Biso   1.000  C
  C82      1.0000 0.13020  0.39680  0.50000  Biso   1.000  C
  C83      1.0000 0.13020  0.60320  0.50000  Biso   1.000  C
  C84      1.0000 0.86980  0.39680  0.50000  Biso   1.000  C
  C85      1.0000 0.36980  0.10320  0.00000  Biso   1.000  C
  C86      1.0000 0.63020  0.89680  0.00000  Biso   1.000  C
  C87      1.0000 0.63020  0.10320  0.00000  Biso   1.000  C
  C88      1.0000 0.36980  0.89680  0.00000  Biso   1.000  C
  C89      1.0000 0.81630  0.64890  0.53510  Biso   1.000  C
  C90      1.0000 0.18370  0.35110  0.53510  Biso   1.000  C
  C91      1.0000 0.18370  0.64890  0.46490  Biso   1.000  C
  C92      1.0000 0.81630  0.35110  0.46490  Biso   1.000  C
  C93      1.0000 0.31630  0.14890  0.03510  Biso   1.000  C
  C94      1.0000 0.68370  0.85110  0.03510  Biso   1.000  C
  C95      1.0000 0.68370  0.14890  0.96490  Biso   1.000  C
  C96      1.0000 0.31630  0.85110  0.96490  Biso   1.000  C
  C97      1.0000 0.18370  0.35110  0.46490  Biso   1.000  C
  C98      1.0000 0.81630  0.64890  0.46490  Biso   1.000  C
  C99      1.0000 0.81630  0.35110  0.53510  Biso   1.000  C
  C100     1.0000 0.18370  0.64890  0.53510  Biso   1.000  C
  C101     1.0000 0.68370  0.85110  0.96490  Biso   1.000  C
  C102     1.0000 0.31630  0.14890  0.96490  Biso   1.000  C
  C103     1.0000 0.31630  0.85110  0.03510  Biso   1.000  C
  C104     1.0000 0.68370  0.14890  0.03510  Biso   1.000  C
  C105     1.0000 0.79550  0.66350  0.50000  Biso   1.000  C
  C106     1.0000 0.20450  0.33650  0.50000  Biso   1.000  C
  C107     1.0000 0.20450  0.66350  0.50000  Biso   1.000  C
  C108     1.0000 0.79550  0.33650  0.50000  Biso   1.000  C
  C109     1.0000 0.29550  0.16350  0.00000  Biso   1.000  C
  C110     1.0000 0.70450  0.83650  0.00000  Biso   1.000  C
  C111     1.0000 0.70450  0.16350  0.00000  Biso   1.000  C
  C112     1.0000 0.29550  0.83650  0.00000  Biso   1.000  C
  H41      1.0000 0.76880  0.68230  0.50000  Biso   1.000  H
  H42      1.0000 0.23120  0.31770  0.50000  Biso   1.000  H
  H43      1.0000 0.23120  0.68230  0.50000  Biso   1.000  H
  H44      1.0000 0.76880  0.31770  0.50000  Biso   1.000  H
  H45      1.0000 0.26880  0.18230  0.00000  Biso   1.000  H
  H46      1.0000 0.73120  0.81770  0.00000  Biso   1.000  H
  H47      1.0000 0.73120  0.18230  0.00000  Biso   1.000  H
  H48      1.0000 0.26880  0.81770  0.00000  Biso   1.000  H
  C113     1.0000 0.75200  0.67790  0.58260  Biso   1.000  C
  C114     1.0000 0.24800  0.32210  0.58260  Biso   1.000  C
  C115     1.0000 0.24800  0.67790  0.41740  Biso   1.000  C
  C116     1.0000 0.75200  0.32210  0.41740  Biso   1.000  C
  C117     1.0000 0.25200  0.17790  0.08260  Biso   1.000  C
  C118     1.0000 0.74800  0.82210  0.08260  Biso   1.000  C
  C119     1.0000 0.74800  0.17790  0.91740  Biso   1.000  C
  C120     1.0000 0.25200  0.82210  0.91740  Biso   1.000  C
  C121     1.0000 0.24800  0.32210  0.41740  Biso   1.000  C
  C122     1.0000 0.75200  0.67790  0.41740  Biso   1.000  C
  C123     1.0000 0.75200  0.32210  0.58260  Biso   1.000  C
  C124     1.0000 0.24800  0.67790  0.58260  Biso   1.000  C
  C125     1.0000 0.74800  0.82210  0.91740  Biso   1.000  C
  C126     1.0000 0.25200  0.17790  0.91740  Biso   1.000  C
  C127     1.0000 0.25200  0.82210  0.08260  Biso   1.000  C
  C128     1.0000 0.74800  0.17790  0.08260  Biso   1.000  C
  H49      1.0000 0.72570  0.67440  0.56380  Biso   1.000  H
  H50      1.0000 0.27430  0.32560  0.56380  Biso   1.000  H
  H51      1.0000 0.27430  0.67440  0.43620  Biso   1.000  H
  H52      1.0000 0.72570  0.32560  0.43620  Biso   1.000  H
  H53      1.0000 0.22570  0.17440  0.06380  Biso   1.000  H
  H54      1.0000 0.77430  0.82560  0.06380  Biso   1.000  H
  H55      1.0000 0.77430  0.17440  0.93620  Biso   1.000  H
  H56      1.0000 0.22570  0.82560  0.93620  Biso   1.000  H
  H57      1.0000 0.27430  0.32560  0.43620  Biso   1.000  H
  H58      1.0000 0.72570  0.67440  0.43620  Biso   1.000  H
  H59      1.0000 0.72570  0.32560  0.56380  Biso   1.000  H
  H60      1.0000 0.27430  0.67440  0.56380  Biso   1.000  H
  H61      1.0000 0.77430  0.82560  0.93620  Biso   1.000  H
  H62      1.0000 0.22570  0.17440  0.93620  Biso   1.000  H
  H63      1.0000 0.22570  0.82560  0.06380  Biso   1.000  H
  H64      1.0000 0.77430  0.17440  0.06380  Biso   1.000  H
  C129     1.0000 0.75170  0.58240  0.82050  Biso   1.000  C
  C130     1.0000 0.24830  0.41760  0.82050  Biso   1.000  C
  C131     1.0000 0.24830  0.58240  0.17950  Biso   1.000  C
  C132     1.0000 0.75170  0.41760  0.17950  Biso   1.000  C
  C133     1.0000 0.25170  0.08240  0.32050  Biso   1.000  C
  C134     1.0000 0.74830  0.91760  0.32050  Biso   1.000  C
  C135     1.0000 0.74830  0.08240  0.67950  Biso   1.000  C
  C136     1.0000 0.25170  0.91760  0.67950  Biso   1.000  C
  C137     1.0000 0.24830  0.41760  0.17950  Biso   1.000  C
  C138     1.0000 0.75170  0.58240  0.17950  Biso   1.000  C
  C139     1.0000 0.75170  0.41760  0.82050  Biso   1.000  C
  C140     1.0000 0.24830  0.58240  0.82050  Biso   1.000  C
  C141     1.0000 0.74830  0.91760  0.67950  Biso   1.000  C
  C142     1.0000 0.25170  0.08240  0.67950  Biso   1.000  C
  C143     1.0000 0.25170  0.91760  0.32050  Biso   1.000  C
  C144     1.0000 0.74830  0.08240  0.32050  Biso   1.000  C
  H65      1.0000 0.72520  0.56390  0.82460  Biso   1.000  H
  H66      1.0000 0.27480  0.43610  0.82460  Biso   1.000  H
  H67      1.0000 0.27480  0.56390  0.17540  Biso   1.000  H
  H68      1.0000 0.72520  0.43610  0.17540  Biso   1.000  H
  H69      1.0000 0.22520  0.06390  0.32460  Biso   1.000  H
  H70      1.0000 0.77480  0.93610  0.32460  Biso   1.000  H
  H71      1.0000 0.77480  0.06390  0.67540  Biso   1.000  H
  H72      1.0000 0.22520  0.93610  0.67540  Biso   1.000  H
  H73      1.0000 0.27480  0.43610  0.17540  Biso   1.000  H
  H74      1.0000 0.72520  0.56390  0.17540  Biso   1.000  H
  H75      1.0000 0.72520  0.43610  0.82460  Biso   1.000  H
  H76      1.0000 0.27480  0.56390  0.82460  Biso   1.000  H
  H77      1.0000 0.77480  0.93610  0.67540  Biso   1.000  H
  H78      1.0000 0.22520  0.06390  0.67540  Biso   1.000  H
  H79      1.0000 0.22520  0.93610  0.32460  Biso   1.000  H
  H80      1.0000 0.77480  0.06390  0.32460  Biso   1.000  H
  C145     1.0000 0.83900  0.51974  0.50000  Biso   1.000  C
  C146     1.0000 0.16100  0.48026  0.50000  Biso   1.000  C
  C147     1.0000 0.16100  0.51974  0.50000  Biso   1.000  C
  C148     1.0000 0.83900  0.48026  0.50000  Biso   1.000  C
  C149     1.0000 0.33900  0.01974  0.00000  Biso   1.000  C
  C150     1.0000 0.66100  0.98026  0.00000  Biso   1.000  C
  C151     1.0000 0.66100  0.01974  0.00000  Biso   1.000  C
  C152     1.0000 0.33900  0.98026  0.00000  Biso   1.000  C
  H81      1.0000 0.81010  0.53650  0.50000  Biso   1.000  H
  H82      1.0000 0.18990  0.46350  0.50000  Biso   1.000  H
  H83      1.0000 0.18990  0.53650  0.50000  Biso   1.000  H
  H84      1.0000 0.81010  0.46350  0.50000  Biso   1.000  H
  H85      1.0000 0.31010  0.03650  0.00000  Biso   1.000  H
  H86      1.0000 0.68990  0.96350  0.00000  Biso   1.000  H
  H87      1.0000 0.68990  0.03650  0.00000  Biso   1.000  H
  H88      1.0000 0.31010  0.96350  0.00000  Biso   1.000  H
  C153     1.0000 0.74010  0.69410  0.62020  Biso   1.000  C
  C154     1.0000 0.25990  0.30590  0.62020  Biso   1.000  C
  C155     1.0000 0.25990  0.69410  0.37980  Biso   1.000  C
  C156     1.0000 0.74010  0.30590  0.37980  Biso   1.000  C
  C157     1.0000 0.24010  0.19410  0.12020  Biso   1.000  C
  C158     1.0000 0.75990  0.80590  0.12020  Biso   1.000  C
  C159     1.0000 0.75990  0.19410  0.87980  Biso   1.000  C
  C160     1.0000 0.24010  0.80590  0.87980  Biso   1.000  C
  C161     1.0000 0.25990  0.30590  0.37980  Biso   1.000  C
  C162     1.0000 0.74010  0.69410  0.37980  Biso   1.000  C
  C163     1.0000 0.74010  0.30590  0.62020  Biso   1.000  C
  C164     1.0000 0.25990  0.69410  0.62020  Biso   1.000  C
  C165     1.0000 0.75990  0.80590  0.87980  Biso   1.000  C
  C166     1.0000 0.24010  0.19410  0.87980  Biso   1.000  C
  C167     1.0000 0.24010  0.80590  0.12020  Biso   1.000  C
  C168     1.0000 0.75990  0.19410  0.12020  Biso   1.000  C
  H89      1.0000 0.70580  0.69980  0.62680  Biso   1.000  H
  H90      1.0000 0.29420  0.30020  0.62680  Biso   1.000  H
  H91      1.0000 0.29420  0.69980  0.37320  Biso   1.000  H
  H92      1.0000 0.70580  0.30020  0.37320  Biso   1.000  H
  H93      1.0000 0.20580  0.19980  0.12680  Biso   1.000  H
  H94      1.0000 0.79420  0.80020  0.12680  Biso   1.000  H
  H95      1.0000 0.79420  0.19980  0.87320  Biso   1.000  H
  H96      1.0000 0.20580  0.80020  0.87320  Biso   1.000  H
  H97      1.0000 0.29420  0.30020  0.37320  Biso   1.000  H
  H98      1.0000 0.70580  0.69980  0.37320  Biso   1.000  H
  H99      1.0000 0.70580  0.30020  0.62680  Biso   1.000  H
  H100     1.0000 0.29420  0.69980  0.62680  Biso   1.000  H
  H101     1.0000 0.79420  0.80020  0.87320  Biso   1.000  H
  H102     1.0000 0.20580  0.19980  0.87320  Biso   1.000  H
  H103     1.0000 0.20580  0.80020  0.12680  Biso   1.000  H
  H104     1.0000 0.79420  0.19980  0.12680  Biso   1.000  H
  C169     1.0000 0.77930  0.70140  0.64740  Biso   1.000  C
  C170     1.0000 0.22070  0.29860  0.64740  Biso   1.000  C
  C171     1.0000 0.22070  0.70140  0.35260  Biso   1.000  C
  C172     1.0000 0.77930  0.29860  0.35260  Biso   1.000  C
  C173     1.0000 0.27930  0.20140  0.14740  Biso   1.000  C
  C174     1.0000 0.72070  0.79860  0.14740  Biso   1.000  C
  C175     1.0000 0.72070  0.20140  0.85260  Biso   1.000  C
  C176     1.0000 0.27930  0.79860  0.85260  Biso   1.000  C
  C177     1.0000 0.22070  0.29860  0.35260  Biso   1.000  C
  C178     1.0000 0.77930  0.70140  0.35260  Biso   1.000  C
  C179     1.0000 0.77930  0.29860  0.64740  Biso   1.000  C
  C180     1.0000 0.22070  0.70140  0.64740  Biso   1.000  C
  C181     1.0000 0.72070  0.79860  0.85260  Biso   1.000  C
  C182     1.0000 0.27930  0.20140  0.85260  Biso   1.000  C
  C183     1.0000 0.27930  0.79860  0.14740  Biso   1.000  C
  C184     1.0000 0.72070  0.20140  0.14740  Biso   1.000  C
  C185     1.0000 0.76250  0.68370  0.77830  Biso   1.000  C
  C186     1.0000 0.23750  0.31630  0.77830  Biso   1.000  C
  C187     1.0000 0.23750  0.68370  0.22170  Biso   1.000  C
  C188     1.0000 0.76250  0.31630  0.22170  Biso   1.000  C
  C189     1.0000 0.26250  0.18370  0.27830  Biso   1.000  C
  C190     1.0000 0.73750  0.81630  0.27830  Biso   1.000  C
  C191     1.0000 0.73750  0.18370  0.72170  Biso   1.000  C
  C192     1.0000 0.26250  0.81630  0.72170  Biso   1.000  C
  C193     1.0000 0.23750  0.31630  0.22170  Biso   1.000  C
  C194     1.0000 0.76250  0.68370  0.22170  Biso   1.000  C
  C195     1.0000 0.76250  0.31630  0.77830  Biso   1.000  C
  C196     1.0000 0.23750  0.68370  0.77830  Biso   1.000  C
  C197     1.0000 0.73750  0.81630  0.72170  Biso   1.000  C
  C198     1.0000 0.26250  0.18370  0.72170  Biso   1.000  C
  C199     1.0000 0.26250  0.81630  0.27830  Biso   1.000  C
  C200     1.0000 0.73750  0.18370  0.27830  Biso   1.000  C
  C201     1.0000 0.80110  0.57380  0.83370  Biso   1.000  C
  C202     1.0000 0.19890  0.42620  0.83370  Biso   1.000  C
  C203     1.0000 0.19890  0.57380  0.16630  Biso   1.000  C
  C204     1.0000 0.80110  0.42620  0.16630  Biso   1.000  C
  C205     1.0000 0.30110  0.07380  0.33370  Biso   1.000  C
  C206     1.0000 0.69890  0.92620  0.33370  Biso   1.000  C
  C207     1.0000 0.69890  0.07380  0.66630  Biso   1.000  C
  C208     1.0000 0.30110  0.92620  0.66630  Biso   1.000  C
  C209     1.0000 0.19890  0.42620  0.16630  Biso   1.000  C
  C210     1.0000 0.80110  0.57380  0.16630  Biso   1.000  C
  C211     1.0000 0.80110  0.42620  0.83370  Biso   1.000  C
  C212     1.0000 0.19890  0.57380  0.83370  Biso   1.000  C
  C213     1.0000 0.69890  0.92620  0.66630  Biso   1.000  C
  C214     1.0000 0.30110  0.07380  0.66630  Biso   1.000  C
  C215     1.0000 0.30110  0.92620  0.33370  Biso   1.000  C
  C216     1.0000 0.69890  0.07380  0.33370  Biso   1.000  C
  C217     1.0000 0.79810  0.50000  0.83690  Biso   1.000  C
  C218     1.0000 0.20190  0.50000  0.83690  Biso   1.000  C
  C219     1.0000 0.20190  0.50000  0.16310  Biso   1.000  C
  C220     1.0000 0.79810  0.50000  0.16310  Biso   1.000  C
  C221     1.0000 0.29810  0.00000  0.33690  Biso   1.000  C
  C222     1.0000 0.70190  0.00000  0.33690  Biso   1.000  C
  C223     1.0000 0.70190  0.00000  0.66310  Biso   1.000  C
  C224     1.0000 0.29810  0.00000  0.66310  Biso   1.000  C
  H105     1.0000 0.77250  0.50000  0.81730  Biso   1.000  H
  H106     1.0000 0.22750  0.50000  0.81730  Biso   1.000  H
  H107     1.0000 0.22750  0.50000  0.18270  Biso   1.000  H
  H108     1.0000 0.77250  0.50000  0.18270  Biso   1.000  H
  H109     1.0000 0.27250  0.00000  0.31730  Biso   1.000  H
  H110     1.0000 0.72750  0.00000  0.31730  Biso   1.000  H
  H111     1.0000 0.72750  0.00000  0.68270  Biso   1.000  H
  H112     1.0000 0.27250  0.00000  0.68270  Biso   1.000  H
  C225     1.0000 0.97485  0.62440  0.50000  Biso   1.000  C
  C226     1.0000 0.02515  0.37560  0.50000  Biso   1.000  C
  C227     1.0000 0.02515  0.62440  0.50000  Biso   1.000  C
  C228     1.0000 0.97485  0.37560  0.50000  Biso   1.000  C
  C229     1.0000 0.47485  0.12440  0.00000  Biso   1.000  C
  C230     1.0000 0.52515  0.87560  0.00000  Biso   1.000  C
  C231     1.0000 0.52515  0.12440  0.00000  Biso   1.000  C
  C232     1.0000 0.47485  0.87560  0.00000  Biso   1.000  C
  H113     1.0000 0.95370  0.64700  0.50000  Biso   1.000  H
  H114     1.0000 0.04630  0.35300  0.50000  Biso   1.000  H
  H115     1.0000 0.04630  0.64700  0.50000  Biso   1.000  H
  H116     1.0000 0.95370  0.35300  0.50000  Biso   1.000  H
  H117     1.0000 0.45370  0.14700  0.00000  Biso   1.000  H
  H118     1.0000 0.54630  0.85300  0.00000  Biso   1.000  H
  H119     1.0000 0.54630  0.14700  0.00000  Biso   1.000  H
  H120     1.0000 0.45370  0.85300  0.00000  Biso   1.000  H
  C233     1.0000 0.76540  0.71990  0.68620  Biso   1.000  C
  C234     1.0000 0.23460  0.28010  0.68620  Biso   1.000  C
  C235     1.0000 0.23460  0.71990  0.31380  Biso   1.000  C
  C236     1.0000 0.76540  0.28010  0.31380  Biso   1.000  C
  C237     1.0000 0.26540  0.21990  0.18620  Biso   1.000  C
  C238     1.0000 0.73460  0.78010  0.18620  Biso   1.000  C
  C239     1.0000 0.73460  0.21990  0.81380  Biso   1.000  C
  C240     1.0000 0.26540  0.78010  0.81380  Biso   1.000  C
  C241     1.0000 0.23460  0.28010  0.31380  Biso   1.000  C
  C242     1.0000 0.76540  0.71990  0.31380  Biso   1.000  C
  C243     1.0000 0.76540  0.28010  0.68620  Biso   1.000  C
  C244     1.0000 0.23460  0.71990  0.68620  Biso   1.000  C
  C245     1.0000 0.73460  0.78010  0.81380  Biso   1.000  C
  C246     1.0000 0.26540  0.21990  0.81380  Biso   1.000  C
  C247     1.0000 0.26540  0.78010  0.18620  Biso   1.000  C
  C248     1.0000 0.73460  0.21990  0.18620  Biso   1.000  C
  C249     1.0000 0.84100  0.67670  0.59870  Biso   1.000  C
  C250     1.0000 0.15900  0.32330  0.59870  Biso   1.000  C
  C251     1.0000 0.15900  0.67670  0.40130  Biso   1.000  C
  C252     1.0000 0.84100  0.32330  0.40130  Biso   1.000  C
  C253     1.0000 0.34100  0.17670  0.09870  Biso   1.000  C
  C254     1.0000 0.65900  0.82330  0.09870  Biso   1.000  C
  C255     1.0000 0.65900  0.17670  0.90130  Biso   1.000  C
  C256     1.0000 0.34100  0.82330  0.90130  Biso   1.000  C
  C257     1.0000 0.15900  0.32330  0.40130  Biso   1.000  C
  C258     1.0000 0.84100  0.67670  0.40130  Biso   1.000  C
  C259     1.0000 0.84100  0.32330  0.59870  Biso   1.000  C
  C260     1.0000 0.15900  0.67670  0.59870  Biso   1.000  C
  C261     1.0000 0.65900  0.82330  0.90130  Biso   1.000  C
  C262     1.0000 0.34100  0.17670  0.90130  Biso   1.000  C
  C263     1.0000 0.34100  0.82330  0.09870  Biso   1.000  C
  C264     1.0000 0.65900  0.17670  0.09870  Biso   1.000  C
  H121     1.0000 0.87550  0.67220  0.59150  Biso   1.000  H
  H122     1.0000 0.12450  0.32780  0.59150  Biso   1.000  H
  H123     1.0000 0.12450  0.67220  0.40850  Biso   1.000  H
  H124     1.0000 0.87550  0.32780  0.40850  Biso   1.000  H
  H125     1.0000 0.37550  0.17220  0.09150  Biso   1.000  H
  H126     1.0000 0.62450  0.82780  0.09150  Biso   1.000  H
  H127     1.0000 0.62450  0.17220  0.90850  Biso   1.000  H
  H128     1.0000 0.37550  0.82780  0.90850  Biso   1.000  H
  H129     1.0000 0.12450  0.32780  0.40850  Biso   1.000  H
  H130     1.0000 0.87550  0.67220  0.40850  Biso   1.000  H
  H131     1.0000 0.87550  0.32780  0.59150  Biso   1.000  H
  H132     1.0000 0.12450  0.67220  0.59150  Biso   1.000  H
  H133     1.0000 0.62450  0.82780  0.90850  Biso   1.000  H
  H134     1.0000 0.37550  0.17220  0.90850  Biso   1.000  H
  H135     1.0000 0.37550  0.82780  0.09150  Biso   1.000  H
  H136     1.0000 0.62450  0.17220  0.09150  Biso   1.000  H
  C265     1.0000 0.74110  0.61800  0.80120  Biso   1.000  C
  C266     1.0000 0.25890  0.38200  0.80120  Biso   1.000  C
  C267     1.0000 0.25890  0.61800  0.19880  Biso   1.000  C
  C268     1.0000 0.74110  0.38200  0.19880  Biso   1.000  C
  C269     1.0000 0.24110  0.11800  0.30120  Biso   1.000  C
  C270     1.0000 0.75890  0.88200  0.30120  Biso   1.000  C
  C271     1.0000 0.75890  0.11800  0.69880  Biso   1.000  C
  C272     1.0000 0.24110  0.88200  0.69880  Biso   1.000  C
  C273     1.0000 0.25890  0.38200  0.19880  Biso   1.000  C
  C274     1.0000 0.74110  0.61800  0.19880  Biso   1.000  C
  C275     1.0000 0.74110  0.38200  0.80120  Biso   1.000  C
  C276     1.0000 0.25890  0.61800  0.80120  Biso   1.000  C
  C277     1.0000 0.75890  0.88200  0.69880  Biso   1.000  C
  C278     1.0000 0.24110  0.11800  0.69880  Biso   1.000  C
  C279     1.0000 0.24110  0.88200  0.30120  Biso   1.000  C
  C280     1.0000 0.75890  0.11800  0.30120  Biso   1.000  C
  H137     1.0000 0.70840  0.62310  0.79060  Biso   1.000  H
  H138     1.0000 0.29160  0.37690  0.79060  Biso   1.000  H
  H139     1.0000 0.29160  0.62310  0.20940  Biso   1.000  H
  H140     1.0000 0.70840  0.37690  0.20940  Biso   1.000  H
  H141     1.0000 0.20840  0.12310  0.29060  Biso   1.000  H
  H142     1.0000 0.79160  0.87690  0.29060  Biso   1.000  H
  H143     1.0000 0.79160  0.12310  0.70940  Biso   1.000  H
  H144     1.0000 0.20840  0.87690  0.70940  Biso   1.000  H
  H145     1.0000 0.29160  0.37690  0.20940  Biso   1.000  H
  H146     1.0000 0.70840  0.62310  0.20940  Biso   1.000  H
  H147     1.0000 0.70840  0.37690  0.79060  Biso   1.000  H
  H148     1.0000 0.29160  0.62310  0.79060  Biso   1.000  H
  H149     1.0000 0.79160  0.87690  0.70940  Biso   1.000  H
  H150     1.0000 0.20840  0.12310  0.70940  Biso   1.000  H
  H151     1.0000 0.20840  0.87690  0.29060  Biso   1.000  H
  H152     1.0000 0.79160  0.12310  0.29060  Biso   1.000  H
  C281     1.0000 0.83900  0.60210  0.83000  Biso   1.000  C
  C282     1.0000 0.16100  0.39790  0.83000  Biso   1.000  C
  C283     1.0000 0.16100  0.60210  0.17000  Biso   1.000  C
  C284     1.0000 0.83900  0.39790  0.17000  Biso   1.000  C
  C285     1.0000 0.33900  0.10210  0.33000  Biso   1.000  C
  C286     1.0000 0.66100  0.89790  0.33000  Biso   1.000  C
  C287     1.0000 0.66100  0.10210  0.67000  Biso   1.000  C
  C288     1.0000 0.33900  0.89790  0.67000  Biso   1.000  C
  C289     1.0000 0.16100  0.39790  0.17000  Biso   1.000  C
  C290     1.0000 0.83900  0.60210  0.17000  Biso   1.000  C
  C291     1.0000 0.83900  0.39790  0.83000  Biso   1.000  C
  C292     1.0000 0.16100  0.60210  0.83000  Biso   1.000  C
  C293     1.0000 0.66100  0.89790  0.67000  Biso   1.000  C
  C294     1.0000 0.33900  0.10210  0.67000  Biso   1.000  C
  C295     1.0000 0.33900  0.89790  0.33000  Biso   1.000  C
  C296     1.0000 0.66100  0.10210  0.33000  Biso   1.000  C
  H153     1.0000 0.87200  0.59660  0.83990  Biso   1.000  H
  H154     1.0000 0.12800  0.40340  0.83990  Biso   1.000  H
  H155     1.0000 0.12800  0.59660  0.16010  Biso   1.000  H
  H156     1.0000 0.87200  0.40340  0.16010  Biso   1.000  H
  H157     1.0000 0.37200  0.09660  0.33990  Biso   1.000  H
  H158     1.0000 0.62800  0.90340  0.33990  Biso   1.000  H
  H159     1.0000 0.62800  0.09660  0.66010  Biso   1.000  H
  H160     1.0000 0.37200  0.90340  0.66010  Biso   1.000  H
  H161     1.0000 0.12800  0.40340  0.16010  Biso   1.000  H
  H162     1.0000 0.87200  0.59660  0.16010  Biso   1.000  H
  H163     1.0000 0.87200  0.40340  0.83990  Biso   1.000  H
  H164     1.0000 0.12800  0.59660  0.83990  Biso   1.000  H
  H165     1.0000 0.62800  0.90340  0.66010  Biso   1.000  H
  H166     1.0000 0.37200  0.09660  0.66010  Biso   1.000  H
  H167     1.0000 0.37200  0.90340  0.33990  Biso   1.000  H
  H168     1.0000 0.62800  0.09660  0.33990  Biso   1.000  H
  C297     1.0000 0.83010  0.63850  0.81220  Biso   1.000  C
  C298     1.0000 0.16990  0.36150  0.81220  Biso   1.000  C
  C299     1.0000 0.16990  0.63850  0.18780  Biso   1.000  C
  C300     1.0000 0.83010  0.36150  0.18780  Biso   1.000  C
  C301     1.0000 0.33010  0.13850  0.31220  Biso   1.000  C
  C302     1.0000 0.66990  0.86150  0.31220  Biso   1.000  C
  C303     1.0000 0.66990  0.13850  0.68780  Biso   1.000  C
  C304     1.0000 0.33010  0.86150  0.68780  Biso   1.000  C
  C305     1.0000 0.16990  0.36150  0.18780  Biso   1.000  C
  C306     1.0000 0.83010  0.63850  0.18780  Biso   1.000  C
  C307     1.0000 0.83010  0.36150  0.81220  Biso   1.000  C
  C308     1.0000 0.16990  0.63850  0.81220  Biso   1.000  C
  C309     1.0000 0.66990  0.86150  0.68780  Biso   1.000  C
  C310     1.0000 0.33010  0.13850  0.68780  Biso   1.000  C
  C311     1.0000 0.33010  0.86150  0.31220  Biso   1.000  C
  C312     1.0000 0.66990  0.13850  0.31220  Biso   1.000  C
  H169     1.0000 0.85650  0.65740  0.80990  Biso   1.000  H
  H170     1.0000 0.14350  0.34260  0.80990  Biso   1.000  H
  H171     1.0000 0.14350  0.65740  0.19010  Biso   1.000  H
  H172     1.0000 0.85650  0.34260  0.19010  Biso   1.000  H
  H173     1.0000 0.35650  0.15740  0.30990  Biso   1.000  H
  H174     1.0000 0.64350  0.84260  0.30990  Biso   1.000  H
  H175     1.0000 0.64350  0.15740  0.69010  Biso   1.000  H
  H176     1.0000 0.35650  0.84260  0.69010  Biso   1.000  H
  H177     1.0000 0.14350  0.34260  0.19010  Biso   1.000  H
  H178     1.0000 0.85650  0.65740  0.19010  Biso   1.000  H
  H179     1.0000 0.85650  0.34260  0.80990  Biso   1.000  H
  H180     1.0000 0.14350  0.65740  0.80990  Biso   1.000  H
  H181     1.0000 0.64350  0.84260  0.69010  Biso   1.000  H
  H182     1.0000 0.35650  0.15740  0.69010  Biso   1.000  H
  H183     1.0000 0.35650  0.84260  0.30990  Biso   1.000  H
  H184     1.0000 0.64350  0.15740  0.30990  Biso   1.000  H
  N9       1.0000 0.00000  0.50000  0.93970  Biso   1.000  N
  N10      1.0000 0.00000  0.50000  0.06030  Biso   1.000  N
  N11      1.0000 0.50000  0.00000  0.43970  Biso   1.000  N
  N12      1.0000 0.50000  0.00000  0.56030  Biso   1.000  N
  C313     1.0000 0.95670  0.50000  0.91790  Biso   1.000  C
  C314     1.0000 0.04330  0.50000  0.91790  Biso   1.000  C
  C315     1.0000 0.04330  0.50000  0.08210  Biso   1.000  C
  C316     1.0000 0.95670  0.50000  0.08210  Biso   1.000  C
  C317     1.0000 0.45670  0.00000  0.41790  Biso   1.000  C
  C318     1.0000 0.54330  0.00000  0.41790  Biso   1.000  C
  C319     1.0000 0.54330  0.00000  0.58210  Biso   1.000  C
  C320     1.0000 0.45670  0.00000  0.58210  Biso   1.000  C
  C321     1.0000 0.90560  0.50000  0.92910  Biso   1.000  C
  C322     1.0000 0.09440  0.50000  0.92910  Biso   1.000  C
  C323     1.0000 0.09440  0.50000  0.07090  Biso   1.000  C
  C324     1.0000 0.90560  0.50000  0.07090  Biso   1.000  C
  C325     1.0000 0.40560  0.00000  0.42910  Biso   1.000  C
  C326     1.0000 0.59440  0.00000  0.42910  Biso   1.000  C
  C327     1.0000 0.59440  0.00000  0.57090  Biso   1.000  C
  C328     1.0000 0.40560  0.00000  0.57090  Biso   1.000  C
  C329     1.0000 0.85130  0.53700  0.88280  Biso   1.000  C
  C330     1.0000 0.14870  0.46300  0.88280  Biso   1.000  C
  C331     1.0000 0.14870  0.53700  0.11720  Biso   1.000  C
  C332     1.0000 0.85130  0.46300  0.11720  Biso   1.000  C
  C333     1.0000 0.35130  0.03700  0.38280  Biso   1.000  C
  C334     1.0000 0.64870  0.96300  0.38280  Biso   1.000  C
  C335     1.0000 0.64870  0.03700  0.61720  Biso   1.000  C
  C336     1.0000 0.35130  0.96300  0.61720  Biso   1.000  C
  C337     1.0000 0.14870  0.46300  0.11720  Biso   1.000  C
  C338     1.0000 0.85130  0.53700  0.11720  Biso   1.000  C
  C339     1.0000 0.85130  0.46300  0.88280  Biso   1.000  C
  C340     1.0000 0.14870  0.53700  0.88280  Biso   1.000  C
  C341     1.0000 0.64870  0.96300  0.61720  Biso   1.000  C
  C342     1.0000 0.35130  0.03700  0.61720  Biso   1.000  C
  C343     1.0000 0.35130  0.96300  0.38280  Biso   1.000  C
  C344     1.0000 0.64870  0.03700  0.38280  Biso   1.000  C
  H185     1.0000 0.86350  0.56110  0.89340  Biso   1.000  H
  H186     1.0000 0.13650  0.43890  0.89340  Biso   1.000  H
  H187     1.0000 0.13650  0.56110  0.10660  Biso   1.000  H
  H188     1.0000 0.86350  0.43890  0.10660  Biso   1.000  H
  H189     1.0000 0.36350  0.06110  0.39340  Biso   1.000  H
  H190     1.0000 0.63650  0.93890  0.39340  Biso   1.000  H
  H191     1.0000 0.63650  0.06110  0.60660  Biso   1.000  H
  H192     1.0000 0.36350  0.93890  0.60660  Biso   1.000  H
  H193     1.0000 0.13650  0.43890  0.10660  Biso   1.000  H
  H194     1.0000 0.86350  0.56110  0.10660  Biso   1.000  H
  H195     1.0000 0.86350  0.43890  0.89340  Biso   1.000  H
  H196     1.0000 0.13650  0.56110  0.89340  Biso   1.000  H
  H197     1.0000 0.63650  0.93890  0.60660  Biso   1.000  H
  H198     1.0000 0.36350  0.06110  0.60660  Biso   1.000  H
  H199     1.0000 0.36350  0.93890  0.39340  Biso   1.000  H
  H200     1.0000 0.63650  0.06110  0.39340  Biso   1.000  H
  C345     1.0000 0.88990  0.50000  0.96820  Biso   1.000  C
  C346     1.0000 0.11010  0.50000  0.96820  Biso   1.000  C
  C347     1.0000 0.11010  0.50000  0.03180  Biso   1.000  C
  C348     1.0000 0.88990  0.50000  0.03180  Biso   1.000  C
  C349     1.0000 0.38990  0.00000  0.46820  Biso   1.000  C
  C350     1.0000 0.61010  0.00000  0.46820  Biso   1.000  C
  C351     1.0000 0.61010  0.00000  0.53180  Biso   1.000  C
  C352     1.0000 0.38990  0.00000  0.53180  Biso   1.000  C
  C353     1.0000 0.81710  0.53510  0.85140  Biso   1.000  C
  C354     1.0000 0.18290  0.46490  0.85140  Biso   1.000  C
  C355     1.0000 0.18290  0.53510  0.14860  Biso   1.000  C
  C356     1.0000 0.81710  0.46490  0.14860  Biso   1.000  C
  C357     1.0000 0.31710  0.03510  0.35140  Biso   1.000  C
  C358     1.0000 0.68290  0.96490  0.35140  Biso   1.000  C
  C359     1.0000 0.68290  0.03510  0.64860  Biso   1.000  C
  C360     1.0000 0.31710  0.96490  0.64860  Biso   1.000  C
  C361     1.0000 0.18290  0.46490  0.14860  Biso   1.000  C
  C362     1.0000 0.81710  0.53510  0.14860  Biso   1.000  C
  C363     1.0000 0.81710  0.46490  0.85140  Biso   1.000  C
  C364     1.0000 0.18290  0.53510  0.85140  Biso   1.000  C
  C365     1.0000 0.68290  0.96490  0.64860  Biso   1.000  C
  C366     1.0000 0.31710  0.03510  0.64860  Biso   1.000  C
  C367     1.0000 0.31710  0.96490  0.35140  Biso   1.000  C
  C368     1.0000 0.68290  0.03510  0.35140  Biso   1.000  C
  C369     1.0000 0.86610  0.50000  0.89740  Biso   1.000  C
  C370     1.0000 0.13390  0.50000  0.89740  Biso   1.000  C
  C371     1.0000 0.13390  0.50000  0.10260  Biso   1.000  C
  C372     1.0000 0.86610  0.50000  0.10260  Biso   1.000  C
  C373     1.0000 0.36610  0.00000  0.39740  Biso   1.000  C
  C374     1.0000 0.63390  0.00000  0.39740  Biso   1.000  C
  C375     1.0000 0.63390  0.00000  0.60260  Biso   1.000  C
  C376     1.0000 0.36610  0.00000  0.60260  Biso   1.000  C
  N13      1.0000 0.92270  0.50000  0.00000  Biso   1.000  N
  N14      1.0000 0.07730  0.50000  0.00000  Biso   1.000  N
  N15      1.0000 0.42270  0.00000  0.50000  Biso   1.000  N
  N16      1.0000 0.57730  0.00000  0.50000  Biso   1.000  N
  C377     1.0000 0.78100  0.64640  0.79800  Biso   1.000  C
  C378     1.0000 0.21900  0.35360  0.79800  Biso   1.000  C
  C379     1.0000 0.21900  0.64640  0.20200  Biso   1.000  C
  C380     1.0000 0.78100  0.35360  0.20200  Biso   1.000  C
  C381     1.0000 0.28100  0.14640  0.29800  Biso   1.000  C
  C382     1.0000 0.71900  0.85360  0.29800  Biso   1.000  C
  C383     1.0000 0.71900  0.14640  0.70200  Biso   1.000  C
  C384     1.0000 0.28100  0.85360  0.70200  Biso   1.000  C
  C385     1.0000 0.21900  0.35360  0.20200  Biso   1.000  C
  C386     1.0000 0.78100  0.64640  0.20200  Biso   1.000  C
  C387     1.0000 0.78100  0.35360  0.79800  Biso   1.000  C
  C388     1.0000 0.21900  0.64640  0.79800  Biso   1.000  C
  C389     1.0000 0.71900  0.85360  0.70200  Biso   1.000  C
  C390     1.0000 0.28100  0.14640  0.70200  Biso   1.000  C
  C391     1.0000 0.28100  0.85360  0.29800  Biso   1.000  C
  C392     1.0000 0.71900  0.14640  0.29800  Biso   1.000  C
  C393     1.0000 0.97441  0.50000  0.87790  Biso   1.000  C
  C394     1.0000 0.02559  0.50000  0.87790  Biso   1.000  C
  C395     1.0000 0.02559  0.50000  0.12210  Biso   1.000  C
  C396     1.0000 0.97441  0.50000  0.12210  Biso   1.000  C
  C397     1.0000 0.47441  0.00000  0.37790  Biso   1.000  C
  C398     1.0000 0.52559  0.00000  0.37790  Biso   1.000  C
  C399     1.0000 0.52559  0.00000  0.62210  Biso   1.000  C
  C400     1.0000 0.47441  0.00000  0.62210  Biso   1.000  C
  H201     1.0000 0.95340  0.50000  0.85520  Biso   1.000  H
  H202     1.0000 0.04660  0.50000  0.85520  Biso   1.000  H
  H203     1.0000 0.04660  0.50000  0.14480  Biso   1.000  H
  H204     1.0000 0.95340  0.50000  0.14480  Biso   1.000  H
  H205     1.0000 0.45340  0.00000  0.35520  Biso   1.000  H
  H206     1.0000 0.54660  0.00000  0.35520  Biso   1.000  H
  H207     1.0000 0.54660  0.00000  0.64480  Biso   1.000  H
  H208     1.0000 0.45340  0.00000  0.64480  Biso   1.000  H
