data_image0
_cell_length_a       28.937
_cell_length_b       28.937
_cell_length_c       10.6939
_cell_angle_alpha    90
_cell_angle_beta     90
_cell_angle_gamma    120

_symmetry_space_group_name_H-M    "P 1"
_symmetry_int_tables_number       1

loop_
  _symmetry_equiv_pos_as_xyz
  'x, y, z'

loop_
  _atom_site_label
  _atom_site_occupancy
  _atom_site_fract_x
  _atom_site_fract_y
  _atom_site_fract_z
  _atom_site_thermal_displace_type
  _atom_site_B_iso_or_equiv
  _atom_site_type_symbol
  O1       1.0000 0.25126  0.33777  0.48570  Biso   1.000  O
  O2       1.0000 0.66223  0.91349  0.48570  Biso   1.000  O
  O3       1.0000 0.08651  0.74874  0.48570  Biso   1.000  O
  O4       1.0000 0.74874  0.66223  0.51430  Biso   1.000  O
  O5       1.0000 0.33777  0.08651  0.51430  Biso   1.000  O
  O6       1.0000 0.91349  0.25126  0.51430  Biso   1.000  O
  N1       1.0000 0.33472  0.33468  0.49920  Biso   1.000  N
  N2       1.0000 0.66532  0.00004  0.49920  Biso   1.000  N
  N3       1.0000 0.99996  0.66528  0.49920  Biso   1.000  N
  N4       1.0000 0.66528  0.66532  0.50080  Biso   1.000  N
  N5       1.0000 0.33468  0.99996  0.50080  Biso   1.000  N
  N6       1.0000 0.00004  0.33472  0.50080  Biso   1.000  N
  C1       1.0000 0.31106  0.27679  0.49790  Biso   1.000  C
  C2       1.0000 0.72321  0.03427  0.49790  Biso   1.000  C
  C3       1.0000 0.96573  0.68894  0.49790  Biso   1.000  C
  C4       1.0000 0.68894  0.72321  0.50210  Biso   1.000  C
  C5       1.0000 0.27679  0.96573  0.50210  Biso   1.000  C
  C6       1.0000 0.03427  0.31106  0.50210  Biso   1.000  C
  H1       1.0000 0.33890  0.26800  0.50260  Biso   1.000  H
  H2       1.0000 0.73200  0.07090  0.50260  Biso   1.000  H
  H3       1.0000 0.92910  0.66110  0.50260  Biso   1.000  H
  H4       1.0000 0.66110  0.73200  0.49740  Biso   1.000  H
  H5       1.0000 0.26800  0.92910  0.49740  Biso   1.000  H
  H6       1.0000 0.07090  0.33890  0.49740  Biso   1.000  H
  H7       1.0000 0.28740  0.26140  0.56780  Biso   1.000  H
  H8       1.0000 0.73860  0.02600  0.56780  Biso   1.000  H
  H9       1.0000 0.97400  0.71260  0.56780  Biso   1.000  H
  H10      1.0000 0.71260  0.73860  0.43220  Biso   1.000  H
  H11      1.0000 0.26140  0.97400  0.43220  Biso   1.000  H
  H12      1.0000 0.02600  0.28740  0.43220  Biso   1.000  H
  H13      1.0000 0.29150  0.26290  0.42150  Biso   1.000  H
  H14      1.0000 0.73710  0.02860  0.42150  Biso   1.000  H
  H15      1.0000 0.97140  0.70850  0.42150  Biso   1.000  H
  H16      1.0000 0.70850  0.73710  0.57850  Biso   1.000  H
  H17      1.0000 0.26290  0.97140  0.57850  Biso   1.000  H
  H18      1.0000 0.02860  0.29150  0.57850  Biso   1.000  H
  C7       1.0000 0.38944  0.36461  0.51100  Biso   1.000  C
  C8       1.0000 0.63539  0.02483  0.51100  Biso   1.000  C
  C9       1.0000 0.97517  0.61056  0.51100  Biso   1.000  C
  C10      1.0000 0.61056  0.63539  0.48900  Biso   1.000  C
  C11      1.0000 0.36461  0.97517  0.48900  Biso   1.000  C
  C12      1.0000 0.02483  0.38944  0.48900  Biso   1.000  C
  H19      1.0000 0.40060  0.36000  0.59230  Biso   1.000  H
  H20      1.0000 0.64000  0.04060  0.59230  Biso   1.000  H
  H21      1.0000 0.95940  0.59940  0.59230  Biso   1.000  H
  H22      1.0000 0.59940  0.64000  0.40770  Biso   1.000  H
  H23      1.0000 0.36000  0.95940  0.40770  Biso   1.000  H
  H24      1.0000 0.04060  0.40060  0.40770  Biso   1.000  H
  H25      1.0000 0.40570  0.35370  0.44820  Biso   1.000  H
  H26      1.0000 0.64630  0.05200  0.44820  Biso   1.000  H
  H27      1.0000 0.94800  0.59430  0.44820  Biso   1.000  H
  H28      1.0000 0.59430  0.64630  0.55180  Biso   1.000  H
  H29      1.0000 0.35370  0.94800  0.55180  Biso   1.000  H
  H30      1.0000 0.05200  0.40570  0.55180  Biso   1.000  H
  H31      1.0000 0.40010  0.40150  0.49890  Biso   1.000  H
  H32      1.0000 0.59850  0.99860  0.49890  Biso   1.000  H
  H33      1.0000 0.00140  0.59990  0.49890  Biso   1.000  H
  H34      1.0000 0.59990  0.59850  0.50110  Biso   1.000  H
  H35      1.0000 0.40150  0.00140  0.50110  Biso   1.000  H
  H36      1.0000 0.99860  0.40010  0.50110  Biso   1.000  H
  C13      1.0000 0.29953  0.35355  0.48880  Biso   1.000  C
  C14      1.0000 0.64645  0.94598  0.48880  Biso   1.000  C
  C15      1.0000 0.05402  0.70047  0.48880  Biso   1.000  C
  C16      1.0000 0.70047  0.64645  0.51120  Biso   1.000  C
  C17      1.0000 0.35355  0.05402  0.51120  Biso   1.000  C
  C18      1.0000 0.94598  0.29953  0.51120  Biso   1.000  C
  H37      1.0000 0.31840  0.39060  0.48470  Biso   1.000  H
  H38      1.0000 0.60940  0.92780  0.48470  Biso   1.000  H
  H39      1.0000 0.07220  0.68160  0.48470  Biso   1.000  H
  H40      1.0000 0.68160  0.60940  0.51530  Biso   1.000  H
  H41      1.0000 0.39060  0.07220  0.51530  Biso   1.000  H
  H42      1.0000 0.92780  0.31840  0.51530  Biso   1.000  H
  O7       1.0000 0.96904  0.06699  0.17860  Biso   1.000  O
  O8       1.0000 0.93301  0.90205  0.17860  Biso   1.000  O
  O9       1.0000 0.09795  0.03096  0.17860  Biso   1.000  O
  O10      1.0000 0.03096  0.93301  0.82140  Biso   1.000  O
  O11      1.0000 0.06699  0.09795  0.82140  Biso   1.000  O
  O12      1.0000 0.90205  0.96904  0.82140  Biso   1.000  O
  H43      1.0000 0.96890  0.05620  0.25250  Biso   1.000  H
  H44      1.0000 0.94380  0.91270  0.25250  Biso   1.000  H
  H45      1.0000 0.08730  0.03110  0.25250  Biso   1.000  H
  H46      1.0000 0.03110  0.94380  0.74750  Biso   1.000  H
  H47      1.0000 0.05620  0.08730  0.74750  Biso   1.000  H
  H48      1.0000 0.91270  0.96890  0.74750  Biso   1.000  H
  O13      1.0000 0.65566  0.41629  0.02530  Biso   1.000  O
  O14      1.0000 0.58371  0.23937  0.02530  Biso   1.000  O
  O15      1.0000 0.76063  0.34434  0.02530  Biso   1.000  O
  O16      1.0000 0.34434  0.58371  0.97470  Biso   1.000  O
  O17      1.0000 0.41629  0.76063  0.97470  Biso   1.000  O
  O18      1.0000 0.23937  0.65566  0.97470  Biso   1.000  O
  H49      1.0000 0.63430  0.40430  0.96370  Biso   1.000  H
  H50      1.0000 0.59570  0.23000  0.96370  Biso   1.000  H
  H51      1.0000 0.77000  0.36570  0.96370  Biso   1.000  H
  H52      1.0000 0.36570  0.59570  0.03630  Biso   1.000  H
  H53      1.0000 0.40430  0.77000  0.03630  Biso   1.000  H
  H54      1.0000 0.23000  0.63430  0.03630  Biso   1.000  H
  H55      1.0000 0.63830  0.41340  0.09170  Biso   1.000  H
  H56      1.0000 0.58660  0.22490  0.09170  Biso   1.000  H
  H57      1.0000 0.77510  0.36170  0.09170  Biso   1.000  H
  H58      1.0000 0.36170  0.58660  0.90830  Biso   1.000  H
  H59      1.0000 0.41340  0.77510  0.90830  Biso   1.000  H
  H60      1.0000 0.22490  0.63830  0.90830  Biso   1.000  H
  O19      1.0000 0.54426  0.26947  0.82300  Biso   1.000  O
  O20      1.0000 0.73053  0.27479  0.82300  Biso   1.000  O
  O21      1.0000 0.72521  0.45574  0.82300  Biso   1.000  O
  O22      1.0000 0.45574  0.73053  0.17700  Biso   1.000  O
  O23      1.0000 0.26947  0.72521  0.17700  Biso   1.000  O
  O24      1.0000 0.27479  0.54426  0.17700  Biso   1.000  O
  H61      1.0000 0.57120  0.27390  0.78610  Biso   1.000  H
  H62      1.0000 0.72610  0.29730  0.78610  Biso   1.000  H
  H63      1.0000 0.70270  0.42880  0.78610  Biso   1.000  H
  H64      1.0000 0.42880  0.72610  0.21390  Biso   1.000  H
  H65      1.0000 0.27390  0.70270  0.21390  Biso   1.000  H
  H66      1.0000 0.29730  0.57120  0.21390  Biso   1.000  H
  H67      1.0000 0.53880  0.25170  0.89040  Biso   1.000  H
  H68      1.0000 0.74830  0.28710  0.89040  Biso   1.000  H
  H69      1.0000 0.71290  0.46120  0.89040  Biso   1.000  H
  H70      1.0000 0.46120  0.74830  0.10960  Biso   1.000  H
  H71      1.0000 0.25170  0.71290  0.10960  Biso   1.000  H
  H72      1.0000 0.28710  0.53880  0.10960  Biso   1.000  H
  O25      1.0000 0.05446  0.09360  0.12120  Biso   1.000  O
  O26      1.0000 0.90640  0.96086  0.12120  Biso   1.000  O
  O27      1.0000 0.03914  0.94554  0.12120  Biso   1.000  O
  O28      1.0000 0.94554  0.90640  0.87880  Biso   1.000  O
  O29      1.0000 0.09360  0.03914  0.87880  Biso   1.000  O
  O30      1.0000 0.96086  0.05446  0.87880  Biso   1.000  O
  H73      1.0000 0.08830  0.11170  0.11580  Biso   1.000  H
  H74      1.0000 0.88830  0.97660  0.11580  Biso   1.000  H
  H75      1.0000 0.02340  0.91170  0.11580  Biso   1.000  H
  H76      1.0000 0.91170  0.88830  0.88420  Biso   1.000  H
  H77      1.0000 0.11170  0.02340  0.88420  Biso   1.000  H
  H78      1.0000 0.97660  0.08830  0.88420  Biso   1.000  H
  H79      1.0000 0.04160  0.11410  0.11250  Biso   1.000  H
  H80      1.0000 0.88590  0.92750  0.11250  Biso   1.000  H
  H81      1.0000 0.07250  0.95840  0.11250  Biso   1.000  H
  H82      1.0000 0.95840  0.88590  0.88750  Biso   1.000  H
  H83      1.0000 0.11410  0.07250  0.88750  Biso   1.000  H
  H84      1.0000 0.92750  0.04160  0.88750  Biso   1.000  H
  O31      1.0000 0.33736  0.15020  0.52180  Biso   1.000  O
  O32      1.0000 0.84980  0.18716  0.52180  Biso   1.000  O
  O33      1.0000 0.81284  0.66264  0.52180  Biso   1.000  O
  O34      1.0000 0.66264  0.84980  0.47820  Biso   1.000  O
  O35      1.0000 0.15020  0.81284  0.47820  Biso   1.000  O
  O36      1.0000 0.18716  0.33736  0.47820  Biso   1.000  O
  H85      1.0000 0.36700  0.16670  0.48350  Biso   1.000  H
  H86      1.0000 0.83330  0.20030  0.48350  Biso   1.000  H
  H87      1.0000 0.79970  0.63300  0.48350  Biso   1.000  H
  H88      1.0000 0.63300  0.83330  0.51650  Biso   1.000  H
  H89      1.0000 0.16670  0.79970  0.51650  Biso   1.000  H
  H90      1.0000 0.20030  0.36700  0.51650  Biso   1.000  H
  H91      1.0000 0.31670  0.16100  0.49580  Biso   1.000  H
  H92      1.0000 0.83900  0.15570  0.49580  Biso   1.000  H
  H93      1.0000 0.84430  0.68330  0.49580  Biso   1.000  H
  H94      1.0000 0.68330  0.83900  0.50420  Biso   1.000  H
  H95      1.0000 0.16100  0.84430  0.50420  Biso   1.000  H
  H96      1.0000 0.15570  0.31670  0.50420  Biso   1.000  H
  O37      1.0000 0.50000  0.50000  0.50000  Biso   1.000  O
  O38      1.0000 0.50000  0.00000  0.50000  Biso   1.000  O
  O39      1.0000 0.00000  0.50000  0.50000  Biso   1.000  O
  O40      1.0000 0.00000  0.00000  0.00000  Biso   1.000  O
  O41      1.0000 0.66670  0.33330  0.39040  Biso   1.000  O
  O42      1.0000 0.33330  0.66670  0.60960  Biso   1.000  O
  O43      1.0000 0.66670  0.33330  0.09630  Biso   1.000  O
  O44      1.0000 0.33330  0.66670  0.90370  Biso   1.000  O
  O45      1.0000 0.66670  0.33330  0.72980  Biso   1.000  O
  O46      1.0000 0.33330  0.66670  0.27020  Biso   1.000  O
  O47      1.0000 0.71654  0.43328  0.17640  Biso   1.000  O
  O48      1.0000 0.56672  0.28326  0.17640  Biso   1.000  O
  O49      1.0000 0.71674  0.28346  0.17640  Biso   1.000  O
  O50      1.0000 0.28346  0.56672  0.82360  Biso   1.000  O
  O51      1.0000 0.43328  0.71674  0.82360  Biso   1.000  O
  O52      1.0000 0.28326  0.71654  0.82360  Biso   1.000  O
  H97      1.0000 0.72680  0.46320  0.21190  Biso   1.000  H
  H98      1.0000 0.53680  0.26360  0.21190  Biso   1.000  H
  H99      1.0000 0.73640  0.27320  0.21190  Biso   1.000  H
  H100     1.0000 0.27320  0.53680  0.78810  Biso   1.000  H
  H101     1.0000 0.46320  0.73640  0.78810  Biso   1.000  H
  H102     1.0000 0.26360  0.72680  0.78810  Biso   1.000  H
  H103     1.0000 0.73870  0.42280  0.19160  Biso   1.000  H
  H104     1.0000 0.57720  0.31590  0.19160  Biso   1.000  H
  H105     1.0000 0.68410  0.26130  0.19160  Biso   1.000  H
  H106     1.0000 0.26130  0.57720  0.80840  Biso   1.000  H
  H107     1.0000 0.42280  0.68410  0.80840  Biso   1.000  H
  H108     1.0000 0.31590  0.73870  0.80840  Biso   1.000  H
  C19      1.0000 0.01513  0.30267  0.17430  Biso   1.000  C
  C20      1.0000 0.69733  0.71246  0.17430  Biso   1.000  C
  C21      1.0000 0.28754  0.98487  0.17430  Biso   1.000  C
  C22      1.0000 0.98487  0.69733  0.82570  Biso   1.000  C
  C23      1.0000 0.30267  0.28754  0.82570  Biso   1.000  C
  C24      1.0000 0.71246  0.01513  0.82570  Biso   1.000  C
  C25      1.0000 0.05019  0.35782  0.16340  Biso   1.000  C
  C26      1.0000 0.64218  0.69237  0.16340  Biso   1.000  C
  C27      1.0000 0.30763  0.94981  0.16340  Biso   1.000  C
  C28      1.0000 0.94981  0.64218  0.83660  Biso   1.000  C
  C29      1.0000 0.35782  0.30763  0.83660  Biso   1.000  C
  C30      1.0000 0.69237  0.05019  0.83660  Biso   1.000  C
  H109     1.0000 0.08690  0.37160  0.15990  Biso   1.000  H
  H110     1.0000 0.62840  0.71530  0.15990  Biso   1.000  H
  H111     1.0000 0.28470  0.91310  0.15990  Biso   1.000  H
  H112     1.0000 0.91310  0.62840  0.84010  Biso   1.000  H
  H113     1.0000 0.37160  0.28470  0.84010  Biso   1.000  H
  H114     1.0000 0.71530  0.08690  0.84010  Biso   1.000  H
  C31      1.0000 0.02970  0.39062  0.16050  Biso   1.000  C
  C32      1.0000 0.60938  0.63908  0.16050  Biso   1.000  C
  C33      1.0000 0.36092  0.97030  0.16050  Biso   1.000  C
  C34      1.0000 0.97030  0.60938  0.83950  Biso   1.000  C
  C35      1.0000 0.39062  0.36092  0.83950  Biso   1.000  C
  C36      1.0000 0.63908  0.02970  0.83950  Biso   1.000  C
  C37      1.0000 0.97408  0.36974  0.16820  Biso   1.000  C
  C38      1.0000 0.63026  0.60434  0.16820  Biso   1.000  C
  C39      1.0000 0.39566  0.02592  0.16820  Biso   1.000  C
  C40      1.0000 0.02592  0.63026  0.83180  Biso   1.000  C
  C41      1.0000 0.36974  0.39566  0.83180  Biso   1.000  C
  C42      1.0000 0.60434  0.97408  0.83180  Biso   1.000  C
  H115     1.0000 0.96000  0.39240  0.16560  Biso   1.000  H
  H116     1.0000 0.60760  0.56760  0.16560  Biso   1.000  H
  H117     1.0000 0.43240  0.04000  0.16560  Biso   1.000  H
  H118     1.0000 0.04000  0.60760  0.83440  Biso   1.000  H
  H119     1.0000 0.39240  0.43240  0.83440  Biso   1.000  H
  H120     1.0000 0.56760  0.96000  0.83440  Biso   1.000  H
  C43      1.0000 0.94165  0.31551  0.17720  Biso   1.000  C
  C44      1.0000 0.68449  0.62614  0.17720  Biso   1.000  C
  C45      1.0000 0.37386  0.05835  0.17720  Biso   1.000  C
  C46      1.0000 0.05835  0.68449  0.82280  Biso   1.000  C
  C47      1.0000 0.31551  0.37386  0.82280  Biso   1.000  C
  C48      1.0000 0.62614  0.94165  0.82280  Biso   1.000  C
  C49      1.0000 0.95972  0.28117  0.18380  Biso   1.000  C
  C50      1.0000 0.71883  0.67855  0.18380  Biso   1.000  C
  C51      1.0000 0.32145  0.04028  0.18380  Biso   1.000  C
  C52      1.0000 0.04028  0.71883  0.81620  Biso   1.000  C
  C53      1.0000 0.28117  0.32145  0.81620  Biso   1.000  C
  C54      1.0000 0.67855  0.95972  0.81620  Biso   1.000  C
  H121     1.0000 0.93690  0.24460  0.19250  Biso   1.000  H
  H122     1.0000 0.75540  0.69230  0.19250  Biso   1.000  H
  H123     1.0000 0.30770  0.06310  0.19250  Biso   1.000  H
  H124     1.0000 0.06310  0.75540  0.80750  Biso   1.000  H
  H125     1.0000 0.24460  0.30770  0.80750  Biso   1.000  H
  H126     1.0000 0.69230  0.93690  0.80750  Biso   1.000  H
  C55      1.0000 0.08590  0.28422  0.16510  Biso   1.000  C
  C56      1.0000 0.71578  0.80168  0.16510  Biso   1.000  C
  C57      1.0000 0.19832  0.91410  0.16510  Biso   1.000  C
  C58      1.0000 0.91410  0.71578  0.83490  Biso   1.000  C
  C59      1.0000 0.28422  0.19832  0.83490  Biso   1.000  C
  C60      1.0000 0.80168  0.08590  0.83490  Biso   1.000  C
  H127     1.0000 0.10550  0.30550  0.23700  Biso   1.000  H
  H128     1.0000 0.69450  0.80000  0.23700  Biso   1.000  H
  H129     1.0000 0.20000  0.89450  0.23700  Biso   1.000  H
  H130     1.0000 0.89450  0.69450  0.76300  Biso   1.000  H
  H131     1.0000 0.30550  0.20000  0.76300  Biso   1.000  H
  H132     1.0000 0.80000  0.10550  0.76300  Biso   1.000  H
  H133     1.0000 0.09850  0.30680  0.09150  Biso   1.000  H
  H134     1.0000 0.69320  0.79170  0.09150  Biso   1.000  H
  H135     1.0000 0.20830  0.90150  0.09150  Biso   1.000  H
  H136     1.0000 0.90150  0.69320  0.90850  Biso   1.000  H
  H137     1.0000 0.30680  0.20830  0.90850  Biso   1.000  H
  H138     1.0000 0.79170  0.09850  0.90850  Biso   1.000  H
  C61      1.0000 0.09653  0.23928  0.14770  Biso   1.000  C
  C62      1.0000 0.76072  0.85725  0.14770  Biso   1.000  C
  C63      1.0000 0.14275  0.90347  0.14770  Biso   1.000  C
  C64      1.0000 0.90347  0.76072  0.85230  Biso   1.000  C
  C65      1.0000 0.23928  0.14275  0.85230  Biso   1.000  C
  C66      1.0000 0.85725  0.09653  0.85230  Biso   1.000  C
  C67      1.0000 0.04998  0.48011  0.16700  Biso   1.000  C
  C68      1.0000 0.51989  0.56987  0.16700  Biso   1.000  C
  C69      1.0000 0.43013  0.95002  0.16700  Biso   1.000  C
  C70      1.0000 0.95002  0.51989  0.83300  Biso   1.000  C
  C71      1.0000 0.48011  0.43013  0.83300  Biso   1.000  C
  C72      1.0000 0.56987  0.04998  0.83300  Biso   1.000  C
  H139     1.0000 0.03440  0.47660  0.24930  Biso   1.000  H
  H140     1.0000 0.52340  0.55780  0.24930  Biso   1.000  H
  H141     1.0000 0.44220  0.96560  0.24930  Biso   1.000  H
  H142     1.0000 0.96560  0.52340  0.75070  Biso   1.000  H
  H143     1.0000 0.47660  0.44220  0.75070  Biso   1.000  H
  H144     1.0000 0.55780  0.03440  0.75070  Biso   1.000  H
  H145     1.0000 0.02330  0.47440  0.10460  Biso   1.000  H
  H146     1.0000 0.52560  0.54890  0.10460  Biso   1.000  H
  H147     1.0000 0.45110  0.97670  0.10460  Biso   1.000  H
  H148     1.0000 0.97670  0.52560  0.89540  Biso   1.000  H
  H149     1.0000 0.47440  0.45110  0.89540  Biso   1.000  H
  H150     1.0000 0.54890  0.02330  0.89540  Biso   1.000  H
  C73      1.0000 0.09853  0.53522  0.15240  Biso   1.000  C
  C74      1.0000 0.46478  0.56331  0.15240  Biso   1.000  C
  C75      1.0000 0.43669  0.90147  0.15240  Biso   1.000  C
  C76      1.0000 0.90147  0.46478  0.84760  Biso   1.000  C
  C77      1.0000 0.53522  0.43669  0.84760  Biso   1.000  C
  C78      1.0000 0.56331  0.09853  0.84760  Biso   1.000  C
  C79      1.0000 0.85061  0.24395  0.19580  Biso   1.000  C
  C80      1.0000 0.75605  0.60666  0.19580  Biso   1.000  C
  C81      1.0000 0.39334  0.14939  0.19580  Biso   1.000  C
  C82      1.0000 0.14939  0.75605  0.80420  Biso   1.000  C
  C83      1.0000 0.24395  0.39334  0.80420  Biso   1.000  C
  C84      1.0000 0.60666  0.85061  0.80420  Biso   1.000  C
  H151     1.0000 0.85360  0.23180  0.27840  Biso   1.000  H
  H152     1.0000 0.76820  0.62180  0.27840  Biso   1.000  H
  H153     1.0000 0.37820  0.14640  0.27840  Biso   1.000  H
  H154     1.0000 0.14640  0.76820  0.72160  Biso   1.000  H
  H155     1.0000 0.23180  0.37820  0.72160  Biso   1.000  H
  H156     1.0000 0.62180  0.85360  0.72160  Biso   1.000  H
  H157     1.0000 0.85810  0.22410  0.13380  Biso   1.000  H
  H158     1.0000 0.77590  0.63400  0.13380  Biso   1.000  H
  H159     1.0000 0.36600  0.14190  0.13380  Biso   1.000  H
  H160     1.0000 0.14190  0.77590  0.86620  Biso   1.000  H
  H161     1.0000 0.22410  0.36600  0.86620  Biso   1.000  H
  H162     1.0000 0.63400  0.85810  0.86620  Biso   1.000  H
  C85      1.0000 0.79658  0.23599  0.17530  Biso   1.000  C
  C86      1.0000 0.76401  0.56059  0.17530  Biso   1.000  C
  C87      1.0000 0.43941  0.20342  0.17530  Biso   1.000  C
  C88      1.0000 0.20342  0.76401  0.82470  Biso   1.000  C
  C89      1.0000 0.23599  0.43941  0.82470  Biso   1.000  C
  C90      1.0000 0.56059  0.79658  0.82470  Biso   1.000  C
  C91      1.0000 0.65442  0.03927  0.18160  Biso   1.000  C
  C92      1.0000 0.96073  0.61515  0.18160  Biso   1.000  C
  C93      1.0000 0.38485  0.34558  0.18160  Biso   1.000  C
  C94      1.0000 0.34558  0.96073  0.81840  Biso   1.000  C
  C95      1.0000 0.03927  0.38485  0.81840  Biso   1.000  C
  C96      1.0000 0.61515  0.65442  0.81840  Biso   1.000  C
  C97      1.0000 0.61848  0.98505  0.17850  Biso   1.000  C
  C98      1.0000 0.01495  0.63343  0.17850  Biso   1.000  C
  C99      1.0000 0.36657  0.38152  0.17850  Biso   1.000  C
  C100     1.0000 0.38152  0.01495  0.82150  Biso   1.000  C
  C101     1.0000 0.98505  0.36657  0.82150  Biso   1.000  C
  C102     1.0000 0.63343  0.61848  0.82150  Biso   1.000  C
  H163     1.0000 0.58200  0.97200  0.18470  Biso   1.000  H
  H164     1.0000 0.02800  0.61000  0.18470  Biso   1.000  H
  H165     1.0000 0.39000  0.41800  0.18470  Biso   1.000  H
  H166     1.0000 0.41800  0.02800  0.81530  Biso   1.000  H
  H167     1.0000 0.97200  0.39000  0.81530  Biso   1.000  H
  H168     1.0000 0.61000  0.58200  0.81530  Biso   1.000  H
  C103     1.0000 0.63981  0.95042  0.16240  Biso   1.000  C
  C104     1.0000 0.04958  0.68939  0.16240  Biso   1.000  C
  C105     1.0000 0.31061  0.36019  0.16240  Biso   1.000  C
  C106     1.0000 0.36019  0.04958  0.83760  Biso   1.000  C
  C107     1.0000 0.95042  0.31061  0.83760  Biso   1.000  C
  C108     1.0000 0.68939  0.63981  0.83760  Biso   1.000  C
  C109     1.0000 0.69476  0.97124  0.16410  Biso   1.000  C
  C110     1.0000 0.02876  0.72352  0.16410  Biso   1.000  C
  C111     1.0000 0.27648  0.30524  0.16410  Biso   1.000  C
  C112     1.0000 0.30524  0.02876  0.83590  Biso   1.000  C
  C113     1.0000 0.97124  0.27648  0.83590  Biso   1.000  C
  C114     1.0000 0.72352  0.69476  0.83590  Biso   1.000  C
  H169     1.0000 0.70860  0.94840  0.15940  Biso   1.000  H
  H170     1.0000 0.05160  0.76020  0.15940  Biso   1.000  H
  H171     1.0000 0.23980  0.29140  0.15940  Biso   1.000  H
  H172     1.0000 0.29140  0.05160  0.84060  Biso   1.000  H
  H173     1.0000 0.94840  0.23980  0.84060  Biso   1.000  H
  H174     1.0000 0.76020  0.70860  0.84060  Biso   1.000  H
  C115     1.0000 0.72812  0.02499  0.16900  Biso   1.000  C
  C116     1.0000 0.97501  0.70313  0.16900  Biso   1.000  C
  C117     1.0000 0.29687  0.27188  0.16900  Biso   1.000  C
  C118     1.0000 0.27188  0.97501  0.83100  Biso   1.000  C
  C119     1.0000 0.02499  0.29687  0.83100  Biso   1.000  C
  C120     1.0000 0.70313  0.72812  0.83100  Biso   1.000  C
  C121     1.0000 0.70936  0.05956  0.17920  Biso   1.000  C
  C122     1.0000 0.94044  0.64980  0.17920  Biso   1.000  C
  C123     1.0000 0.35020  0.29064  0.17920  Biso   1.000  C
  C124     1.0000 0.29064  0.94044  0.82080  Biso   1.000  C
  C125     1.0000 0.05956  0.35020  0.82080  Biso   1.000  C
  C126     1.0000 0.64980  0.70936  0.82080  Biso   1.000  C
  H175     1.0000 0.73230  0.09620  0.18570  Biso   1.000  H
  H176     1.0000 0.90380  0.63610  0.18570  Biso   1.000  H
  H177     1.0000 0.36390  0.26770  0.18570  Biso   1.000  H
  H178     1.0000 0.26770  0.90380  0.81430  Biso   1.000  H
  H179     1.0000 0.09620  0.36390  0.81430  Biso   1.000  H
  H180     1.0000 0.63610  0.73230  0.81430  Biso   1.000  H
  C127     1.0000 0.58119  0.05721  0.18600  Biso   1.000  C
  C128     1.0000 0.94279  0.52398  0.18600  Biso   1.000  C
  C129     1.0000 0.47602  0.41881  0.18600  Biso   1.000  C
  C130     1.0000 0.41881  0.94279  0.81400  Biso   1.000  C
  C131     1.0000 0.05721  0.47602  0.81400  Biso   1.000  C
  C132     1.0000 0.52398  0.58119  0.81400  Biso   1.000  C
  H181     1.0000 0.56430  0.03820  0.26250  Biso   1.000  H
  H182     1.0000 0.96180  0.52610  0.26250  Biso   1.000  H
  H183     1.0000 0.47390  0.43570  0.26250  Biso   1.000  H
  H184     1.0000 0.43570  0.96180  0.73750  Biso   1.000  H
  H185     1.0000 0.03820  0.47390  0.73750  Biso   1.000  H
  H186     1.0000 0.52610  0.56430  0.73750  Biso   1.000  H
  H187     1.0000 0.56530  0.03270  0.11640  Biso   1.000  H
  H188     1.0000 0.96730  0.53260  0.11640  Biso   1.000  H
  H189     1.0000 0.46740  0.43470  0.11640  Biso   1.000  H
  H190     1.0000 0.43470  0.96730  0.88360  Biso   1.000  H
  H191     1.0000 0.03270  0.46740  0.88360  Biso   1.000  H
  H192     1.0000 0.53260  0.56530  0.88360  Biso   1.000  H
  C133     1.0000 0.57238  0.10308  0.16990  Biso   1.000  C
  C134     1.0000 0.89692  0.46930  0.16990  Biso   1.000  C
  C135     1.0000 0.53070  0.42762  0.16990  Biso   1.000  C
  C136     1.0000 0.42762  0.89692  0.83010  Biso   1.000  C
  C137     1.0000 0.10308  0.53070  0.83010  Biso   1.000  C
  C138     1.0000 0.46930  0.57238  0.83010  Biso   1.000  C
  C139     1.0000 0.62060  0.86197  0.15750  Biso   1.000  C
  C140     1.0000 0.13803  0.75863  0.15750  Biso   1.000  C
  C141     1.0000 0.24137  0.37940  0.15750  Biso   1.000  C
  C142     1.0000 0.37940  0.13803  0.84250  Biso   1.000  C
  C143     1.0000 0.86197  0.24137  0.84250  Biso   1.000  C
  C144     1.0000 0.75863  0.62060  0.84250  Biso   1.000  C
  H193     1.0000 0.64040  0.86450  0.23280  Biso   1.000  H
  H194     1.0000 0.13550  0.77590  0.23280  Biso   1.000  H
  H195     1.0000 0.22410  0.35960  0.23280  Biso   1.000  H
  H196     1.0000 0.35960  0.13550  0.76720  Biso   1.000  H
  H197     1.0000 0.86450  0.22410  0.76720  Biso   1.000  H
  H198     1.0000 0.77590  0.64040  0.76720  Biso   1.000  H
  H199     1.0000 0.64410  0.86970  0.08630  Biso   1.000  H
  H200     1.0000 0.13030  0.77440  0.08630  Biso   1.000  H
  H201     1.0000 0.22560  0.35590  0.08630  Biso   1.000  H
  H202     1.0000 0.35590  0.13030  0.91370  Biso   1.000  H
  H203     1.0000 0.86970  0.22560  0.91370  Biso   1.000  H
  H204     1.0000 0.77440  0.64410  0.91370  Biso   1.000  H
  C145     1.0000 0.57561  0.80730  0.14530  Biso   1.000  C
  C146     1.0000 0.19270  0.76831  0.14530  Biso   1.000  C
  C147     1.0000 0.23169  0.42439  0.14530  Biso   1.000  C
  C148     1.0000 0.42439  0.19270  0.85470  Biso   1.000  C
  C149     1.0000 0.80730  0.23169  0.85470  Biso   1.000  C
  C150     1.0000 0.76831  0.57561  0.85470  Biso   1.000  C
  C151     1.0000 0.81812  0.09593  0.18520  Biso   1.000  C
  C152     1.0000 0.90407  0.72219  0.18520  Biso   1.000  C
  C153     1.0000 0.27781  0.18188  0.18520  Biso   1.000  C
  C154     1.0000 0.18188  0.90407  0.81480  Biso   1.000  C
  C155     1.0000 0.09593  0.27781  0.81480  Biso   1.000  C
  C156     1.0000 0.72219  0.81812  0.81480  Biso   1.000  C
  H205     1.0000 0.81380  0.10520  0.26990  Biso   1.000  H
  H206     1.0000 0.89480  0.70860  0.26990  Biso   1.000  H
  H207     1.0000 0.29140  0.18620  0.26990  Biso   1.000  H
  H208     1.0000 0.18620  0.89480  0.73010  Biso   1.000  H
  H209     1.0000 0.10520  0.29140  0.73010  Biso   1.000  H
  H210     1.0000 0.70860  0.81380  0.73010  Biso   1.000  H
  H211     1.0000 0.81240  0.11840  0.12740  Biso   1.000  H
  H212     1.0000 0.88160  0.69400  0.12740  Biso   1.000  H
  H213     1.0000 0.30600  0.18760  0.12740  Biso   1.000  H
  H214     1.0000 0.18760  0.88160  0.87260  Biso   1.000  H
  H215     1.0000 0.11840  0.30600  0.87260  Biso   1.000  H
  H216     1.0000 0.69400  0.81240  0.87260  Biso   1.000  H
  C157     1.0000 0.87433  0.10296  0.16470  Biso   1.000  C
  C158     1.0000 0.89704  0.77137  0.16470  Biso   1.000  C
  C159     1.0000 0.22863  0.12567  0.16470  Biso   1.000  C
  C160     1.0000 0.12567  0.89704  0.83530  Biso   1.000  C
  C161     1.0000 0.10296  0.22863  0.83530  Biso   1.000  C
  C162     1.0000 0.77137  0.87433  0.83530  Biso   1.000  C
  C163     1.0000 0.01634  0.14541  0.42420  Biso   1.000  C
  C164     1.0000 0.85459  0.87093  0.42420  Biso   1.000  C
  C165     1.0000 0.12907  0.98366  0.42420  Biso   1.000  C
  C166     1.0000 0.98366  0.85459  0.57580  Biso   1.000  C
  C167     1.0000 0.14541  0.12907  0.57580  Biso   1.000  C
  C168     1.0000 0.87093  0.01634  0.57580  Biso   1.000  C
  H217     1.0000 0.03780  0.13760  0.37410  Biso   1.000  H
  H218     1.0000 0.86240  0.90020  0.37410  Biso   1.000  H
  H219     1.0000 0.09980  0.96220  0.37410  Biso   1.000  H
  H220     1.0000 0.96220  0.86240  0.62590  Biso   1.000  H
  H221     1.0000 0.13760  0.09980  0.62590  Biso   1.000  H
  H222     1.0000 0.90020  0.03780  0.62590  Biso   1.000  H
  C169     1.0000 0.01588  0.13811  0.54960  Biso   1.000  C
  C170     1.0000 0.86189  0.87777  0.54960  Biso   1.000  C
  C171     1.0000 0.12223  0.98412  0.54960  Biso   1.000  C
  C172     1.0000 0.98412  0.86189  0.45040  Biso   1.000  C
  C173     1.0000 0.13811  0.12223  0.45040  Biso   1.000  C
  C174     1.0000 0.87777  0.01588  0.45040  Biso   1.000  C
  H223     1.0000 0.03670  0.12540  0.58560  Biso   1.000  H
  H224     1.0000 0.87460  0.91130  0.58560  Biso   1.000  H
  H225     1.0000 0.08870  0.96330  0.58560  Biso   1.000  H
  H226     1.0000 0.96330  0.87460  0.41440  Biso   1.000  H
  H227     1.0000 0.12540  0.08870  0.41440  Biso   1.000  H
  H228     1.0000 0.91130  0.03670  0.41440  Biso   1.000  H
  C175     1.0000 0.98404  0.14869  0.62640  Biso   1.000  C
  C176     1.0000 0.85131  0.83535  0.62640  Biso   1.000  C
  C177     1.0000 0.16465  0.01596  0.62640  Biso   1.000  C
  C178     1.0000 0.01596  0.85131  0.37360  Biso   1.000  C
  C179     1.0000 0.14869  0.16465  0.37360  Biso   1.000  C
  C180     1.0000 0.83535  0.98404  0.37360  Biso   1.000  C
  H229     1.0000 0.98330  0.14380  0.71250  Biso   1.000  H
  H230     1.0000 0.85620  0.83950  0.71250  Biso   1.000  H
  H231     1.0000 0.16050  0.01670  0.71250  Biso   1.000  H
  H232     1.0000 0.01670  0.85620  0.28750  Biso   1.000  H
  H233     1.0000 0.14380  0.16050  0.28750  Biso   1.000  H
  H234     1.0000 0.83950  0.98330  0.28750  Biso   1.000  H
  C181     1.0000 0.95266  0.16820  0.57210  Biso   1.000  C
  C182     1.0000 0.83180  0.78446  0.57210  Biso   1.000  C
  C183     1.0000 0.21554  0.04734  0.57210  Biso   1.000  C
  C184     1.0000 0.04734  0.83180  0.42790  Biso   1.000  C
  C185     1.0000 0.16820  0.21554  0.42790  Biso   1.000  C
  C186     1.0000 0.78446  0.95266  0.42790  Biso   1.000  C
  H235     1.0000 0.93120  0.17600  0.62220  Biso   1.000  H
  H236     1.0000 0.82400  0.75520  0.62220  Biso   1.000  H
  H237     1.0000 0.24480  0.06880  0.62220  Biso   1.000  H
  H238     1.0000 0.06880  0.82400  0.37780  Biso   1.000  H
  H239     1.0000 0.17600  0.24480  0.37780  Biso   1.000  H
  H240     1.0000 0.75520  0.93120  0.37780  Biso   1.000  H
  C187     1.0000 0.95354  0.17632  0.44490  Biso   1.000  C
  C188     1.0000 0.82368  0.77722  0.44490  Biso   1.000  C
  C189     1.0000 0.22278  0.04646  0.44490  Biso   1.000  C
  C190     1.0000 0.04646  0.82368  0.55510  Biso   1.000  C
  C191     1.0000 0.17632  0.22278  0.55510  Biso   1.000  C
  C192     1.0000 0.77722  0.95354  0.55510  Biso   1.000  C
  H241     1.0000 0.93270  0.18920  0.40880  Biso   1.000  H
  H242     1.0000 0.81080  0.74350  0.40880  Biso   1.000  H
  H243     1.0000 0.25650  0.06730  0.40880  Biso   1.000  H
  H244     1.0000 0.06730  0.81080  0.59120  Biso   1.000  H
  H245     1.0000 0.18920  0.25650  0.59120  Biso   1.000  H
  H246     1.0000 0.74350  0.93270  0.59120  Biso   1.000  H
  C193     1.0000 0.20000  0.68160  0.41460  Biso   1.000  C
  C194     1.0000 0.31840  0.51840  0.41460  Biso   1.000  C
  C195     1.0000 0.48160  0.80000  0.41460  Biso   1.000  C
  C196     1.0000 0.80000  0.31840  0.58540  Biso   1.000  C
  C197     1.0000 0.68160  0.48160  0.58540  Biso   1.000  C
  C198     1.0000 0.51840  0.20000  0.58540  Biso   1.000  C
  H247     1.0000 0.22950  0.70400  0.36610  Biso   1.000  H
  H248     1.0000 0.29600  0.52550  0.36610  Biso   1.000  H
  H249     1.0000 0.47450  0.77050  0.36610  Biso   1.000  H
  H250     1.0000 0.77050  0.29600  0.63390  Biso   1.000  H
  H251     1.0000 0.70400  0.47450  0.63390  Biso   1.000  H
  H252     1.0000 0.52550  0.22950  0.63390  Biso   1.000  H
  C199     1.0000 0.20220  0.67830  0.53780  Biso   1.000  C
  C200     1.0000 0.32170  0.52390  0.53780  Biso   1.000  C
  C201     1.0000 0.47610  0.79780  0.53780  Biso   1.000  C
  C202     1.0000 0.79780  0.32170  0.46220  Biso   1.000  C
  C203     1.0000 0.67830  0.47610  0.46220  Biso   1.000  C
  C204     1.0000 0.52390  0.20220  0.46220  Biso   1.000  C
  H253     1.0000 0.23510  0.69990  0.57570  Biso   1.000  H
  H254     1.0000 0.30010  0.53520  0.57570  Biso   1.000  H
  H255     1.0000 0.46480  0.76490  0.57570  Biso   1.000  H
  H256     1.0000 0.76490  0.30010  0.42430  Biso   1.000  H
  H257     1.0000 0.69990  0.46480  0.42430  Biso   1.000  H
  H258     1.0000 0.53520  0.23510  0.42430  Biso   1.000  H
  C205     1.0000 0.16420  0.64890  0.61930  Biso   1.000  C
  C206     1.0000 0.35110  0.51530  0.61930  Biso   1.000  C
  C207     1.0000 0.48470  0.83580  0.61930  Biso   1.000  C
  C208     1.0000 0.83580  0.35110  0.38070  Biso   1.000  C
  C209     1.0000 0.64890  0.48470  0.38070  Biso   1.000  C
  C210     1.0000 0.51530  0.16420  0.38070  Biso   1.000  C
  C211     1.0000 0.11710  0.61650  0.56320  Biso   1.000  C
  C212     1.0000 0.38350  0.50060  0.56320  Biso   1.000  C
  C213     1.0000 0.49940  0.88290  0.56320  Biso   1.000  C
  C214     1.0000 0.88290  0.38350  0.43680  Biso   1.000  C
  C215     1.0000 0.61650  0.49940  0.43680  Biso   1.000  C
  C216     1.0000 0.50060  0.11710  0.43680  Biso   1.000  C
  H259     1.0000 0.08760  0.59410  0.61160  Biso   1.000  H
  H260     1.0000 0.40590  0.49350  0.61160  Biso   1.000  H
  H261     1.0000 0.50650  0.91240  0.61160  Biso   1.000  H
  H262     1.0000 0.91240  0.40590  0.38840  Biso   1.000  H
  H263     1.0000 0.59410  0.50650  0.38840  Biso   1.000  H
  H264     1.0000 0.49350  0.08760  0.38840  Biso   1.000  H
  C217     1.0000 0.10400  0.61930  0.43370  Biso   1.000  C
  C218     1.0000 0.38070  0.48470  0.43370  Biso   1.000  C
  C219     1.0000 0.51530  0.89600  0.43370  Biso   1.000  C
  C220     1.0000 0.89600  0.38070  0.56630  Biso   1.000  C
  C221     1.0000 0.61930  0.51530  0.56630  Biso   1.000  C
  C222     1.0000 0.48470  0.10400  0.56630  Biso   1.000  C
  H265     1.0000 0.07110  0.59770  0.39580  Biso   1.000  H
  H266     1.0000 0.40230  0.47340  0.39580  Biso   1.000  H
  H267     1.0000 0.52660  0.92890  0.39580  Biso   1.000  H
  H268     1.0000 0.92890  0.40230  0.60420  Biso   1.000  H
  H269     1.0000 0.59770  0.52660  0.60420  Biso   1.000  H
  H270     1.0000 0.47340  0.07110  0.60420  Biso   1.000  H
  C223     1.0000 0.19270  0.53830  0.56880  Biso   1.000  C
  C224     1.0000 0.46170  0.65440  0.56880  Biso   1.000  C
  C225     1.0000 0.34560  0.80730  0.56880  Biso   1.000  C
  C226     1.0000 0.80730  0.46170  0.43120  Biso   1.000  C
  C227     1.0000 0.53830  0.34560  0.43120  Biso   1.000  C
  C228     1.0000 0.65440  0.19270  0.43120  Biso   1.000  C
  H271     1.0000 0.20260  0.56970  0.61260  Biso   1.000  H
  H272     1.0000 0.43030  0.63290  0.61260  Biso   1.000  H
  H273     1.0000 0.36710  0.79740  0.61260  Biso   1.000  H
  H274     1.0000 0.79740  0.43030  0.38740  Biso   1.000  H
  H275     1.0000 0.56970  0.36710  0.38740  Biso   1.000  H
  H276     1.0000 0.63290  0.20260  0.38740  Biso   1.000  H
  C229     1.0000 0.19680  0.54750  0.42500  Biso   1.000  C
  C230     1.0000 0.45250  0.64930  0.42500  Biso   1.000  C
  C231     1.0000 0.35070  0.80320  0.42500  Biso   1.000  C
  C232     1.0000 0.80320  0.45250  0.57500  Biso   1.000  C
  C233     1.0000 0.54750  0.35070  0.57500  Biso   1.000  C
  C234     1.0000 0.64930  0.19680  0.57500  Biso   1.000  C
  H277     1.0000 0.20680  0.57900  0.38180  Biso   1.000  H
  H278     1.0000 0.42100  0.62780  0.38180  Biso   1.000  H
  H279     1.0000 0.37220  0.79320  0.38180  Biso   1.000  H
  H280     1.0000 0.79320  0.42100  0.61820  Biso   1.000  H
  H281     1.0000 0.57900  0.37220  0.61820  Biso   1.000  H
  H282     1.0000 0.62780  0.20680  0.61820  Biso   1.000  H
  C235     1.0000 0.17790  0.49500  0.36170  Biso   1.000  C
  C236     1.0000 0.50500  0.68290  0.36170  Biso   1.000  C
  C237     1.0000 0.31710  0.82210  0.36170  Biso   1.000  C
  C238     1.0000 0.82210  0.50500  0.63830  Biso   1.000  C
  C239     1.0000 0.49500  0.31710  0.63830  Biso   1.000  C
  C240     1.0000 0.68290  0.17790  0.63830  Biso   1.000  C
  C241     1.0000 0.16910  0.44960  0.41160  Biso   1.000  C
  C242     1.0000 0.55040  0.71950  0.41160  Biso   1.000  C
  C243     1.0000 0.28050  0.83090  0.41160  Biso   1.000  C
  C244     1.0000 0.83090  0.55040  0.58840  Biso   1.000  C
  C245     1.0000 0.44960  0.28050  0.58840  Biso   1.000  C
  C246     1.0000 0.71950  0.16910  0.58840  Biso   1.000  C
  H283     1.0000 0.15920  0.41820  0.36780  Biso   1.000  H
  H284     1.0000 0.58180  0.74100  0.36780  Biso   1.000  H
  H285     1.0000 0.25900  0.84080  0.36780  Biso   1.000  H
  H286     1.0000 0.84080  0.58180  0.63220  Biso   1.000  H
  H287     1.0000 0.41820  0.25900  0.63220  Biso   1.000  H
  H288     1.0000 0.74100  0.15920  0.63220  Biso   1.000  H
  C247     1.0000 0.16990  0.45270  0.55340  Biso   1.000  C
  C248     1.0000 0.54730  0.71720  0.55340  Biso   1.000  C
  C249     1.0000 0.28280  0.83010  0.55340  Biso   1.000  C
  C250     1.0000 0.83010  0.54730  0.44660  Biso   1.000  C
  C251     1.0000 0.45270  0.28280  0.44660  Biso   1.000  C
  C252     1.0000 0.71720  0.16990  0.44660  Biso   1.000  C
  H289     1.0000 0.16000  0.42130  0.59660  Biso   1.000  H
  H290     1.0000 0.57870  0.73870  0.59660  Biso   1.000  H
  H291     1.0000 0.26130  0.84000  0.59660  Biso   1.000  H
  H292     1.0000 0.84000  0.57870  0.40340  Biso   1.000  H
  H293     1.0000 0.42130  0.26130  0.40340  Biso   1.000  H
  H294     1.0000 0.73870  0.16000  0.40340  Biso   1.000  H
  N7       1.0000 0.98633  0.16410  0.36870  Biso   1.000  N
  N8       1.0000 0.83590  0.82223  0.36870  Biso   1.000  N
  N9       1.0000 0.17777  0.01367  0.36870  Biso   1.000  N
  N10      1.0000 0.01367  0.83590  0.63130  Biso   1.000  N
  N11      1.0000 0.16410  0.17777  0.63130  Biso   1.000  N
  N12      1.0000 0.82223  0.98633  0.63130  Biso   1.000  N
  N13      1.0000 0.15380  0.64880  0.36500  Biso   1.000  N
  N14      1.0000 0.35120  0.50500  0.36500  Biso   1.000  N
  N15      1.0000 0.49500  0.84620  0.36500  Biso   1.000  N
  N16      1.0000 0.84620  0.35120  0.63500  Biso   1.000  N
  N17      1.0000 0.64880  0.49500  0.63500  Biso   1.000  N
  N18      1.0000 0.50500  0.15380  0.63500  Biso   1.000  N
  N19      1.0000 0.17960  0.49600  0.61960  Biso   1.000  N
  N20      1.0000 0.50400  0.68360  0.61960  Biso   1.000  N
  N21      1.0000 0.31640  0.82040  0.61960  Biso   1.000  N
  N22      1.0000 0.82040  0.50400  0.38040  Biso   1.000  N
  N23      1.0000 0.49600  0.31640  0.38040  Biso   1.000  N
  N24      1.0000 0.68360  0.17960  0.38040  Biso   1.000  N
  O53      1.0000 0.05891  0.19242  0.16830  Biso   1.000  O
  O54      1.0000 0.80758  0.86649  0.16830  Biso   1.000  O
  O55      1.0000 0.13351  0.94109  0.16830  Biso   1.000  O
  O56      1.0000 0.94109  0.80758  0.83170  Biso   1.000  O
  O57      1.0000 0.19242  0.13351  0.83170  Biso   1.000  O
  O58      1.0000 0.86649  0.05891  0.83170  Biso   1.000  O
  O59      1.0000 0.14312  0.24976  0.12480  Biso   1.000  O
  O60      1.0000 0.75024  0.89336  0.12480  Biso   1.000  O
  O61      1.0000 0.10664  0.85688  0.12480  Biso   1.000  O
  O62      1.0000 0.85688  0.75024  0.87520  Biso   1.000  O
  O63      1.0000 0.24976  0.10664  0.87520  Biso   1.000  O
  O64      1.0000 0.89336  0.14312  0.87520  Biso   1.000  O
  O65      1.0000 0.03154  0.26547  0.18210  Biso   1.000  O
  O66      1.0000 0.73453  0.76607  0.18210  Biso   1.000  O
  O67      1.0000 0.23393  0.96846  0.18210  Biso   1.000  O
  O68      1.0000 0.96846  0.73453  0.81790  Biso   1.000  O
  O69      1.0000 0.26547  0.23393  0.81790  Biso   1.000  O
  O70      1.0000 0.76607  0.03154  0.81790  Biso   1.000  O
  O71      1.0000 0.08864  0.57470  0.17440  Biso   1.000  O
  O72      1.0000 0.42530  0.51394  0.17440  Biso   1.000  O
  O73      1.0000 0.48606  0.91136  0.17440  Biso   1.000  O
  O74      1.0000 0.91136  0.42530  0.82560  Biso   1.000  O
  O75      1.0000 0.57470  0.48606  0.82560  Biso   1.000  O
  O76      1.0000 0.51394  0.08864  0.82560  Biso   1.000  O
  O77      1.0000 0.14252  0.54276  0.13190  Biso   1.000  O
  O78      1.0000 0.45724  0.59976  0.13190  Biso   1.000  O
  O79      1.0000 0.40024  0.85748  0.13190  Biso   1.000  O
  O80      1.0000 0.85748  0.45724  0.86810  Biso   1.000  O
  O81      1.0000 0.54276  0.40024  0.86810  Biso   1.000  O
  O82      1.0000 0.59976  0.14252  0.86810  Biso   1.000  O
  O83      1.0000 0.06657  0.44360  0.15190  Biso   1.000  O
  O84      1.0000 0.55640  0.62297  0.15190  Biso   1.000  O
  O85      1.0000 0.37703  0.93343  0.15190  Biso   1.000  O
  O86      1.0000 0.93343  0.55640  0.84810  Biso   1.000  O
  O87      1.0000 0.44360  0.37703  0.84810  Biso   1.000  O
  O88      1.0000 0.62297  0.06657  0.84810  Biso   1.000  O
  O89      1.0000 0.75940  0.18716  0.19500  Biso   1.000  O
  O90      1.0000 0.81284  0.57224  0.19500  Biso   1.000  O
  O91      1.0000 0.42776  0.24060  0.19500  Biso   1.000  O
  O92      1.0000 0.24060  0.81284  0.80500  Biso   1.000  O
  O93      1.0000 0.18716  0.42776  0.80500  Biso   1.000  O
  O94      1.0000 0.57224  0.75940  0.80500  Biso   1.000  O
  O95      1.0000 0.78796  0.27185  0.14999  Biso   1.000  O
  O96      1.0000 0.72815  0.51611  0.14999  Biso   1.000  O
  O97      1.0000 0.48389  0.21204  0.14999  Biso   1.000  O
  O98      1.0000 0.21204  0.72815  0.85001  Biso   1.000  O
  O99      1.0000 0.27185  0.48389  0.85001  Biso   1.000  O
  O100     1.0000 0.51611  0.78796  0.85001  Biso   1.000  O
  O101     1.0000 0.88739  0.29977  0.18160  Biso   1.000  O
  O102     1.0000 0.70023  0.58762  0.18160  Biso   1.000  O
  O103     1.0000 0.41238  0.11261  0.18160  Biso   1.000  O
  O104     1.0000 0.11261  0.70023  0.81840  Biso   1.000  O
  O105     1.0000 0.29977  0.41238  0.81840  Biso   1.000  O
  O106     1.0000 0.58762  0.88739  0.81840  Biso   1.000  O
  O107     1.0000 0.60900  0.14906  0.16770  Biso   1.000  O
  O108     1.0000 0.85094  0.45994  0.16770  Biso   1.000  O
  O109     1.0000 0.54006  0.39100  0.16770  Biso   1.000  O
  O110     1.0000 0.39100  0.85094  0.83230  Biso   1.000  O
  O111     1.0000 0.14906  0.54006  0.83230  Biso   1.000  O
  O112     1.0000 0.45994  0.60900  0.83230  Biso   1.000  O
  O113     1.0000 0.52404  0.08786  0.14870  Biso   1.000  O
  O114     1.0000 0.91214  0.43618  0.14870  Biso   1.000  O
  O115     1.0000 0.56382  0.47596  0.14870  Biso   1.000  O
  O116     1.0000 0.47596  0.91214  0.85130  Biso   1.000  O
  O117     1.0000 0.08786  0.56382  0.85130  Biso   1.000  O
  O118     1.0000 0.43618  0.52404  0.85130  Biso   1.000  O
  O119     1.0000 0.63671  0.07518  0.18990  Biso   1.000  O
  O120     1.0000 0.92482  0.56153  0.18990  Biso   1.000  O
  O121     1.0000 0.43847  0.36329  0.18990  Biso   1.000  O
  O122     1.0000 0.36329  0.92482  0.81010  Biso   1.000  O
  O123     1.0000 0.07518  0.43847  0.81010  Biso   1.000  O
  O124     1.0000 0.56153  0.63671  0.81010  Biso   1.000  O
  O125     1.0000 0.52760  0.79876  0.15410  Biso   1.000  O
  O126     1.0000 0.20124  0.72884  0.15410  Biso   1.000  O
  O127     1.0000 0.27116  0.47240  0.15410  Biso   1.000  O
  O128     1.0000 0.47240  0.20124  0.84590  Biso   1.000  O
  O129     1.0000 0.79876  0.27116  0.84590  Biso   1.000  O
  O130     1.0000 0.72884  0.52760  0.84590  Biso   1.000  O
  O131     1.0000 0.58209  0.77022  0.12970  Biso   1.000  O
  O132     1.0000 0.22978  0.81187  0.12970  Biso   1.000  O
  O133     1.0000 0.18813  0.41791  0.12970  Biso   1.000  O
  O134     1.0000 0.41791  0.22978  0.87030  Biso   1.000  O
  O135     1.0000 0.77022  0.18813  0.87030  Biso   1.000  O
  O136     1.0000 0.81187  0.58209  0.87030  Biso   1.000  O
  O137     1.0000 0.60295  0.89933  0.16222  Biso   1.000  O
  O138     1.0000 0.10067  0.70362  0.16222  Biso   1.000  O
  O139     1.0000 0.29638  0.39705  0.16222  Biso   1.000  O
  O140     1.0000 0.39705  0.10067  0.83778  Biso   1.000  O
  O141     1.0000 0.89933  0.29638  0.83778  Biso   1.000  O
  O142     1.0000 0.70362  0.60295  0.83778  Biso   1.000  O
  O143     1.0000 0.90942  0.15072  0.19170  Biso   1.000  O
  O144     1.0000 0.84928  0.75870  0.19170  Biso   1.000  O
  O145     1.0000 0.24130  0.09058  0.19170  Biso   1.000  O
  O146     1.0000 0.09058  0.84928  0.80830  Biso   1.000  O
  O147     1.0000 0.15072  0.24130  0.80830  Biso   1.000  O
  O148     1.0000 0.75870  0.90942  0.80830  Biso   1.000  O
  O149     1.0000 0.87969  0.06752  0.13520  Biso   1.000  O
  O150     1.0000 0.93248  0.81217  0.13520  Biso   1.000  O
  O151     1.0000 0.18783  0.12031  0.13520  Biso   1.000  O
  O152     1.0000 0.12031  0.93248  0.86480  Biso   1.000  O
  O153     1.0000 0.06752  0.18783  0.86480  Biso   1.000  O
  O154     1.0000 0.81217  0.87969  0.86480  Biso   1.000  O
  O155     1.0000 0.78261  0.04270  0.16060  Biso   1.000  O
  O156     1.0000 0.95730  0.73991  0.16060  Biso   1.000  O
  O157     1.0000 0.26009  0.21739  0.16060  Biso   1.000  O
  O158     1.0000 0.21739  0.95730  0.83940  Biso   1.000  O
  O159     1.0000 0.04270  0.26009  0.83940  Biso   1.000  O
  O160     1.0000 0.73991  0.78261  0.83940  Biso   1.000  O
  O161     1.0000 0.97771  0.15953  0.00390  Biso   1.000  O
  O162     1.0000 0.84047  0.81818  0.00390  Biso   1.000  O
  O163     1.0000 0.18182  0.02229  0.00390  Biso   1.000  O
  O164     1.0000 0.02229  0.84047  0.99610  Biso   1.000  O
  O165     1.0000 0.15953  0.18182  0.99610  Biso   1.000  O
  O166     1.0000 0.81818  0.97771  0.99610  Biso   1.000  O
  Cu1      1.0000 0.98394  0.16773  0.18235  Biso   1.000  Cu
  Cu2      1.0000 0.83227  0.81621  0.18235  Biso   1.000  Cu
  Cu3      1.0000 0.18379  0.01606  0.18235  Biso   1.000  Cu
  Cu4      1.0000 0.01606  0.83227  0.81765  Biso   1.000  Cu
  Cu5      1.0000 0.16773  0.18379  0.81765  Biso   1.000  Cu
  Cu6      1.0000 0.81621  0.98394  0.81765  Biso   1.000  Cu
  Cu7      1.0000 0.14707  0.65046  0.17633  Biso   1.000  Cu
  Cu8      1.0000 0.34954  0.49661  0.17633  Biso   1.000  Cu
  Cu9      1.0000 0.50339  0.85293  0.17633  Biso   1.000  Cu
  Cu10     1.0000 0.85293  0.34954  0.82367  Biso   1.000  Cu
  Cu11     1.0000 0.65046  0.50339  0.82367  Biso   1.000  Cu
  Cu12     1.0000 0.49661  0.14707  0.82367  Biso   1.000  Cu
  Cu13     1.0000 0.16294  0.47808  0.16651  Biso   1.000  Cu
  Cu14     1.0000 0.52192  0.68486  0.16651  Biso   1.000  Cu
  Cu15     1.0000 0.31514  0.83706  0.16651  Biso   1.000  Cu
  Cu16     1.0000 0.83706  0.52192  0.83349  Biso   1.000  Cu
  Cu17     1.0000 0.47808  0.31514  0.83349  Biso   1.000  Cu
  Cu18     1.0000 0.68486  0.16294  0.83349  Biso   1.000  Cu
  Cu19     1.0000 0.68437  0.17100  0.19115  Biso   1.000  Cu
  Cu20     1.0000 0.82900  0.51337  0.19115  Biso   1.000  Cu
  Cu21     1.0000 0.48663  0.31563  0.19115  Biso   1.000  Cu
  Cu22     1.0000 0.31563  0.82900  0.80885  Biso   1.000  Cu
  Cu23     1.0000 0.17100  0.48663  0.80885  Biso   1.000  Cu
  Cu24     1.0000 0.51337  0.68437  0.80885  Biso   1.000  Cu
  Cu25     1.0000 0.84344  0.35373  0.20434  Biso   1.000  Cu
  Cu26     1.0000 0.64627  0.48971  0.20434  Biso   1.000  Cu
  Cu27     1.0000 0.51029  0.15656  0.20434  Biso   1.000  Cu
  Cu28     1.0000 0.15656  0.64627  0.79566  Biso   1.000  Cu
  Cu29     1.0000 0.35373  0.51029  0.79566  Biso   1.000  Cu
  Cu30     1.0000 0.48971  0.84344  0.79566  Biso   1.000  Cu
  H295     1.0000 0.98650  0.19150  0.96970  Biso   1.000  H
  H296     1.0000 0.80850  0.79500  0.96970  Biso   1.000  H
  H297     1.0000 0.20500  0.01350  0.96970  Biso   1.000  H
  H298     1.0000 0.01350  0.80850  0.03030  Biso   1.000  H
  H299     1.0000 0.19150  0.20500  0.03030  Biso   1.000  H
  H300     1.0000 0.79500  0.98650  0.03030  Biso   1.000  H
  H301     1.0000 0.94700  0.13830  0.98020  Biso   1.000  H
  H302     1.0000 0.86170  0.80870  0.98020  Biso   1.000  H
  H303     1.0000 0.19130  0.05300  0.98020  Biso   1.000  H
  H304     1.0000 0.05300  0.86170  0.01980  Biso   1.000  H
  H305     1.0000 0.13830  0.19130  0.01980  Biso   1.000  H
  H306     1.0000 0.80870  0.94700  0.01980  Biso   1.000  H
  O167     1.0000 0.15077  0.64505  0.99170  Biso   1.000  O
  O168     1.0000 0.35495  0.50572  0.99170  Biso   1.000  O
  O169     1.0000 0.49428  0.84923  0.99170  Biso   1.000  O
  O170     1.0000 0.84923  0.35495  0.00830  Biso   1.000  O
  O171     1.0000 0.64505  0.49428  0.00830  Biso   1.000  O
  O172     1.0000 0.50572  0.15077  0.00830  Biso   1.000  O
  O173     1.0000 0.17600  0.48686  0.98950  Biso   1.000  O
  O174     1.0000 0.51314  0.68914  0.98950  Biso   1.000  O
  O175     1.0000 0.31086  0.82400  0.98950  Biso   1.000  O
  O176     1.0000 0.82400  0.51314  0.01050  Biso   1.000  O
  O177     1.0000 0.48686  0.31086  0.01050  Biso   1.000  O
  O178     1.0000 0.68914  0.17600  0.01050  Biso   1.000  O
  H307     1.0000 0.16770  0.64810  0.70850  Biso   1.000  H
  H308     1.0000 0.35190  0.51960  0.70850  Biso   1.000  H
  H309     1.0000 0.48040  0.83230  0.70850  Biso   1.000  H
  H310     1.0000 0.83230  0.35190  0.29150  Biso   1.000  H
  H311     1.0000 0.64810  0.48040  0.29150  Biso   1.000  H
  H312     1.0000 0.51960  0.16770  0.29150  Biso   1.000  H
  H313     1.0000 0.68290  0.17800  0.72810  Biso   1.000  H
  H314     1.0000 0.82200  0.50490  0.72810  Biso   1.000  H
  H315     1.0000 0.49510  0.31710  0.72810  Biso   1.000  H
  H316     1.0000 0.31710  0.82200  0.27190  Biso   1.000  H
  H317     1.0000 0.17800  0.49510  0.27190  Biso   1.000  H
  H318     1.0000 0.50490  0.68290  0.27190  Biso   1.000  H
  H319     1.0000 0.95530  0.08700  0.17850  Biso   1.000  H
  H320     1.0000 0.91300  0.86830  0.17850  Biso   1.000  H
  H321     1.0000 0.13170  0.04470  0.17850  Biso   1.000  H
  H322     1.0000 0.04470  0.91300  0.82150  Biso   1.000  H
  H323     1.0000 0.08700  0.13170  0.82150  Biso   1.000  H
  H324     1.0000 0.86830  0.95530  0.82150  Biso   1.000  H
  H325     1.0000 0.47960  0.50390  0.55090  Biso   1.000  H
  H326     1.0000 0.49610  0.97570  0.55090  Biso   1.000  H
  H327     1.0000 0.02430  0.52040  0.55090  Biso   1.000  H
  H328     1.0000 0.52040  0.49610  0.44910  Biso   1.000  H
  H329     1.0000 0.50390  0.02430  0.44910  Biso   1.000  H
  H330     1.0000 0.97570  0.47960  0.44910  Biso   1.000  H
  H331     1.0000 0.48700  0.46710  0.48360  Biso   1.000  H
  H332     1.0000 0.53290  0.01990  0.48360  Biso   1.000  H
  H333     1.0000 0.98010  0.51300  0.48360  Biso   1.000  H
  H334     1.0000 0.51300  0.53290  0.51640  Biso   1.000  H
  H335     1.0000 0.46710  0.98010  0.51640  Biso   1.000  H
  H336     1.0000 0.01990  0.48700  0.51640  Biso   1.000  H
  H337     1.0000 0.00000  0.00000  0.07950  Biso   1.000  H
  H338     1.0000 0.00000  0.00000  0.92050  Biso   1.000  H
  H339     1.0000 0.96890  0.99070  0.97350  Biso   1.000  H
  H340     1.0000 0.00930  0.97820  0.97350  Biso   1.000  H
  H341     1.0000 0.02180  0.03110  0.97350  Biso   1.000  H
  H342     1.0000 0.03110  0.00930  0.02650  Biso   1.000  H
  H343     1.0000 0.99070  0.02180  0.02650  Biso   1.000  H
  H344     1.0000 0.97820  0.96890  0.02650  Biso   1.000  H
  H345     1.0000 0.69010  0.34030  0.44650  Biso   1.000  H
  H346     1.0000 0.65970  0.34980  0.44650  Biso   1.000  H
  H347     1.0000 0.65020  0.30990  0.44650  Biso   1.000  H
  H348     1.0000 0.30990  0.65970  0.55350  Biso   1.000  H
  H349     1.0000 0.34030  0.65020  0.55350  Biso   1.000  H
  H350     1.0000 0.34980  0.69010  0.55350  Biso   1.000  H
  H351     1.0000 0.63870  0.33080  0.42320  Biso   1.000  H
  H352     1.0000 0.66920  0.30790  0.42320  Biso   1.000  H
  H353     1.0000 0.69210  0.36130  0.42320  Biso   1.000  H
  H354     1.0000 0.36130  0.66920  0.57680  Biso   1.000  H
  H355     1.0000 0.33080  0.69210  0.57680  Biso   1.000  H
  H356     1.0000 0.30790  0.63870  0.57680  Biso   1.000  H
  H357     1.0000 0.67510  0.36450  0.07210  Biso   1.000  H
  H358     1.0000 0.63550  0.31060  0.07210  Biso   1.000  H
  H359     1.0000 0.68940  0.32490  0.07210  Biso   1.000  H
  H360     1.0000 0.32490  0.63550  0.92790  Biso   1.000  H
  H361     1.0000 0.36450  0.68940  0.92790  Biso   1.000  H
  H362     1.0000 0.31060  0.67510  0.92790  Biso   1.000  H
  H363     1.0000 0.64560  0.31060  0.04350  Biso   1.000  H
  H364     1.0000 0.68940  0.33500  0.04350  Biso   1.000  H
  H365     1.0000 0.66500  0.35440  0.04350  Biso   1.000  H
  H366     1.0000 0.35440  0.68940  0.95650  Biso   1.000  H
  H367     1.0000 0.31060  0.66500  0.95650  Biso   1.000  H
  H368     1.0000 0.33500  0.64560  0.95650  Biso   1.000  H
  O179     1.0000 0.00000  0.00000  0.54970  Biso   1.000  O
  O180     1.0000 0.00000  0.00000  0.45030  Biso   1.000  O
  H369     1.0000 0.03270  0.00970  0.53760  Biso   1.000  H
  H370     1.0000 0.99030  0.02300  0.53760  Biso   1.000  H
  H371     1.0000 0.97700  0.96730  0.53760  Biso   1.000  H
  H372     1.0000 0.96730  0.99030  0.46240  Biso   1.000  H
  H373     1.0000 0.00970  0.97700  0.46240  Biso   1.000  H
  H374     1.0000 0.02300  0.03270  0.46240  Biso   1.000  H
  H375     1.0000 0.98520  0.99850  0.48000  Biso   1.000  H
  H376     1.0000 0.00150  0.98670  0.48000  Biso   1.000  H
  H377     1.0000 0.01330  0.01480  0.48000  Biso   1.000  H
  H378     1.0000 0.01480  0.00150  0.52000  Biso   1.000  H
  H379     1.0000 0.99850  0.01330  0.52000  Biso   1.000  H
  H380     1.0000 0.98670  0.98520  0.52000  Biso   1.000  H
  H381     1.0000 0.65070  0.30130  0.75630  Biso   1.000  H
  H382     1.0000 0.69870  0.34940  0.75630  Biso   1.000  H
  H383     1.0000 0.65060  0.34930  0.75630  Biso   1.000  H
  H384     1.0000 0.34930  0.69870  0.24370  Biso   1.000  H
  H385     1.0000 0.30130  0.65060  0.24370  Biso   1.000  H
  H386     1.0000 0.34940  0.65070  0.24370  Biso   1.000  H
  C253     1.0000 0.20600  0.68480  0.42240  Biso   1.000  C
  C254     1.0000 0.31520  0.52120  0.42240  Biso   1.000  C
  C255     1.0000 0.47880  0.79400  0.42240  Biso   1.000  C
  C256     1.0000 0.79400  0.31520  0.57760  Biso   1.000  C
  C257     1.0000 0.68480  0.47880  0.57760  Biso   1.000  C
  C258     1.0000 0.52120  0.20600  0.57760  Biso   1.000  C
  H387     1.0000 0.23550  0.70730  0.37390  Biso   1.000  H
  H388     1.0000 0.29270  0.52820  0.37390  Biso   1.000  H
  H389     1.0000 0.47180  0.76450  0.37390  Biso   1.000  H
  H390     1.0000 0.76450  0.29270  0.62610  Biso   1.000  H
  H391     1.0000 0.70730  0.47180  0.62610  Biso   1.000  H
  H392     1.0000 0.52820  0.23550  0.62610  Biso   1.000  H
  C259     1.0000 0.21430  0.68570  0.54890  Biso   1.000  C
  C260     1.0000 0.31430  0.52860  0.54890  Biso   1.000  C
  C261     1.0000 0.47140  0.78570  0.54890  Biso   1.000  C
  C262     1.0000 0.78570  0.31430  0.45110  Biso   1.000  C
  C263     1.0000 0.68570  0.47140  0.45110  Biso   1.000  C
  C264     1.0000 0.52860  0.21430  0.45110  Biso   1.000  C
  H393     1.0000 0.24720  0.70730  0.58670  Biso   1.000  H
  H394     1.0000 0.29270  0.53990  0.58670  Biso   1.000  H
  H395     1.0000 0.46010  0.75280  0.58670  Biso   1.000  H
  H396     1.0000 0.75280  0.29270  0.41330  Biso   1.000  H
  H397     1.0000 0.70730  0.46010  0.41330  Biso   1.000  H
  H398     1.0000 0.53990  0.24720  0.41330  Biso   1.000  H
  C265     1.0000 0.15500  0.65400  0.35600  Biso   1.000  C
  C266     1.0000 0.34600  0.50100  0.35600  Biso   1.000  C
  C267     1.0000 0.49900  0.84500  0.35600  Biso   1.000  C
  C268     1.0000 0.84500  0.34600  0.64400  Biso   1.000  C
  C269     1.0000 0.65400  0.49900  0.64400  Biso   1.000  C
  C270     1.0000 0.50100  0.15500  0.64400  Biso   1.000  C
  H399     1.0000 0.15160  0.65510  0.26730  Biso   1.000  H
  H400     1.0000 0.34490  0.49650  0.26730  Biso   1.000  H
  H401     1.0000 0.50350  0.84840  0.26730  Biso   1.000  H
  H402     1.0000 0.84840  0.34490  0.73270  Biso   1.000  H
  H403     1.0000 0.65510  0.50350  0.73270  Biso   1.000  H
  H404     1.0000 0.49650  0.15160  0.73270  Biso   1.000  H
  C271     1.0000 0.11600  0.61740  0.56070  Biso   1.000  C
  C272     1.0000 0.38260  0.49860  0.56070  Biso   1.000  C
  C273     1.0000 0.50140  0.88400  0.56070  Biso   1.000  C
  C274     1.0000 0.88400  0.38260  0.43930  Biso   1.000  C
  C275     1.0000 0.61740  0.50140  0.43930  Biso   1.000  C
  C276     1.0000 0.49860  0.11600  0.43930  Biso   1.000  C
  H405     1.0000 0.08660  0.59490  0.60920  Biso   1.000  H
  H406     1.0000 0.40510  0.49170  0.60920  Biso   1.000  H
  H407     1.0000 0.50830  0.91340  0.60920  Biso   1.000  H
  H408     1.0000 0.91340  0.40510  0.39080  Biso   1.000  H
  H409     1.0000 0.59490  0.50830  0.39080  Biso   1.000  H
  H410     1.0000 0.49170  0.08660  0.39080  Biso   1.000  H
  C277     1.0000 0.11690  0.61970  0.42940  Biso   1.000  C
  C278     1.0000 0.38030  0.49720  0.42940  Biso   1.000  C
  C279     1.0000 0.50280  0.88310  0.42940  Biso   1.000  C
  C280     1.0000 0.88310  0.38030  0.57060  Biso   1.000  C
  C281     1.0000 0.61970  0.50280  0.57060  Biso   1.000  C
  C282     1.0000 0.49720  0.11690  0.57060  Biso   1.000  C
  H411     1.0000 0.08400  0.59810  0.39160  Biso   1.000  H
  H412     1.0000 0.40190  0.48590  0.39160  Biso   1.000  H
  H413     1.0000 0.51410  0.91600  0.39160  Biso   1.000  H
  H414     1.0000 0.91600  0.40190  0.60840  Biso   1.000  H
  H415     1.0000 0.59810  0.51410  0.60840  Biso   1.000  H
  H416     1.0000 0.48590  0.08400  0.60840  Biso   1.000  H
  C283     1.0000 0.64850  0.19410  0.45420  Biso   1.000  C
  C284     1.0000 0.80590  0.45440  0.45420  Biso   1.000  C
  C285     1.0000 0.54560  0.35150  0.45420  Biso   1.000  C
  C286     1.0000 0.35150  0.80590  0.54580  Biso   1.000  C
  C287     1.0000 0.19410  0.54560  0.54580  Biso   1.000  C
  C288     1.0000 0.45440  0.64850  0.54580  Biso   1.000  C
  H417     1.0000 0.62710  0.20410  0.41070  Biso   1.000  H
  H418     1.0000 0.79590  0.42300  0.41070  Biso   1.000  H
  H419     1.0000 0.57700  0.37290  0.41070  Biso   1.000  H
  H420     1.0000 0.37290  0.79590  0.58930  Biso   1.000  H
  H421     1.0000 0.20410  0.57700  0.58930  Biso   1.000  H
  H422     1.0000 0.42300  0.62710  0.58930  Biso   1.000  H
  C289     1.0000 0.65220  0.19170  0.57360  Biso   1.000  C
  C290     1.0000 0.80830  0.46050  0.57360  Biso   1.000  C
  C291     1.0000 0.53950  0.34780  0.57360  Biso   1.000  C
  C292     1.0000 0.34780  0.80830  0.42640  Biso   1.000  C
  C293     1.0000 0.19170  0.53950  0.42640  Biso   1.000  C
  C294     1.0000 0.46050  0.65220  0.42640  Biso   1.000  C
  H423     1.0000 0.63080  0.20160  0.61710  Biso   1.000  H
  H424     1.0000 0.79840  0.42920  0.61710  Biso   1.000  H
  H425     1.0000 0.57080  0.36920  0.61710  Biso   1.000  H
  H426     1.0000 0.36920  0.79840  0.38290  Biso   1.000  H
  H427     1.0000 0.20160  0.57080  0.38290  Biso   1.000  H
  H428     1.0000 0.42920  0.63080  0.38290  Biso   1.000  H
  C295     1.0000 0.68320  0.18040  0.37500  Biso   1.000  C
  C296     1.0000 0.81960  0.50280  0.37500  Biso   1.000  C
  C297     1.0000 0.49720  0.31680  0.37500  Biso   1.000  C
  C298     1.0000 0.31680  0.81960  0.62500  Biso   1.000  C
  C299     1.0000 0.18040  0.49720  0.62500  Biso   1.000  C
  C300     1.0000 0.50280  0.68320  0.62500  Biso   1.000  C
  H429     1.0000 0.68320  0.18030  0.28540  Biso   1.000  H
  H430     1.0000 0.81970  0.50290  0.28540  Biso   1.000  H
  H431     1.0000 0.49710  0.31680  0.28540  Biso   1.000  H
  H432     1.0000 0.31680  0.81970  0.71460  Biso   1.000  H
  H433     1.0000 0.18030  0.49710  0.71460  Biso   1.000  H
  H434     1.0000 0.50290  0.68320  0.71460  Biso   1.000  H
  C301     1.0000 0.71230  0.15910  0.56520  Biso   1.000  C
  C302     1.0000 0.84090  0.55320  0.56520  Biso   1.000  C
  C303     1.0000 0.44680  0.28770  0.56520  Biso   1.000  C
  C304     1.0000 0.28770  0.84090  0.43480  Biso   1.000  C
  C305     1.0000 0.15910  0.44680  0.43480  Biso   1.000  C
  C306     1.0000 0.55320  0.71230  0.43480  Biso   1.000  C
  H435     1.0000 0.73380  0.14920  0.60860  Biso   1.000  H
  H436     1.0000 0.85080  0.58460  0.60860  Biso   1.000  H
  H437     1.0000 0.41540  0.26620  0.60860  Biso   1.000  H
  H438     1.0000 0.26620  0.85080  0.39140  Biso   1.000  H
  H439     1.0000 0.14920  0.41540  0.39140  Biso   1.000  H
  H440     1.0000 0.58460  0.73380  0.39140  Biso   1.000  H
  C307     1.0000 0.71340  0.15780  0.44250  Biso   1.000  C
  C308     1.0000 0.84220  0.55560  0.44250  Biso   1.000  C
  C309     1.0000 0.44440  0.28660  0.44250  Biso   1.000  C
  C310     1.0000 0.28660  0.84220  0.55750  Biso   1.000  C
  C311     1.0000 0.15780  0.44440  0.55750  Biso   1.000  C
  C312     1.0000 0.55560  0.71340  0.55750  Biso   1.000  C
  H441     1.0000 0.73480  0.14780  0.39900  Biso   1.000  H
  H442     1.0000 0.85220  0.58700  0.39900  Biso   1.000  H
  H443     1.0000 0.41300  0.26520  0.39900  Biso   1.000  H
  H444     1.0000 0.26520  0.85220  0.60100  Biso   1.000  H
  H445     1.0000 0.14780  0.41300  0.60100  Biso   1.000  H
  H446     1.0000 0.58700  0.73480  0.60100  Biso   1.000  H
  N25      1.0000 0.16560  0.64920  0.61560  Biso   1.000  N
  N26      1.0000 0.35080  0.51640  0.61560  Biso   1.000  N
  N27      1.0000 0.48360  0.83440  0.61560  Biso   1.000  N
  N28      1.0000 0.83440  0.35080  0.38440  Biso   1.000  N
  N29      1.0000 0.64920  0.48360  0.38440  Biso   1.000  N
  N30      1.0000 0.51640  0.16560  0.38440  Biso   1.000  N
  N31      1.0000 0.68380  0.18060  0.63870  Biso   1.000  N
  N32      1.0000 0.81940  0.50320  0.63870  Biso   1.000  N
  N33      1.0000 0.49680  0.31620  0.63870  Biso   1.000  N
  N34      1.0000 0.31620  0.81940  0.36130  Biso   1.000  N
  N35      1.0000 0.18060  0.49680  0.36130  Biso   1.000  N
  N36      1.0000 0.50320  0.68380  0.36130  Biso   1.000  N
  H447     1.0000 0.17490  0.67470  0.96240  Biso   1.000  H
  H448     1.0000 0.32530  0.50020  0.96240  Biso   1.000  H
  H449     1.0000 0.49980  0.82510  0.96240  Biso   1.000  H
  H450     1.0000 0.82510  0.32530  0.03760  Biso   1.000  H
  H451     1.0000 0.67470  0.49980  0.03760  Biso   1.000  H
  H452     1.0000 0.50020  0.17490  0.03760  Biso   1.000  H
  H453     1.0000 0.12080  0.63730  0.95990  Biso   1.000  H
  H454     1.0000 0.36270  0.48350  0.95990  Biso   1.000  H
  H455     1.0000 0.51650  0.87920  0.95990  Biso   1.000  H
  H456     1.0000 0.87920  0.36270  0.04010  Biso   1.000  H
  H457     1.0000 0.63730  0.51650  0.04010  Biso   1.000  H
  H458     1.0000 0.48350  0.12080  0.04010  Biso   1.000  H
  H459     1.0000 0.65790  0.16060  0.97970  Biso   1.000  H
  H460     1.0000 0.83940  0.49730  0.97970  Biso   1.000  H
  H461     1.0000 0.50270  0.34210  0.97970  Biso   1.000  H
  H462     1.0000 0.34210  0.83940  0.02030  Biso   1.000  H
  H463     1.0000 0.16060  0.50270  0.02030  Biso   1.000  H
  H464     1.0000 0.49730  0.65790  0.02030  Biso   1.000  H
  H465     1.0000 0.70590  0.16080  0.98400  Biso   1.000  H
  H466     1.0000 0.83920  0.54510  0.98400  Biso   1.000  H
  H467     1.0000 0.45490  0.29410  0.98400  Biso   1.000  H
  H468     1.0000 0.29410  0.83920  0.01600  Biso   1.000  H
  H469     1.0000 0.16080  0.45490  0.01600  Biso   1.000  H
  H470     1.0000 0.54510  0.70590  0.01600  Biso   1.000  H
