data_image0
_cell_length_a       30.914
_cell_length_b       30.914
_cell_length_c       30.914
_cell_angle_alpha    90
_cell_angle_beta     90
_cell_angle_gamma    90

_symmetry_space_group_name_H-M    "P 1"
_symmetry_int_tables_number       1

loop_
  _symmetry_equiv_pos_as_xyz
  'x, y, z'

loop_
  _atom_site_label
  _atom_site_occupancy
  _atom_site_fract_x
  _atom_site_fract_y
  _atom_site_fract_z
  _atom_site_thermal_displace_type
  _atom_site_B_iso_or_equiv
  _atom_site_type_symbol
  Cu1      1.0000 0.24768  0.49209  0.50000  Biso   1.000  Cu
  Cu2      1.0000 0.50791  0.24768  0.50000  Biso   1.000  Cu
  Cu3      1.0000 0.75232  0.50791  0.50000  Biso   1.000  Cu
  Cu4      1.0000 0.49209  0.75232  0.50000  Biso   1.000  Cu
  Cu5      1.0000 0.74768  0.99209  0.00000  Biso   1.000  Cu
  Cu6      1.0000 0.00791  0.74768  0.00000  Biso   1.000  Cu
  Cu7      1.0000 0.25232  0.00791  0.00000  Biso   1.000  Cu
  Cu8      1.0000 0.99209  0.25232  0.00000  Biso   1.000  Cu
  O1       1.0000 0.09290  0.48230  0.50000  Biso   1.000  O
  O2       1.0000 0.51770  0.09290  0.50000  Biso   1.000  O
  O3       1.0000 0.90710  0.51770  0.50000  Biso   1.000  O
  O4       1.0000 0.48230  0.90710  0.50000  Biso   1.000  O
  O5       1.0000 0.59290  0.98230  0.00000  Biso   1.000  O
  O6       1.0000 0.01770  0.59290  0.00000  Biso   1.000  O
  O7       1.0000 0.40710  0.01770  0.00000  Biso   1.000  O
  O8       1.0000 0.98230  0.40710  0.00000  Biso   1.000  O
  Cu9      1.0000 0.16242  0.48939  0.50000  Biso   1.000  Cu
  Cu10     1.0000 0.51061  0.16242  0.50000  Biso   1.000  Cu
  Cu11     1.0000 0.83758  0.51061  0.50000  Biso   1.000  Cu
  Cu12     1.0000 0.48939  0.83758  0.50000  Biso   1.000  Cu
  Cu13     1.0000 0.66242  0.98939  0.00000  Biso   1.000  Cu
  Cu14     1.0000 0.01061  0.66242  0.00000  Biso   1.000  Cu
  Cu15     1.0000 0.33758  0.01061  0.00000  Biso   1.000  Cu
  Cu16     1.0000 0.98939  0.33758  0.00000  Biso   1.000  Cu
  O9       1.0000 0.31680  0.49550  0.50000  Biso   1.000  O
  O10      1.0000 0.50450  0.31680  0.50000  Biso   1.000  O
  O11      1.0000 0.68320  0.50450  0.50000  Biso   1.000  O
  O12      1.0000 0.49550  0.68320  0.50000  Biso   1.000  O
  O13      1.0000 0.81680  0.99550  0.00000  Biso   1.000  O
  O14      1.0000 0.00450  0.81680  0.00000  Biso   1.000  O
  O15      1.0000 0.18320  0.00450  0.00000  Biso   1.000  O
  O16      1.0000 0.99550  0.18320  0.00000  Biso   1.000  O
  Cu17     1.0000 0.33487  0.32325  0.25391  Biso   1.000  Cu
  Cu18     1.0000 0.67675  0.33487  0.25391  Biso   1.000  Cu
  Cu19     1.0000 0.66513  0.67675  0.25391  Biso   1.000  Cu
  Cu20     1.0000 0.32325  0.66513  0.25391  Biso   1.000  Cu
  Cu21     1.0000 0.83487  0.82325  0.75391  Biso   1.000  Cu
  Cu22     1.0000 0.17675  0.83487  0.75391  Biso   1.000  Cu
  Cu23     1.0000 0.16513  0.17675  0.75391  Biso   1.000  Cu
  Cu24     1.0000 0.82325  0.16513  0.75391  Biso   1.000  Cu
  Cu25     1.0000 0.66513  0.67675  0.74609  Biso   1.000  Cu
  Cu26     1.0000 0.32325  0.66513  0.74609  Biso   1.000  Cu
  Cu27     1.0000 0.33487  0.32325  0.74609  Biso   1.000  Cu
  Cu28     1.0000 0.67675  0.33487  0.74609  Biso   1.000  Cu
  Cu29     1.0000 0.16513  0.17675  0.24609  Biso   1.000  Cu
  Cu30     1.0000 0.82325  0.16513  0.24609  Biso   1.000  Cu
  Cu31     1.0000 0.83487  0.82325  0.24609  Biso   1.000  Cu
  Cu32     1.0000 0.17675  0.83487  0.24609  Biso   1.000  Cu
  O17      1.0000 0.40900  0.40670  0.36200  Biso   1.000  O
  O18      1.0000 0.59330  0.40900  0.36200  Biso   1.000  O
  O19      1.0000 0.59100  0.59330  0.36200  Biso   1.000  O
  O20      1.0000 0.40670  0.59100  0.36200  Biso   1.000  O
  O21      1.0000 0.90900  0.90670  0.86200  Biso   1.000  O
  O22      1.0000 0.09330  0.90900  0.86200  Biso   1.000  O
  O23      1.0000 0.09100  0.09330  0.86200  Biso   1.000  O
  O24      1.0000 0.90670  0.09100  0.86200  Biso   1.000  O
  O25      1.0000 0.59100  0.59330  0.63800  Biso   1.000  O
  O26      1.0000 0.40670  0.59100  0.63800  Biso   1.000  O
  O27      1.0000 0.40900  0.40670  0.63800  Biso   1.000  O
  O28      1.0000 0.59330  0.40900  0.63800  Biso   1.000  O
  O29      1.0000 0.09100  0.09330  0.13800  Biso   1.000  O
  O30      1.0000 0.90670  0.09100  0.13800  Biso   1.000  O
  O31      1.0000 0.90900  0.90670  0.13800  Biso   1.000  O
  O32      1.0000 0.09330  0.90900  0.13800  Biso   1.000  O
  Cu33     1.0000 0.37691  0.36847  0.31336  Biso   1.000  Cu
  Cu34     1.0000 0.63153  0.37691  0.31336  Biso   1.000  Cu
  Cu35     1.0000 0.62309  0.63153  0.31336  Biso   1.000  Cu
  Cu36     1.0000 0.36847  0.62309  0.31336  Biso   1.000  Cu
  Cu37     1.0000 0.87691  0.86847  0.81336  Biso   1.000  Cu
  Cu38     1.0000 0.13153  0.87691  0.81336  Biso   1.000  Cu
  Cu39     1.0000 0.12309  0.13153  0.81336  Biso   1.000  Cu
  Cu40     1.0000 0.86847  0.12309  0.81336  Biso   1.000  Cu
  Cu41     1.0000 0.62309  0.63153  0.68664  Biso   1.000  Cu
  Cu42     1.0000 0.36847  0.62309  0.68664  Biso   1.000  Cu
  Cu43     1.0000 0.37691  0.36847  0.68664  Biso   1.000  Cu
  Cu44     1.0000 0.63153  0.37691  0.68664  Biso   1.000  Cu
  Cu45     1.0000 0.12309  0.13153  0.18664  Biso   1.000  Cu
  Cu46     1.0000 0.86847  0.12309  0.18664  Biso   1.000  Cu
  Cu47     1.0000 0.87691  0.86847  0.18664  Biso   1.000  Cu
  Cu48     1.0000 0.13153  0.87691  0.18664  Biso   1.000  Cu
  O33      1.0000 0.30010  0.28860  0.20400  Biso   1.000  O
  O34      1.0000 0.71140  0.30010  0.20400  Biso   1.000  O
  O35      1.0000 0.69990  0.71140  0.20400  Biso   1.000  O
  O36      1.0000 0.28860  0.69990  0.20400  Biso   1.000  O
  O37      1.0000 0.80010  0.78860  0.70400  Biso   1.000  O
  O38      1.0000 0.21140  0.80010  0.70400  Biso   1.000  O
  O39      1.0000 0.19990  0.21140  0.70400  Biso   1.000  O
  O40      1.0000 0.78860  0.19990  0.70400  Biso   1.000  O
  O41      1.0000 0.69990  0.71140  0.79600  Biso   1.000  O
  O42      1.0000 0.28860  0.69990  0.79600  Biso   1.000  O
  O43      1.0000 0.30010  0.28860  0.79600  Biso   1.000  O
  O44      1.0000 0.71140  0.30010  0.79600  Biso   1.000  O
  O45      1.0000 0.19990  0.21140  0.29600  Biso   1.000  O
  O46      1.0000 0.78860  0.19990  0.29600  Biso   1.000  O
  O47      1.0000 0.80010  0.78860  0.29600  Biso   1.000  O
  O48      1.0000 0.21140  0.80010  0.29600  Biso   1.000  O
  O49      1.0000 0.24320  0.44620  0.45560  Biso   1.000  O
  O50      1.0000 0.55380  0.24320  0.45560  Biso   1.000  O
  O51      1.0000 0.75680  0.55380  0.45560  Biso   1.000  O
  O52      1.0000 0.44620  0.75680  0.45560  Biso   1.000  O
  O53      1.0000 0.74320  0.94620  0.95560  Biso   1.000  O
  O54      1.0000 0.05380  0.74320  0.95560  Biso   1.000  O
  O55      1.0000 0.25680  0.05380  0.95560  Biso   1.000  O
  O56      1.0000 0.94620  0.25680  0.95560  Biso   1.000  O
  O57      1.0000 0.75680  0.55380  0.54440  Biso   1.000  O
  O58      1.0000 0.44620  0.75680  0.54440  Biso   1.000  O
  O59      1.0000 0.24320  0.44620  0.54440  Biso   1.000  O
  O60      1.0000 0.55380  0.24320  0.54440  Biso   1.000  O
  O61      1.0000 0.25680  0.05380  0.04440  Biso   1.000  O
  O62      1.0000 0.94620  0.25680  0.04440  Biso   1.000  O
  O63      1.0000 0.74320  0.94620  0.04440  Biso   1.000  O
  O64      1.0000 0.05380  0.74320  0.04440  Biso   1.000  O
  N1       1.0000 0.00100  0.32710  0.27770  Biso   1.000  N
  N2       1.0000 0.67290  0.00100  0.27770  Biso   1.000  N
  N3       1.0000 0.99900  0.67290  0.27770  Biso   1.000  N
  N4       1.0000 0.32710  0.99900  0.27770  Biso   1.000  N
  N5       1.0000 0.50100  0.82710  0.77770  Biso   1.000  N
  N6       1.0000 0.17290  0.50100  0.77770  Biso   1.000  N
  N7       1.0000 0.49900  0.17290  0.77770  Biso   1.000  N
  N8       1.0000 0.82710  0.49900  0.77770  Biso   1.000  N
  N9       1.0000 0.99900  0.67290  0.72230  Biso   1.000  N
  N10      1.0000 0.32710  0.99900  0.72230  Biso   1.000  N
  N11      1.0000 0.00100  0.32710  0.72230  Biso   1.000  N
  N12      1.0000 0.67290  0.00100  0.72230  Biso   1.000  N
  N13      1.0000 0.49900  0.17290  0.22230  Biso   1.000  N
  N14      1.0000 0.82710  0.49900  0.22230  Biso   1.000  N
  N15      1.0000 0.50100  0.82710  0.22230  Biso   1.000  N
  N16      1.0000 0.17290  0.50100  0.22230  Biso   1.000  N
  O65      1.0000 0.17120  0.44560  0.45590  Biso   1.000  O
  O66      1.0000 0.55440  0.17120  0.45590  Biso   1.000  O
  O67      1.0000 0.82880  0.55440  0.45590  Biso   1.000  O
  O68      1.0000 0.44560  0.82880  0.45590  Biso   1.000  O
  O69      1.0000 0.67120  0.94560  0.95590  Biso   1.000  O
  O70      1.0000 0.05440  0.67120  0.95590  Biso   1.000  O
  O71      1.0000 0.32880  0.05440  0.95590  Biso   1.000  O
  O72      1.0000 0.94560  0.32880  0.95590  Biso   1.000  O
  O73      1.0000 0.82880  0.55440  0.54410  Biso   1.000  O
  O74      1.0000 0.44560  0.82880  0.54410  Biso   1.000  O
  O75      1.0000 0.17120  0.44560  0.54410  Biso   1.000  O
  O76      1.0000 0.55440  0.17120  0.54410  Biso   1.000  O
  O77      1.0000 0.32880  0.05440  0.04410  Biso   1.000  O
  O78      1.0000 0.94560  0.32880  0.04410  Biso   1.000  O
  O79      1.0000 0.67120  0.94560  0.04410  Biso   1.000  O
  O80      1.0000 0.05440  0.67120  0.04410  Biso   1.000  O
  O81      1.0000 0.83500  0.46550  0.45650  Biso   1.000  O
  O82      1.0000 0.53450  0.83500  0.45650  Biso   1.000  O
  O83      1.0000 0.16500  0.53450  0.45650  Biso   1.000  O
  O84      1.0000 0.46550  0.16500  0.45650  Biso   1.000  O
  O85      1.0000 0.33500  0.96550  0.95650  Biso   1.000  O
  O86      1.0000 0.03450  0.33500  0.95650  Biso   1.000  O
  O87      1.0000 0.66500  0.03450  0.95650  Biso   1.000  O
  O88      1.0000 0.96550  0.66500  0.95650  Biso   1.000  O
  O89      1.0000 0.16500  0.53450  0.54350  Biso   1.000  O
  O90      1.0000 0.46550  0.16500  0.54350  Biso   1.000  O
  O91      1.0000 0.83500  0.46550  0.54350  Biso   1.000  O
  O92      1.0000 0.53450  0.83500  0.54350  Biso   1.000  O
  O93      1.0000 0.66500  0.03450  0.04350  Biso   1.000  O
  O94      1.0000 0.96550  0.66500  0.04350  Biso   1.000  O
  O95      1.0000 0.33500  0.96550  0.04350  Biso   1.000  O
  O96      1.0000 0.03450  0.33500  0.04350  Biso   1.000  O
  O97      1.0000 0.68690  0.38660  0.34040  Biso   1.000  O
  O98      1.0000 0.61340  0.68690  0.34040  Biso   1.000  O
  O99      1.0000 0.31310  0.61340  0.34040  Biso   1.000  O
  O100     1.0000 0.38660  0.31310  0.34040  Biso   1.000  O
  O101     1.0000 0.18690  0.88660  0.84040  Biso   1.000  O
  O102     1.0000 0.11340  0.18690  0.84040  Biso   1.000  O
  O103     1.0000 0.81310  0.11340  0.84040  Biso   1.000  O
  O104     1.0000 0.88660  0.81310  0.84040  Biso   1.000  O
  O105     1.0000 0.31310  0.61340  0.65960  Biso   1.000  O
  O106     1.0000 0.38660  0.31310  0.65960  Biso   1.000  O
  O107     1.0000 0.68690  0.38660  0.65960  Biso   1.000  O
  O108     1.0000 0.61340  0.68690  0.65960  Biso   1.000  O
  O109     1.0000 0.81310  0.11340  0.15960  Biso   1.000  O
  O110     1.0000 0.88660  0.81310  0.15960  Biso   1.000  O
  O111     1.0000 0.18690  0.88660  0.15960  Biso   1.000  O
  O112     1.0000 0.11340  0.18690  0.15960  Biso   1.000  O
  O113     1.0000 0.72530  0.34940  0.29130  Biso   1.000  O
  O114     1.0000 0.65060  0.72530  0.29130  Biso   1.000  O
  O115     1.0000 0.27470  0.65060  0.29130  Biso   1.000  O
  O116     1.0000 0.34940  0.27470  0.29130  Biso   1.000  O
  O117     1.0000 0.22530  0.84940  0.79130  Biso   1.000  O
  O118     1.0000 0.15060  0.22530  0.79130  Biso   1.000  O
  O119     1.0000 0.77470  0.15060  0.79130  Biso   1.000  O
  O120     1.0000 0.84940  0.77470  0.79130  Biso   1.000  O
  O121     1.0000 0.27470  0.65060  0.70870  Biso   1.000  O
  O122     1.0000 0.34940  0.27470  0.70870  Biso   1.000  O
  O123     1.0000 0.72530  0.34940  0.70870  Biso   1.000  O
  O124     1.0000 0.65060  0.72530  0.70870  Biso   1.000  O
  O125     1.0000 0.77470  0.15060  0.20870  Biso   1.000  O
  O126     1.0000 0.84940  0.77470  0.20870  Biso   1.000  O
  O127     1.0000 0.22530  0.84940  0.20870  Biso   1.000  O
  O128     1.0000 0.15060  0.22530  0.20870  Biso   1.000  O
  O129     1.0000 0.28330  0.33690  0.28950  Biso   1.000  O
  O130     1.0000 0.66310  0.28330  0.28950  Biso   1.000  O
  O131     1.0000 0.71670  0.66310  0.28950  Biso   1.000  O
  O132     1.0000 0.33690  0.71670  0.28950  Biso   1.000  O
  O133     1.0000 0.78330  0.83690  0.78950  Biso   1.000  O
  O134     1.0000 0.16310  0.78330  0.78950  Biso   1.000  O
  O135     1.0000 0.21670  0.16310  0.78950  Biso   1.000  O
  O136     1.0000 0.83690  0.21670  0.78950  Biso   1.000  O
  O137     1.0000 0.71670  0.66310  0.71050  Biso   1.000  O
  O138     1.0000 0.33690  0.71670  0.71050  Biso   1.000  O
  O139     1.0000 0.28330  0.33690  0.71050  Biso   1.000  O
  O140     1.0000 0.66310  0.28330  0.71050  Biso   1.000  O
  O141     1.0000 0.21670  0.16310  0.21050  Biso   1.000  O
  O142     1.0000 0.83690  0.21670  0.21050  Biso   1.000  O
  O143     1.0000 0.78330  0.83690  0.21050  Biso   1.000  O
  O144     1.0000 0.16310  0.78330  0.21050  Biso   1.000  O
  O145     1.0000 0.32030  0.37240  0.34050  Biso   1.000  O
  O146     1.0000 0.62760  0.32030  0.34050  Biso   1.000  O
  O147     1.0000 0.67970  0.62760  0.34050  Biso   1.000  O
  O148     1.0000 0.37240  0.67970  0.34050  Biso   1.000  O
  O149     1.0000 0.82030  0.87240  0.84050  Biso   1.000  O
  O150     1.0000 0.12760  0.82030  0.84050  Biso   1.000  O
  O151     1.0000 0.17970  0.12760  0.84050  Biso   1.000  O
  O152     1.0000 0.87240  0.17970  0.84050  Biso   1.000  O
  O153     1.0000 0.67970  0.62760  0.65950  Biso   1.000  O
  O154     1.0000 0.37240  0.67970  0.65950  Biso   1.000  O
  O155     1.0000 0.32030  0.37240  0.65950  Biso   1.000  O
  O156     1.0000 0.62760  0.32030  0.65950  Biso   1.000  O
  O157     1.0000 0.17970  0.12760  0.15950  Biso   1.000  O
  O158     1.0000 0.87240  0.17970  0.15950  Biso   1.000  O
  O159     1.0000 0.82030  0.87240  0.15950  Biso   1.000  O
  O160     1.0000 0.12760  0.82030  0.15950  Biso   1.000  O
  C1       1.0000 0.28710  0.35840  0.32400  Biso   1.000  C
  C2       1.0000 0.64160  0.28710  0.32400  Biso   1.000  C
  C3       1.0000 0.71290  0.64160  0.32400  Biso   1.000  C
  C4       1.0000 0.35840  0.71290  0.32400  Biso   1.000  C
  C5       1.0000 0.78710  0.85840  0.82400  Biso   1.000  C
  C6       1.0000 0.14160  0.78710  0.82400  Biso   1.000  C
  C7       1.0000 0.21290  0.14160  0.82400  Biso   1.000  C
  C8       1.0000 0.85840  0.21290  0.82400  Biso   1.000  C
  C9       1.0000 0.71290  0.64160  0.67600  Biso   1.000  C
  C10      1.0000 0.35840  0.71290  0.67600  Biso   1.000  C
  C11      1.0000 0.28710  0.35840  0.67600  Biso   1.000  C
  C12      1.0000 0.64160  0.28710  0.67600  Biso   1.000  C
  C13      1.0000 0.21290  0.14160  0.17600  Biso   1.000  C
  C14      1.0000 0.85840  0.21290  0.17600  Biso   1.000  C
  C15      1.0000 0.78710  0.85840  0.17600  Biso   1.000  C
  C16      1.0000 0.14160  0.78710  0.17600  Biso   1.000  C
  O161     1.0000 0.76140  0.46370  0.45560  Biso   1.000  O
  O162     1.0000 0.53630  0.76140  0.45560  Biso   1.000  O
  O163     1.0000 0.23860  0.53630  0.45560  Biso   1.000  O
  O164     1.0000 0.46370  0.23860  0.45560  Biso   1.000  O
  O165     1.0000 0.26140  0.96370  0.95560  Biso   1.000  O
  O166     1.0000 0.03630  0.26140  0.95560  Biso   1.000  O
  O167     1.0000 0.73860  0.03630  0.95560  Biso   1.000  O
  O168     1.0000 0.96370  0.73860  0.95560  Biso   1.000  O
  O169     1.0000 0.23860  0.53630  0.54440  Biso   1.000  O
  O170     1.0000 0.46370  0.23860  0.54440  Biso   1.000  O
  O171     1.0000 0.76140  0.46370  0.54440  Biso   1.000  O
  O172     1.0000 0.53630  0.76140  0.54440  Biso   1.000  O
  O173     1.0000 0.73860  0.03630  0.04440  Biso   1.000  O
  O174     1.0000 0.96370  0.73860  0.04440  Biso   1.000  O
  O175     1.0000 0.26140  0.96370  0.04440  Biso   1.000  O
  O176     1.0000 0.03630  0.26140  0.04440  Biso   1.000  O
  C17      1.0000 0.20660  0.43400  0.44170  Biso   1.000  C
  C18      1.0000 0.56600  0.20660  0.44170  Biso   1.000  C
  C19      1.0000 0.79340  0.56600  0.44170  Biso   1.000  C
  C20      1.0000 0.43400  0.79340  0.44170  Biso   1.000  C
  C21      1.0000 0.70660  0.93400  0.94170  Biso   1.000  C
  C22      1.0000 0.06600  0.70660  0.94170  Biso   1.000  C
  C23      1.0000 0.29340  0.06600  0.94170  Biso   1.000  C
  C24      1.0000 0.93400  0.29340  0.94170  Biso   1.000  C
  C25      1.0000 0.79340  0.56600  0.55830  Biso   1.000  C
  C26      1.0000 0.43400  0.79340  0.55830  Biso   1.000  C
  C27      1.0000 0.20660  0.43400  0.55830  Biso   1.000  C
  C28      1.0000 0.56600  0.20660  0.55830  Biso   1.000  C
  C29      1.0000 0.29340  0.06600  0.05830  Biso   1.000  C
  C30      1.0000 0.93400  0.29340  0.05830  Biso   1.000  C
  C31      1.0000 0.70660  0.93400  0.05830  Biso   1.000  C
  C32      1.0000 0.06600  0.70660  0.05830  Biso   1.000  C
  C33      1.0000 0.20714  0.40250  0.40450  Biso   1.000  C
  C34      1.0000 0.59750  0.20714  0.40450  Biso   1.000  C
  C35      1.0000 0.79286  0.59750  0.40450  Biso   1.000  C
  C36      1.0000 0.40250  0.79286  0.40450  Biso   1.000  C
  C37      1.0000 0.70714  0.90250  0.90450  Biso   1.000  C
  C38      1.0000 0.09750  0.70714  0.90450  Biso   1.000  C
  C39      1.0000 0.29286  0.09750  0.90450  Biso   1.000  C
  C40      1.0000 0.90250  0.29286  0.90450  Biso   1.000  C
  C41      1.0000 0.79286  0.59750  0.59550  Biso   1.000  C
  C42      1.0000 0.40250  0.79286  0.59550  Biso   1.000  C
  C43      1.0000 0.20714  0.40250  0.59550  Biso   1.000  C
  C44      1.0000 0.59750  0.20714  0.59550  Biso   1.000  C
  C45      1.0000 0.29286  0.09750  0.09550  Biso   1.000  C
  C46      1.0000 0.90250  0.29286  0.09550  Biso   1.000  C
  C47      1.0000 0.70714  0.90250  0.09550  Biso   1.000  C
  C48      1.0000 0.09750  0.70714  0.09550  Biso   1.000  C
  C49      1.0000 0.24578  0.39140  0.38430  Biso   1.000  C
  C50      1.0000 0.60860  0.24578  0.38430  Biso   1.000  C
  C51      1.0000 0.75422  0.60860  0.38430  Biso   1.000  C
  C52      1.0000 0.39140  0.75422  0.38430  Biso   1.000  C
  C53      1.0000 0.74578  0.89140  0.88430  Biso   1.000  C
  C54      1.0000 0.10860  0.74578  0.88430  Biso   1.000  C
  C55      1.0000 0.25422  0.10860  0.88430  Biso   1.000  C
  C56      1.0000 0.89140  0.25422  0.88430  Biso   1.000  C
  C57      1.0000 0.75422  0.60860  0.61570  Biso   1.000  C
  C58      1.0000 0.39140  0.75422  0.61570  Biso   1.000  C
  C59      1.0000 0.24578  0.39140  0.61570  Biso   1.000  C
  C60      1.0000 0.60860  0.24578  0.61570  Biso   1.000  C
  C61      1.0000 0.25422  0.10860  0.11570  Biso   1.000  C
  C62      1.0000 0.89140  0.25422  0.11570  Biso   1.000  C
  C63      1.0000 0.74578  0.89140  0.11570  Biso   1.000  C
  C64      1.0000 0.10860  0.74578  0.11570  Biso   1.000  C
  H1       1.0000 0.27200  0.40040  0.39610  Biso   1.000  H
  H2       1.0000 0.59960  0.27200  0.39610  Biso   1.000  H
  H3       1.0000 0.72800  0.59960  0.39610  Biso   1.000  H
  H4       1.0000 0.40040  0.72800  0.39610  Biso   1.000  H
  H5       1.0000 0.77200  0.90040  0.89610  Biso   1.000  H
  H6       1.0000 0.09960  0.77200  0.89610  Biso   1.000  H
  H7       1.0000 0.22800  0.09960  0.89610  Biso   1.000  H
  H8       1.0000 0.90040  0.22800  0.89610  Biso   1.000  H
  H9       1.0000 0.72800  0.59960  0.60390  Biso   1.000  H
  H10      1.0000 0.40040  0.72800  0.60390  Biso   1.000  H
  H11      1.0000 0.27200  0.40040  0.60390  Biso   1.000  H
  H12      1.0000 0.59960  0.27200  0.60390  Biso   1.000  H
  H13      1.0000 0.22800  0.09960  0.10390  Biso   1.000  H
  H14      1.0000 0.90040  0.22800  0.10390  Biso   1.000  H
  H15      1.0000 0.77200  0.90040  0.10390  Biso   1.000  H
  H16      1.0000 0.09960  0.77200  0.10390  Biso   1.000  H
  C65      1.0000 0.24525  0.36700  0.34660  Biso   1.000  C
  C66      1.0000 0.63300  0.24525  0.34660  Biso   1.000  C
  C67      1.0000 0.75475  0.63300  0.34660  Biso   1.000  C
  C68      1.0000 0.36700  0.75475  0.34660  Biso   1.000  C
  C69      1.0000 0.74525  0.86700  0.84660  Biso   1.000  C
  C70      1.0000 0.13300  0.74525  0.84660  Biso   1.000  C
  C71      1.0000 0.25475  0.13300  0.84660  Biso   1.000  C
  C72      1.0000 0.86700  0.25475  0.84660  Biso   1.000  C
  C73      1.0000 0.75475  0.63300  0.65340  Biso   1.000  C
  C74      1.0000 0.36700  0.75475  0.65340  Biso   1.000  C
  C75      1.0000 0.24525  0.36700  0.65340  Biso   1.000  C
  C76      1.0000 0.63300  0.24525  0.65340  Biso   1.000  C
  C77      1.0000 0.25475  0.13300  0.15340  Biso   1.000  C
  C78      1.0000 0.86700  0.25475  0.15340  Biso   1.000  C
  C79      1.0000 0.74525  0.86700  0.15340  Biso   1.000  C
  C80      1.0000 0.13300  0.74525  0.15340  Biso   1.000  C
  C81      1.0000 0.20610  0.35360  0.32900  Biso   1.000  C
  C82      1.0000 0.64640  0.20610  0.32900  Biso   1.000  C
  C83      1.0000 0.79390  0.64640  0.32900  Biso   1.000  C
  C84      1.0000 0.35360  0.79390  0.32900  Biso   1.000  C
  C85      1.0000 0.70610  0.85360  0.82900  Biso   1.000  C
  C86      1.0000 0.14640  0.70610  0.82900  Biso   1.000  C
  C87      1.0000 0.29390  0.14640  0.82900  Biso   1.000  C
  C88      1.0000 0.85360  0.29390  0.82900  Biso   1.000  C
  C89      1.0000 0.79390  0.64640  0.67100  Biso   1.000  C
  C90      1.0000 0.35360  0.79390  0.67100  Biso   1.000  C
  C91      1.0000 0.20610  0.35360  0.67100  Biso   1.000  C
  C92      1.0000 0.64640  0.20610  0.67100  Biso   1.000  C
  C93      1.0000 0.29390  0.14640  0.17100  Biso   1.000  C
  C94      1.0000 0.85360  0.29390  0.17100  Biso   1.000  C
  C95      1.0000 0.70610  0.85360  0.17100  Biso   1.000  C
  C96      1.0000 0.14640  0.70610  0.17100  Biso   1.000  C
  H17      1.0000 0.20570  0.33720  0.30380  Biso   1.000  H
  H18      1.0000 0.66280  0.20570  0.30380  Biso   1.000  H
  H19      1.0000 0.79430  0.66280  0.30380  Biso   1.000  H
  H20      1.0000 0.33720  0.79430  0.30380  Biso   1.000  H
  H21      1.0000 0.70570  0.83720  0.80380  Biso   1.000  H
  H22      1.0000 0.16280  0.70570  0.80380  Biso   1.000  H
  H23      1.0000 0.29430  0.16280  0.80380  Biso   1.000  H
  H24      1.0000 0.83720  0.29430  0.80380  Biso   1.000  H
  H25      1.0000 0.79430  0.66280  0.69620  Biso   1.000  H
  H26      1.0000 0.33720  0.79430  0.69620  Biso   1.000  H
  H27      1.0000 0.20570  0.33720  0.69620  Biso   1.000  H
  H28      1.0000 0.66280  0.20570  0.69620  Biso   1.000  H
  H29      1.0000 0.29430  0.16280  0.19620  Biso   1.000  H
  H30      1.0000 0.83720  0.29430  0.19620  Biso   1.000  H
  H31      1.0000 0.70570  0.83720  0.19620  Biso   1.000  H
  H32      1.0000 0.16280  0.70570  0.19620  Biso   1.000  H
  C97      1.0000 0.16745  0.36470  0.34920  Biso   1.000  C
  C98      1.0000 0.63530  0.16745  0.34920  Biso   1.000  C
  C99      1.0000 0.83255  0.63530  0.34920  Biso   1.000  C
  C100     1.0000 0.36470  0.83255  0.34920  Biso   1.000  C
  C101     1.0000 0.66745  0.86470  0.84920  Biso   1.000  C
  C102     1.0000 0.13530  0.66745  0.84920  Biso   1.000  C
  C103     1.0000 0.33255  0.13530  0.84920  Biso   1.000  C
  C104     1.0000 0.86470  0.33255  0.84920  Biso   1.000  C
  C105     1.0000 0.83255  0.63530  0.65080  Biso   1.000  C
  C106     1.0000 0.36470  0.83255  0.65080  Biso   1.000  C
  C107     1.0000 0.16745  0.36470  0.65080  Biso   1.000  C
  C108     1.0000 0.63530  0.16745  0.65080  Biso   1.000  C
  C109     1.0000 0.33255  0.13530  0.15080  Biso   1.000  C
  C110     1.0000 0.86470  0.33255  0.15080  Biso   1.000  C
  C111     1.0000 0.66745  0.86470  0.15080  Biso   1.000  C
  C112     1.0000 0.13530  0.66745  0.15080  Biso   1.000  C
  C113     1.0000 0.16798  0.38910  0.38700  Biso   1.000  C
  C114     1.0000 0.61090  0.16798  0.38700  Biso   1.000  C
  C115     1.0000 0.83202  0.61090  0.38700  Biso   1.000  C
  C116     1.0000 0.38910  0.83202  0.38700  Biso   1.000  C
  C117     1.0000 0.66798  0.88910  0.88700  Biso   1.000  C
  C118     1.0000 0.11090  0.66798  0.88700  Biso   1.000  C
  C119     1.0000 0.33202  0.11090  0.88700  Biso   1.000  C
  C120     1.0000 0.88910  0.33202  0.88700  Biso   1.000  C
  C121     1.0000 0.83202  0.61090  0.61300  Biso   1.000  C
  C122     1.0000 0.38910  0.83202  0.61300  Biso   1.000  C
  C123     1.0000 0.16798  0.38910  0.61300  Biso   1.000  C
  C124     1.0000 0.61090  0.16798  0.61300  Biso   1.000  C
  C125     1.0000 0.33202  0.11090  0.11300  Biso   1.000  C
  C126     1.0000 0.88910  0.33202  0.11300  Biso   1.000  C
  C127     1.0000 0.66798  0.88910  0.11300  Biso   1.000  C
  C128     1.0000 0.11090  0.66798  0.11300  Biso   1.000  C
  H33      1.0000 0.14210  0.39650  0.40040  Biso   1.000  H
  H34      1.0000 0.60350  0.14210  0.40040  Biso   1.000  H
  H35      1.0000 0.85790  0.60350  0.40040  Biso   1.000  H
  H36      1.0000 0.39650  0.85790  0.40040  Biso   1.000  H
  H37      1.0000 0.64210  0.89650  0.90040  Biso   1.000  H
  H38      1.0000 0.10350  0.64210  0.90040  Biso   1.000  H
  H39      1.0000 0.35790  0.10350  0.90040  Biso   1.000  H
  H40      1.0000 0.89650  0.35790  0.90040  Biso   1.000  H
  H41      1.0000 0.85790  0.60350  0.59960  Biso   1.000  H
  H42      1.0000 0.39650  0.85790  0.59960  Biso   1.000  H
  H43      1.0000 0.14210  0.39650  0.59960  Biso   1.000  H
  H44      1.0000 0.60350  0.14210  0.59960  Biso   1.000  H
  H45      1.0000 0.35790  0.10350  0.09960  Biso   1.000  H
  H46      1.0000 0.89650  0.35790  0.09960  Biso   1.000  H
  H47      1.0000 0.64210  0.89650  0.09960  Biso   1.000  H
  H48      1.0000 0.10350  0.64210  0.09960  Biso   1.000  H
  C129     1.0000 0.12340  0.35270  0.33120  Biso   1.000  C
  C130     1.0000 0.64730  0.12340  0.33120  Biso   1.000  C
  C131     1.0000 0.87660  0.64730  0.33120  Biso   1.000  C
  C132     1.0000 0.35270  0.87660  0.33120  Biso   1.000  C
  C133     1.0000 0.62340  0.85270  0.83120  Biso   1.000  C
  C134     1.0000 0.14730  0.62340  0.83120  Biso   1.000  C
  C135     1.0000 0.37660  0.14730  0.83120  Biso   1.000  C
  C136     1.0000 0.85270  0.37660  0.83120  Biso   1.000  C
  C137     1.0000 0.87660  0.64730  0.66880  Biso   1.000  C
  C138     1.0000 0.35270  0.87660  0.66880  Biso   1.000  C
  C139     1.0000 0.12340  0.35270  0.66880  Biso   1.000  C
  C140     1.0000 0.64730  0.12340  0.66880  Biso   1.000  C
  C141     1.0000 0.37660  0.14730  0.16880  Biso   1.000  C
  C142     1.0000 0.85270  0.37660  0.16880  Biso   1.000  C
  C143     1.0000 0.62340  0.85270  0.16880  Biso   1.000  C
  C144     1.0000 0.14730  0.62340  0.16880  Biso   1.000  C
  C145     1.0000 0.11580  0.31440  0.30900  Biso   1.000  C
  C146     1.0000 0.68560  0.11580  0.30900  Biso   1.000  C
  C147     1.0000 0.88420  0.68560  0.30900  Biso   1.000  C
  C148     1.0000 0.31440  0.88420  0.30900  Biso   1.000  C
  C149     1.0000 0.61580  0.81440  0.80900  Biso   1.000  C
  C150     1.0000 0.18560  0.61580  0.80900  Biso   1.000  C
  C151     1.0000 0.38420  0.18560  0.80900  Biso   1.000  C
  C152     1.0000 0.81440  0.38420  0.80900  Biso   1.000  C
  C153     1.0000 0.88420  0.68560  0.69100  Biso   1.000  C
  C154     1.0000 0.31440  0.88420  0.69100  Biso   1.000  C
  C155     1.0000 0.11580  0.31440  0.69100  Biso   1.000  C
  C156     1.0000 0.68560  0.11580  0.69100  Biso   1.000  C
  C157     1.0000 0.38420  0.18560  0.19100  Biso   1.000  C
  C158     1.0000 0.81440  0.38420  0.19100  Biso   1.000  C
  C159     1.0000 0.61580  0.81440  0.19100  Biso   1.000  C
  C160     1.0000 0.18560  0.61580  0.19100  Biso   1.000  C
  H49      1.0000 0.13790  0.29420  0.30580  Biso   1.000  H
  H50      1.0000 0.70580  0.13790  0.30580  Biso   1.000  H
  H51      1.0000 0.86210  0.70580  0.30580  Biso   1.000  H
  H52      1.0000 0.29420  0.86210  0.30580  Biso   1.000  H
  H53      1.0000 0.63790  0.79420  0.80580  Biso   1.000  H
  H54      1.0000 0.20580  0.63790  0.80580  Biso   1.000  H
  H55      1.0000 0.36210  0.20580  0.80580  Biso   1.000  H
  H56      1.0000 0.79420  0.36210  0.80580  Biso   1.000  H
  H57      1.0000 0.86210  0.70580  0.69420  Biso   1.000  H
  H58      1.0000 0.29420  0.86210  0.69420  Biso   1.000  H
  H59      1.0000 0.13790  0.29420  0.69420  Biso   1.000  H
  H60      1.0000 0.70580  0.13790  0.69420  Biso   1.000  H
  H61      1.0000 0.36210  0.20580  0.19420  Biso   1.000  H
  H62      1.0000 0.79420  0.36210  0.19420  Biso   1.000  H
  H63      1.0000 0.63790  0.79420  0.19420  Biso   1.000  H
  H64      1.0000 0.20580  0.63790  0.19420  Biso   1.000  H
  C161     1.0000 0.07510  0.30620  0.29160  Biso   1.000  C
  C162     1.0000 0.69380  0.07510  0.29160  Biso   1.000  C
  C163     1.0000 0.92490  0.69380  0.29160  Biso   1.000  C
  C164     1.0000 0.30620  0.92490  0.29160  Biso   1.000  C
  C165     1.0000 0.57510  0.80620  0.79160  Biso   1.000  C
  C166     1.0000 0.19380  0.57510  0.79160  Biso   1.000  C
  C167     1.0000 0.42490  0.19380  0.79160  Biso   1.000  C
  C168     1.0000 0.80620  0.42490  0.79160  Biso   1.000  C
  C169     1.0000 0.92490  0.69380  0.70840  Biso   1.000  C
  C170     1.0000 0.30620  0.92490  0.70840  Biso   1.000  C
  C171     1.0000 0.07510  0.30620  0.70840  Biso   1.000  C
  C172     1.0000 0.69380  0.07510  0.70840  Biso   1.000  C
  C173     1.0000 0.42490  0.19380  0.20840  Biso   1.000  C
  C174     1.0000 0.80620  0.42490  0.20840  Biso   1.000  C
  C175     1.0000 0.57510  0.80620  0.20840  Biso   1.000  C
  C176     1.0000 0.19380  0.57510  0.20840  Biso   1.000  C
  H65      1.0000 0.07000  0.28050  0.27670  Biso   1.000  H
  H66      1.0000 0.71950  0.07000  0.27670  Biso   1.000  H
  H67      1.0000 0.93000  0.71950  0.27670  Biso   1.000  H
  H68      1.0000 0.28050  0.93000  0.27670  Biso   1.000  H
  H69      1.0000 0.57000  0.78050  0.77670  Biso   1.000  H
  H70      1.0000 0.21950  0.57000  0.77670  Biso   1.000  H
  H71      1.0000 0.43000  0.21950  0.77670  Biso   1.000  H
  H72      1.0000 0.78050  0.43000  0.77670  Biso   1.000  H
  H73      1.0000 0.93000  0.71950  0.72330  Biso   1.000  H
  H74      1.0000 0.28050  0.93000  0.72330  Biso   1.000  H
  H75      1.0000 0.07000  0.28050  0.72330  Biso   1.000  H
  H76      1.0000 0.71950  0.07000  0.72330  Biso   1.000  H
  H77      1.0000 0.43000  0.21950  0.22330  Biso   1.000  H
  H78      1.0000 0.78050  0.43000  0.22330  Biso   1.000  H
  H79      1.0000 0.57000  0.78050  0.22330  Biso   1.000  H
  H80      1.0000 0.21950  0.57000  0.22330  Biso   1.000  H
  C177     1.0000 0.04214  0.33630  0.29640  Biso   1.000  C
  C178     1.0000 0.66370  0.04214  0.29640  Biso   1.000  C
  C179     1.0000 0.95786  0.66370  0.29640  Biso   1.000  C
  C180     1.0000 0.33630  0.95786  0.29640  Biso   1.000  C
  C181     1.0000 0.54214  0.83630  0.79640  Biso   1.000  C
  C182     1.0000 0.16370  0.54214  0.79640  Biso   1.000  C
  C183     1.0000 0.45786  0.16370  0.79640  Biso   1.000  C
  C184     1.0000 0.83630  0.45786  0.79640  Biso   1.000  C
  C185     1.0000 0.95786  0.66370  0.70360  Biso   1.000  C
  C186     1.0000 0.33630  0.95786  0.70360  Biso   1.000  C
  C187     1.0000 0.04214  0.33630  0.70360  Biso   1.000  C
  C188     1.0000 0.66370  0.04214  0.70360  Biso   1.000  C
  C189     1.0000 0.45786  0.16370  0.20360  Biso   1.000  C
  C190     1.0000 0.83630  0.45786  0.20360  Biso   1.000  C
  C191     1.0000 0.54214  0.83630  0.20360  Biso   1.000  C
  C192     1.0000 0.16370  0.54214  0.20360  Biso   1.000  C
  C193     1.0000 0.04980  0.37470  0.31860  Biso   1.000  C
  C194     1.0000 0.62530  0.04980  0.31860  Biso   1.000  C
  C195     1.0000 0.95020  0.62530  0.31860  Biso   1.000  C
  C196     1.0000 0.37470  0.95020  0.31860  Biso   1.000  C
  C197     1.0000 0.54980  0.87470  0.81860  Biso   1.000  C
  C198     1.0000 0.12530  0.54980  0.81860  Biso   1.000  C
  C199     1.0000 0.45020  0.12530  0.81860  Biso   1.000  C
  C200     1.0000 0.87470  0.45020  0.81860  Biso   1.000  C
  C201     1.0000 0.95020  0.62530  0.68140  Biso   1.000  C
  C202     1.0000 0.37470  0.95020  0.68140  Biso   1.000  C
  C203     1.0000 0.04980  0.37470  0.68140  Biso   1.000  C
  C204     1.0000 0.62530  0.04980  0.68140  Biso   1.000  C
  C205     1.0000 0.45020  0.12530  0.18140  Biso   1.000  C
  C206     1.0000 0.87470  0.45020  0.18140  Biso   1.000  C
  C207     1.0000 0.54980  0.87470  0.18140  Biso   1.000  C
  C208     1.0000 0.12530  0.54980  0.18140  Biso   1.000  C
  H81      1.0000 0.02770  0.39490  0.32180  Biso   1.000  H
  H82      1.0000 0.60510  0.02770  0.32180  Biso   1.000  H
  H83      1.0000 0.97230  0.60510  0.32180  Biso   1.000  H
  H84      1.0000 0.39490  0.97230  0.32180  Biso   1.000  H
  H85      1.0000 0.52770  0.89490  0.82180  Biso   1.000  H
  H86      1.0000 0.10510  0.52770  0.82180  Biso   1.000  H
  H87      1.0000 0.47230  0.10510  0.82180  Biso   1.000  H
  H88      1.0000 0.89490  0.47230  0.82180  Biso   1.000  H
  H89      1.0000 0.97230  0.60510  0.67820  Biso   1.000  H
  H90      1.0000 0.39490  0.97230  0.67820  Biso   1.000  H
  H91      1.0000 0.02770  0.39490  0.67820  Biso   1.000  H
  H92      1.0000 0.60510  0.02770  0.67820  Biso   1.000  H
  H93      1.0000 0.47230  0.10510  0.17820  Biso   1.000  H
  H94      1.0000 0.89490  0.47230  0.17820  Biso   1.000  H
  H95      1.0000 0.52770  0.89490  0.17820  Biso   1.000  H
  H96      1.0000 0.10510  0.52770  0.17820  Biso   1.000  H
  C209     1.0000 0.09040  0.38290  0.33600  Biso   1.000  C
  C210     1.0000 0.61710  0.09040  0.33600  Biso   1.000  C
  C211     1.0000 0.90960  0.61710  0.33600  Biso   1.000  C
  C212     1.0000 0.38290  0.90960  0.33600  Biso   1.000  C
  C213     1.0000 0.59040  0.88290  0.83600  Biso   1.000  C
  C214     1.0000 0.11710  0.59040  0.83600  Biso   1.000  C
  C215     1.0000 0.40960  0.11710  0.83600  Biso   1.000  C
  C216     1.0000 0.88290  0.40960  0.83600  Biso   1.000  C
  C217     1.0000 0.90960  0.61710  0.66400  Biso   1.000  C
  C218     1.0000 0.38290  0.90960  0.66400  Biso   1.000  C
  C219     1.0000 0.09040  0.38290  0.66400  Biso   1.000  C
  C220     1.0000 0.61710  0.09040  0.66400  Biso   1.000  C
  C221     1.0000 0.40960  0.11710  0.16400  Biso   1.000  C
  C222     1.0000 0.88290  0.40960  0.16400  Biso   1.000  C
  C223     1.0000 0.59040  0.88290  0.16400  Biso   1.000  C
  C224     1.0000 0.11710  0.59040  0.16400  Biso   1.000  C
  H97      1.0000 0.09550  0.40850  0.35080  Biso   1.000  H
  H98      1.0000 0.59150  0.09550  0.35080  Biso   1.000  H
  H99      1.0000 0.90450  0.59150  0.35080  Biso   1.000  H
  H100     1.0000 0.40850  0.90450  0.35080  Biso   1.000  H
  H101     1.0000 0.59550  0.90850  0.85080  Biso   1.000  H
  H102     1.0000 0.09150  0.59550  0.85080  Biso   1.000  H
  H103     1.0000 0.40450  0.09150  0.85080  Biso   1.000  H
  H104     1.0000 0.90850  0.40450  0.85080  Biso   1.000  H
  H105     1.0000 0.90450  0.59150  0.64920  Biso   1.000  H
  H106     1.0000 0.40850  0.90450  0.64920  Biso   1.000  H
  H107     1.0000 0.09550  0.40850  0.64920  Biso   1.000  H
  H108     1.0000 0.59150  0.09550  0.64920  Biso   1.000  H
  H109     1.0000 0.40450  0.09150  0.14920  Biso   1.000  H
  H110     1.0000 0.90850  0.40450  0.14920  Biso   1.000  H
  H111     1.0000 0.59550  0.90850  0.14920  Biso   1.000  H
  H112     1.0000 0.09150  0.59550  0.14920  Biso   1.000  H
  C225     1.0000 0.99800  0.30750  0.23780  Biso   1.000  C
  C226     1.0000 0.69250  0.99800  0.23780  Biso   1.000  C
  C227     1.0000 0.00200  0.69250  0.23780  Biso   1.000  C
  C228     1.0000 0.30750  0.00200  0.23780  Biso   1.000  C
  C229     1.0000 0.49800  0.80750  0.73780  Biso   1.000  C
  C230     1.0000 0.19250  0.49800  0.73780  Biso   1.000  C
  C231     1.0000 0.50200  0.19250  0.73780  Biso   1.000  C
  C232     1.0000 0.80750  0.50200  0.73780  Biso   1.000  C
  C233     1.0000 0.00200  0.69250  0.76220  Biso   1.000  C
  C234     1.0000 0.30750  0.00200  0.76220  Biso   1.000  C
  C235     1.0000 0.99800  0.30750  0.76220  Biso   1.000  C
  C236     1.0000 0.69250  0.99800  0.76220  Biso   1.000  C
  C237     1.0000 0.50200  0.19250  0.26220  Biso   1.000  C
  C238     1.0000 0.80750  0.50200  0.26220  Biso   1.000  C
  C239     1.0000 0.49800  0.80750  0.26220  Biso   1.000  C
  C240     1.0000 0.19250  0.49800  0.26220  Biso   1.000  C
  C241     1.0000 0.01960  0.26900  0.22930  Biso   1.000  C
  C242     1.0000 0.73100  0.01960  0.22930  Biso   1.000  C
  C243     1.0000 0.98040  0.73100  0.22930  Biso   1.000  C
  C244     1.0000 0.26900  0.98040  0.22930  Biso   1.000  C
  C245     1.0000 0.51960  0.76900  0.72930  Biso   1.000  C
  C246     1.0000 0.23100  0.51960  0.72930  Biso   1.000  C
  C247     1.0000 0.48040  0.23100  0.72930  Biso   1.000  C
  C248     1.0000 0.76900  0.48040  0.72930  Biso   1.000  C
  C249     1.0000 0.98040  0.73100  0.77070  Biso   1.000  C
  C250     1.0000 0.26900  0.98040  0.77070  Biso   1.000  C
  C251     1.0000 0.01960  0.26900  0.77070  Biso   1.000  C
  C252     1.0000 0.73100  0.01960  0.77070  Biso   1.000  C
  C253     1.0000 0.48040  0.23100  0.27070  Biso   1.000  C
  C254     1.0000 0.76900  0.48040  0.27070  Biso   1.000  C
  C255     1.0000 0.51960  0.76900  0.27070  Biso   1.000  C
  C256     1.0000 0.23100  0.51960  0.27070  Biso   1.000  C
  H113     1.0000 0.03750  0.25680  0.25020  Biso   1.000  H
  H114     1.0000 0.74320  0.03750  0.25020  Biso   1.000  H
  H115     1.0000 0.96250  0.74320  0.25020  Biso   1.000  H
  H116     1.0000 0.25680  0.96250  0.25020  Biso   1.000  H
  H117     1.0000 0.53750  0.75680  0.75020  Biso   1.000  H
  H118     1.0000 0.24320  0.53750  0.75020  Biso   1.000  H
  H119     1.0000 0.46250  0.24320  0.75020  Biso   1.000  H
  H120     1.0000 0.75680  0.46250  0.75020  Biso   1.000  H
  H121     1.0000 0.96250  0.74320  0.74980  Biso   1.000  H
  H122     1.0000 0.25680  0.96250  0.74980  Biso   1.000  H
  H123     1.0000 0.03750  0.25680  0.74980  Biso   1.000  H
  H124     1.0000 0.74320  0.03750  0.74980  Biso   1.000  H
  H125     1.0000 0.46250  0.24320  0.24980  Biso   1.000  H
  H126     1.0000 0.75680  0.46250  0.24980  Biso   1.000  H
  H127     1.0000 0.53750  0.75680  0.24980  Biso   1.000  H
  H128     1.0000 0.24320  0.53750  0.24980  Biso   1.000  H
  C257     1.0000 0.01460  0.24870  0.18950  Biso   1.000  C
  C258     1.0000 0.75130  0.01460  0.18950  Biso   1.000  C
  C259     1.0000 0.98540  0.75130  0.18950  Biso   1.000  C
  C260     1.0000 0.24870  0.98540  0.18950  Biso   1.000  C
  C261     1.0000 0.51460  0.74870  0.68950  Biso   1.000  C
  C262     1.0000 0.25130  0.51460  0.68950  Biso   1.000  C
  C263     1.0000 0.48540  0.25130  0.68950  Biso   1.000  C
  C264     1.0000 0.74870  0.48540  0.68950  Biso   1.000  C
  C265     1.0000 0.98540  0.75130  0.81050  Biso   1.000  C
  C266     1.0000 0.24870  0.98540  0.81050  Biso   1.000  C
  C267     1.0000 0.01460  0.24870  0.81050  Biso   1.000  C
  C268     1.0000 0.75130  0.01460  0.81050  Biso   1.000  C
  C269     1.0000 0.48540  0.25130  0.31050  Biso   1.000  C
  C270     1.0000 0.74870  0.48540  0.31050  Biso   1.000  C
  C271     1.0000 0.51460  0.74870  0.31050  Biso   1.000  C
  C272     1.0000 0.25130  0.51460  0.31050  Biso   1.000  C
  H129     1.0000 0.02910  0.22290  0.18380  Biso   1.000  H
  H130     1.0000 0.77710  0.02910  0.18380  Biso   1.000  H
  H131     1.0000 0.97090  0.77710  0.18380  Biso   1.000  H
  H132     1.0000 0.22290  0.97090  0.18380  Biso   1.000  H
  H133     1.0000 0.52910  0.72290  0.68380  Biso   1.000  H
  H134     1.0000 0.27710  0.52910  0.68380  Biso   1.000  H
  H135     1.0000 0.47090  0.27710  0.68380  Biso   1.000  H
  H136     1.0000 0.72290  0.47090  0.68380  Biso   1.000  H
  H137     1.0000 0.97090  0.77710  0.81620  Biso   1.000  H
  H138     1.0000 0.22290  0.97090  0.81620  Biso   1.000  H
  H139     1.0000 0.02910  0.22290  0.81620  Biso   1.000  H
  H140     1.0000 0.77710  0.02910  0.81620  Biso   1.000  H
  H141     1.0000 0.47090  0.27710  0.31620  Biso   1.000  H
  H142     1.0000 0.72290  0.47090  0.31620  Biso   1.000  H
  H143     1.0000 0.52910  0.72290  0.31620  Biso   1.000  H
  H144     1.0000 0.27710  0.52910  0.31620  Biso   1.000  H
  C273     1.0000 0.98790  0.26690  0.15820  Biso   1.000  C
  C274     1.0000 0.73310  0.98790  0.15820  Biso   1.000  C
  C275     1.0000 0.01210  0.73310  0.15820  Biso   1.000  C
  C276     1.0000 0.26690  0.01210  0.15820  Biso   1.000  C
  C277     1.0000 0.48790  0.76690  0.65820  Biso   1.000  C
  C278     1.0000 0.23310  0.48790  0.65820  Biso   1.000  C
  C279     1.0000 0.51210  0.23310  0.65820  Biso   1.000  C
  C280     1.0000 0.76690  0.51210  0.65820  Biso   1.000  C
  C281     1.0000 0.01210  0.73310  0.84180  Biso   1.000  C
  C282     1.0000 0.26690  0.01210  0.84180  Biso   1.000  C
  C283     1.0000 0.98790  0.26690  0.84180  Biso   1.000  C
  C284     1.0000 0.73310  0.98790  0.84180  Biso   1.000  C
  C285     1.0000 0.51210  0.23310  0.34180  Biso   1.000  C
  C286     1.0000 0.76690  0.51210  0.34180  Biso   1.000  C
  C287     1.0000 0.48790  0.76690  0.34180  Biso   1.000  C
  C288     1.0000 0.23310  0.48790  0.34180  Biso   1.000  C
  H145     1.0000 0.98450  0.25330  0.13160  Biso   1.000  H
  H146     1.0000 0.74670  0.98450  0.13160  Biso   1.000  H
  H147     1.0000 0.01550  0.74670  0.13160  Biso   1.000  H
  H148     1.0000 0.25330  0.01550  0.13160  Biso   1.000  H
  H149     1.0000 0.48450  0.75330  0.63160  Biso   1.000  H
  H150     1.0000 0.24670  0.48450  0.63160  Biso   1.000  H
  H151     1.0000 0.51550  0.24670  0.63160  Biso   1.000  H
  H152     1.0000 0.75330  0.51550  0.63160  Biso   1.000  H
  H153     1.0000 0.01550  0.74670  0.86840  Biso   1.000  H
  H154     1.0000 0.25330  0.01550  0.86840  Biso   1.000  H
  H155     1.0000 0.98450  0.25330  0.86840  Biso   1.000  H
  H156     1.0000 0.74670  0.98450  0.86840  Biso   1.000  H
  H157     1.0000 0.51550  0.24670  0.36840  Biso   1.000  H
  H158     1.0000 0.75330  0.51550  0.36840  Biso   1.000  H
  H159     1.0000 0.48450  0.75330  0.36840  Biso   1.000  H
  H160     1.0000 0.24670  0.48450  0.36840  Biso   1.000  H
  C289     1.0000 0.96630  0.30540  0.16670  Biso   1.000  C
  C290     1.0000 0.69460  0.96630  0.16670  Biso   1.000  C
  C291     1.0000 0.03370  0.69460  0.16670  Biso   1.000  C
  C292     1.0000 0.30540  0.03370  0.16670  Biso   1.000  C
  C293     1.0000 0.46630  0.80540  0.66670  Biso   1.000  C
  C294     1.0000 0.19460  0.46630  0.66670  Biso   1.000  C
  C295     1.0000 0.53370  0.19460  0.66670  Biso   1.000  C
  C296     1.0000 0.80540  0.53370  0.66670  Biso   1.000  C
  C297     1.0000 0.03370  0.69460  0.83330  Biso   1.000  C
  C298     1.0000 0.30540  0.03370  0.83330  Biso   1.000  C
  C299     1.0000 0.96630  0.30540  0.83330  Biso   1.000  C
  C300     1.0000 0.69460  0.96630  0.83330  Biso   1.000  C
  C301     1.0000 0.53370  0.19460  0.33330  Biso   1.000  C
  C302     1.0000 0.80540  0.53370  0.33330  Biso   1.000  C
  C303     1.0000 0.46630  0.80540  0.33330  Biso   1.000  C
  C304     1.0000 0.19460  0.46630  0.33330  Biso   1.000  C
  H161     1.0000 0.94840  0.31750  0.14580  Biso   1.000  H
  H162     1.0000 0.68250  0.94840  0.14580  Biso   1.000  H
  H163     1.0000 0.05160  0.68250  0.14580  Biso   1.000  H
  H164     1.0000 0.31750  0.05160  0.14580  Biso   1.000  H
  H165     1.0000 0.44840  0.81750  0.64580  Biso   1.000  H
  H166     1.0000 0.18250  0.44840  0.64580  Biso   1.000  H
  H167     1.0000 0.55160  0.18250  0.64580  Biso   1.000  H
  H168     1.0000 0.81750  0.55160  0.64580  Biso   1.000  H
  H169     1.0000 0.05160  0.68250  0.85420  Biso   1.000  H
  H170     1.0000 0.31750  0.05160  0.85420  Biso   1.000  H
  H171     1.0000 0.94840  0.31750  0.85420  Biso   1.000  H
  H172     1.0000 0.68250  0.94840  0.85420  Biso   1.000  H
  H173     1.0000 0.55160  0.18250  0.35420  Biso   1.000  H
  H174     1.0000 0.81750  0.55160  0.35420  Biso   1.000  H
  H175     1.0000 0.44840  0.81750  0.35420  Biso   1.000  H
  H176     1.0000 0.18250  0.44840  0.35420  Biso   1.000  H
  C305     1.0000 0.97130  0.32570  0.20650  Biso   1.000  C
  C306     1.0000 0.67430  0.97130  0.20650  Biso   1.000  C
  C307     1.0000 0.02870  0.67430  0.20650  Biso   1.000  C
  C308     1.0000 0.32570  0.02870  0.20650  Biso   1.000  C
  C309     1.0000 0.47130  0.82570  0.70650  Biso   1.000  C
  C310     1.0000 0.17430  0.47130  0.70650  Biso   1.000  C
  C311     1.0000 0.52870  0.17430  0.70650  Biso   1.000  C
  C312     1.0000 0.82570  0.52870  0.70650  Biso   1.000  C
  C313     1.0000 0.02870  0.67430  0.79350  Biso   1.000  C
  C314     1.0000 0.32570  0.02870  0.79350  Biso   1.000  C
  C315     1.0000 0.97130  0.32570  0.79350  Biso   1.000  C
  C316     1.0000 0.67430  0.97130  0.79350  Biso   1.000  C
  C317     1.0000 0.52870  0.17430  0.29350  Biso   1.000  C
  C318     1.0000 0.82570  0.52870  0.29350  Biso   1.000  C
  C319     1.0000 0.47130  0.82570  0.29350  Biso   1.000  C
  C320     1.0000 0.17430  0.47130  0.29350  Biso   1.000  C
  H177     1.0000 0.95680  0.35140  0.21220  Biso   1.000  H
  H178     1.0000 0.64860  0.95680  0.21220  Biso   1.000  H
  H179     1.0000 0.04320  0.64860  0.21220  Biso   1.000  H
  H180     1.0000 0.35140  0.04320  0.21220  Biso   1.000  H
  H181     1.0000 0.45680  0.85140  0.71220  Biso   1.000  H
  H182     1.0000 0.14860  0.45680  0.71220  Biso   1.000  H
  H183     1.0000 0.54320  0.14860  0.71220  Biso   1.000  H
  H184     1.0000 0.85140  0.54320  0.71220  Biso   1.000  H
  H185     1.0000 0.04320  0.64860  0.78780  Biso   1.000  H
  H186     1.0000 0.35140  0.04320  0.78780  Biso   1.000  H
  H187     1.0000 0.95680  0.35140  0.78780  Biso   1.000  H
  H188     1.0000 0.64860  0.95680  0.78780  Biso   1.000  H
  H189     1.0000 0.54320  0.14860  0.28780  Biso   1.000  H
  H190     1.0000 0.85140  0.54320  0.28780  Biso   1.000  H
  H191     1.0000 0.45680  0.85140  0.28780  Biso   1.000  H
  H192     1.0000 0.14860  0.45680  0.28780  Biso   1.000  H
  C321     1.0000 0.96140  0.33890  0.29800  Biso   1.000  C
  C322     1.0000 0.66110  0.96140  0.29800  Biso   1.000  C
  C323     1.0000 0.03860  0.66110  0.29800  Biso   1.000  C
  C324     1.0000 0.33890  0.03860  0.29800  Biso   1.000  C
  C325     1.0000 0.46140  0.83890  0.79800  Biso   1.000  C
  C326     1.0000 0.16110  0.46140  0.79800  Biso   1.000  C
  C327     1.0000 0.53860  0.16110  0.79800  Biso   1.000  C
  C328     1.0000 0.83890  0.53860  0.79800  Biso   1.000  C
  C329     1.0000 0.03860  0.66110  0.70200  Biso   1.000  C
  C330     1.0000 0.33890  0.03860  0.70200  Biso   1.000  C
  C331     1.0000 0.96140  0.33890  0.70200  Biso   1.000  C
  C332     1.0000 0.66110  0.96140  0.70200  Biso   1.000  C
  C333     1.0000 0.53860  0.16110  0.20200  Biso   1.000  C
  C334     1.0000 0.83890  0.53860  0.20200  Biso   1.000  C
  C335     1.0000 0.46140  0.83890  0.20200  Biso   1.000  C
  C336     1.0000 0.16110  0.46140  0.20200  Biso   1.000  C
  C337     1.0000 0.95950  0.37620  0.32310  Biso   1.000  C
  C338     1.0000 0.62380  0.95950  0.32310  Biso   1.000  C
  C339     1.0000 0.04050  0.62380  0.32310  Biso   1.000  C
  C340     1.0000 0.37620  0.04050  0.32310  Biso   1.000  C
  C341     1.0000 0.45950  0.87620  0.82310  Biso   1.000  C
  C342     1.0000 0.12380  0.45950  0.82310  Biso   1.000  C
  C343     1.0000 0.54050  0.12380  0.82310  Biso   1.000  C
  C344     1.0000 0.87620  0.54050  0.82310  Biso   1.000  C
  C345     1.0000 0.04050  0.62380  0.67690  Biso   1.000  C
  C346     1.0000 0.37620  0.04050  0.67690  Biso   1.000  C
  C347     1.0000 0.95950  0.37620  0.67690  Biso   1.000  C
  C348     1.0000 0.62380  0.95950  0.67690  Biso   1.000  C
  C349     1.0000 0.54050  0.12380  0.17690  Biso   1.000  C
  C350     1.0000 0.87620  0.54050  0.17690  Biso   1.000  C
  C351     1.0000 0.45950  0.87620  0.17690  Biso   1.000  C
  C352     1.0000 0.12380  0.45950  0.17690  Biso   1.000  C
  H193     1.0000 0.98440  0.39230  0.32810  Biso   1.000  H
  H194     1.0000 0.60770  0.98440  0.32810  Biso   1.000  H
  H195     1.0000 0.01560  0.60770  0.32810  Biso   1.000  H
  H196     1.0000 0.39230  0.01560  0.32810  Biso   1.000  H
  H197     1.0000 0.48440  0.89230  0.82810  Biso   1.000  H
  H198     1.0000 0.10770  0.48440  0.82810  Biso   1.000  H
  H199     1.0000 0.51560  0.10770  0.82810  Biso   1.000  H
  H200     1.0000 0.89230  0.51560  0.82810  Biso   1.000  H
  H201     1.0000 0.01560  0.60770  0.67190  Biso   1.000  H
  H202     1.0000 0.39230  0.01560  0.67190  Biso   1.000  H
  H203     1.0000 0.98440  0.39230  0.67190  Biso   1.000  H
  H204     1.0000 0.60770  0.98440  0.67190  Biso   1.000  H
  H205     1.0000 0.51560  0.10770  0.17190  Biso   1.000  H
  H206     1.0000 0.89230  0.51560  0.17190  Biso   1.000  H
  H207     1.0000 0.48440  0.89230  0.17190  Biso   1.000  H
  H208     1.0000 0.10770  0.48440  0.17190  Biso   1.000  H
  C353     1.0000 0.92030  0.38930  0.34090  Biso   1.000  C
  C354     1.0000 0.61070  0.92030  0.34090  Biso   1.000  C
  C355     1.0000 0.07970  0.61070  0.34090  Biso   1.000  C
  C356     1.0000 0.38930  0.07970  0.34090  Biso   1.000  C
  C357     1.0000 0.42030  0.88930  0.84090  Biso   1.000  C
  C358     1.0000 0.11070  0.42030  0.84090  Biso   1.000  C
  C359     1.0000 0.57970  0.11070  0.84090  Biso   1.000  C
  C360     1.0000 0.88930  0.57970  0.84090  Biso   1.000  C
  C361     1.0000 0.07970  0.61070  0.65910  Biso   1.000  C
  C362     1.0000 0.38930  0.07970  0.65910  Biso   1.000  C
  C363     1.0000 0.92030  0.38930  0.65910  Biso   1.000  C
  C364     1.0000 0.61070  0.92030  0.65910  Biso   1.000  C
  C365     1.0000 0.57970  0.11070  0.15910  Biso   1.000  C
  C366     1.0000 0.88930  0.57970  0.15910  Biso   1.000  C
  C367     1.0000 0.42030  0.88930  0.15910  Biso   1.000  C
  C368     1.0000 0.11070  0.42030  0.15910  Biso   1.000  C
  H209     1.0000 0.91900  0.41420  0.35770  Biso   1.000  H
  H210     1.0000 0.58580  0.91900  0.35770  Biso   1.000  H
  H211     1.0000 0.08100  0.58580  0.35770  Biso   1.000  H
  H212     1.0000 0.41420  0.08100  0.35770  Biso   1.000  H
  H213     1.0000 0.41900  0.91420  0.85770  Biso   1.000  H
  H214     1.0000 0.08580  0.41900  0.85770  Biso   1.000  H
  H215     1.0000 0.58100  0.08580  0.85770  Biso   1.000  H
  H216     1.0000 0.91420  0.58100  0.85770  Biso   1.000  H
  H217     1.0000 0.08100  0.58580  0.64230  Biso   1.000  H
  H218     1.0000 0.41420  0.08100  0.64230  Biso   1.000  H
  H219     1.0000 0.91900  0.41420  0.64230  Biso   1.000  H
  H220     1.0000 0.58580  0.91900  0.64230  Biso   1.000  H
  H221     1.0000 0.58100  0.08580  0.14230  Biso   1.000  H
  H222     1.0000 0.91420  0.58100  0.14230  Biso   1.000  H
  H223     1.0000 0.41900  0.91420  0.14230  Biso   1.000  H
  H224     1.0000 0.08580  0.41900  0.14230  Biso   1.000  H
  C369     1.0000 0.88310  0.36520  0.33350  Biso   1.000  C
  C370     1.0000 0.63480  0.88310  0.33350  Biso   1.000  C
  C371     1.0000 0.11690  0.63480  0.33350  Biso   1.000  C
  C372     1.0000 0.36520  0.11690  0.33350  Biso   1.000  C
  C373     1.0000 0.38310  0.86520  0.83350  Biso   1.000  C
  C374     1.0000 0.13480  0.38310  0.83350  Biso   1.000  C
  C375     1.0000 0.61690  0.13480  0.83350  Biso   1.000  C
  C376     1.0000 0.86520  0.61690  0.83350  Biso   1.000  C
  C377     1.0000 0.11690  0.63480  0.66650  Biso   1.000  C
  C378     1.0000 0.36520  0.11690  0.66650  Biso   1.000  C
  C379     1.0000 0.88310  0.36520  0.66650  Biso   1.000  C
  C380     1.0000 0.63480  0.88310  0.66650  Biso   1.000  C
  C381     1.0000 0.61690  0.13480  0.16650  Biso   1.000  C
  C382     1.0000 0.86520  0.61690  0.16650  Biso   1.000  C
  C383     1.0000 0.38310  0.86520  0.16650  Biso   1.000  C
  C384     1.0000 0.13480  0.38310  0.16650  Biso   1.000  C
  C385     1.0000 0.88500  0.32800  0.30840  Biso   1.000  C
  C386     1.0000 0.67200  0.88500  0.30840  Biso   1.000  C
  C387     1.0000 0.11500  0.67200  0.30840  Biso   1.000  C
  C388     1.0000 0.32800  0.11500  0.30840  Biso   1.000  C
  C389     1.0000 0.38500  0.82800  0.80840  Biso   1.000  C
  C390     1.0000 0.17200  0.38500  0.80840  Biso   1.000  C
  C391     1.0000 0.61500  0.17200  0.80840  Biso   1.000  C
  C392     1.0000 0.82800  0.61500  0.80840  Biso   1.000  C
  C393     1.0000 0.11500  0.67200  0.69160  Biso   1.000  C
  C394     1.0000 0.32800  0.11500  0.69160  Biso   1.000  C
  C395     1.0000 0.88500  0.32800  0.69160  Biso   1.000  C
  C396     1.0000 0.67200  0.88500  0.69160  Biso   1.000  C
  C397     1.0000 0.61500  0.17200  0.19160  Biso   1.000  C
  C398     1.0000 0.82800  0.61500  0.19160  Biso   1.000  C
  C399     1.0000 0.38500  0.82800  0.19160  Biso   1.000  C
  C400     1.0000 0.17200  0.38500  0.19160  Biso   1.000  C
  H225     1.0000 0.86010  0.31190  0.30340  Biso   1.000  H
  H226     1.0000 0.68810  0.86010  0.30340  Biso   1.000  H
  H227     1.0000 0.13990  0.68810  0.30340  Biso   1.000  H
  H228     1.0000 0.31190  0.13990  0.30340  Biso   1.000  H
  H229     1.0000 0.36010  0.81190  0.80340  Biso   1.000  H
  H230     1.0000 0.18810  0.36010  0.80340  Biso   1.000  H
  H231     1.0000 0.63990  0.18810  0.80340  Biso   1.000  H
  H232     1.0000 0.81190  0.63990  0.80340  Biso   1.000  H
  H233     1.0000 0.13990  0.68810  0.69660  Biso   1.000  H
  H234     1.0000 0.31190  0.13990  0.69660  Biso   1.000  H
  H235     1.0000 0.86010  0.31190  0.69660  Biso   1.000  H
  H236     1.0000 0.68810  0.86010  0.69660  Biso   1.000  H
  H237     1.0000 0.63990  0.18810  0.19660  Biso   1.000  H
  H238     1.0000 0.81190  0.63990  0.19660  Biso   1.000  H
  H239     1.0000 0.36010  0.81190  0.19660  Biso   1.000  H
  H240     1.0000 0.18810  0.36010  0.19660  Biso   1.000  H
  C401     1.0000 0.92410  0.31490  0.29060  Biso   1.000  C
  C402     1.0000 0.68510  0.92410  0.29060  Biso   1.000  C
  C403     1.0000 0.07590  0.68510  0.29060  Biso   1.000  C
  C404     1.0000 0.31490  0.07590  0.29060  Biso   1.000  C
  C405     1.0000 0.42410  0.81490  0.79060  Biso   1.000  C
  C406     1.0000 0.18510  0.42410  0.79060  Biso   1.000  C
  C407     1.0000 0.57590  0.18510  0.79060  Biso   1.000  C
  C408     1.0000 0.81490  0.57590  0.79060  Biso   1.000  C
  C409     1.0000 0.07590  0.68510  0.70940  Biso   1.000  C
  C410     1.0000 0.31490  0.07590  0.70940  Biso   1.000  C
  C411     1.0000 0.92410  0.31490  0.70940  Biso   1.000  C
  C412     1.0000 0.68510  0.92410  0.70940  Biso   1.000  C
  C413     1.0000 0.57590  0.18510  0.20940  Biso   1.000  C
  C414     1.0000 0.81490  0.57590  0.20940  Biso   1.000  C
  C415     1.0000 0.42410  0.81490  0.20940  Biso   1.000  C
  C416     1.0000 0.18510  0.42410  0.20940  Biso   1.000  C
  H241     1.0000 0.92540  0.28990  0.27380  Biso   1.000  H
  H242     1.0000 0.71010  0.92540  0.27380  Biso   1.000  H
  H243     1.0000 0.07460  0.71010  0.27380  Biso   1.000  H
  H244     1.0000 0.28990  0.07460  0.27380  Biso   1.000  H
  H245     1.0000 0.42540  0.78990  0.77380  Biso   1.000  H
  H246     1.0000 0.21010  0.42540  0.77380  Biso   1.000  H
  H247     1.0000 0.57460  0.21010  0.77380  Biso   1.000  H
  H248     1.0000 0.78990  0.57460  0.77380  Biso   1.000  H
  H249     1.0000 0.07460  0.71010  0.72620  Biso   1.000  H
  H250     1.0000 0.28990  0.07460  0.72620  Biso   1.000  H
  H251     1.0000 0.92540  0.28990  0.72620  Biso   1.000  H
  H252     1.0000 0.71010  0.92540  0.72620  Biso   1.000  H
  H253     1.0000 0.57460  0.21010  0.22620  Biso   1.000  H
  H254     1.0000 0.78990  0.57460  0.22620  Biso   1.000  H
  H255     1.0000 0.42540  0.78990  0.22620  Biso   1.000  H
  H256     1.0000 0.21010  0.42540  0.22620  Biso   1.000  H
  C417     1.0000 0.84078  0.38110  0.35350  Biso   1.000  C
  C418     1.0000 0.61890  0.84078  0.35350  Biso   1.000  C
  C419     1.0000 0.15922  0.61890  0.35350  Biso   1.000  C
  C420     1.0000 0.38110  0.15922  0.35350  Biso   1.000  C
  C421     1.0000 0.34078  0.88110  0.85350  Biso   1.000  C
  C422     1.0000 0.11890  0.34078  0.85350  Biso   1.000  C
  C423     1.0000 0.65922  0.11890  0.85350  Biso   1.000  C
  C424     1.0000 0.88110  0.65922  0.85350  Biso   1.000  C
  C425     1.0000 0.15922  0.61890  0.64650  Biso   1.000  C
  C426     1.0000 0.38110  0.15922  0.64650  Biso   1.000  C
  C427     1.0000 0.84078  0.38110  0.64650  Biso   1.000  C
  C428     1.0000 0.61890  0.84078  0.64650  Biso   1.000  C
  C429     1.0000 0.65922  0.11890  0.14650  Biso   1.000  C
  C430     1.0000 0.88110  0.65922  0.14650  Biso   1.000  C
  C431     1.0000 0.34078  0.88110  0.14650  Biso   1.000  C
  C432     1.0000 0.11890  0.34078  0.14650  Biso   1.000  C
  C433     1.0000 0.83918  0.40660  0.39054  Biso   1.000  C
  C434     1.0000 0.59340  0.83918  0.39054  Biso   1.000  C
  C435     1.0000 0.16082  0.59340  0.39054  Biso   1.000  C
  C436     1.0000 0.40660  0.16082  0.39054  Biso   1.000  C
  C437     1.0000 0.33918  0.90660  0.89054  Biso   1.000  C
  C438     1.0000 0.09340  0.33918  0.89054  Biso   1.000  C
  C439     1.0000 0.66082  0.09340  0.89054  Biso   1.000  C
  C440     1.0000 0.90660  0.66082  0.89054  Biso   1.000  C
  C441     1.0000 0.16082  0.59340  0.60946  Biso   1.000  C
  C442     1.0000 0.40660  0.16082  0.60946  Biso   1.000  C
  C443     1.0000 0.83918  0.40660  0.60946  Biso   1.000  C
  C444     1.0000 0.59340  0.83918  0.60946  Biso   1.000  C
  C445     1.0000 0.66082  0.09340  0.10946  Biso   1.000  C
  C446     1.0000 0.90660  0.66082  0.10946  Biso   1.000  C
  C447     1.0000 0.33918  0.90660  0.10946  Biso   1.000  C
  C448     1.0000 0.09340  0.33918  0.10946  Biso   1.000  C
  H257     1.0000 0.86470  0.41450  0.40450  Biso   1.000  H
  H258     1.0000 0.58550  0.86470  0.40450  Biso   1.000  H
  H259     1.0000 0.13530  0.58550  0.40450  Biso   1.000  H
  H260     1.0000 0.41450  0.13530  0.40450  Biso   1.000  H
  H261     1.0000 0.36470  0.91450  0.90450  Biso   1.000  H
  H262     1.0000 0.08550  0.36470  0.90450  Biso   1.000  H
  H263     1.0000 0.63530  0.08550  0.90450  Biso   1.000  H
  H264     1.0000 0.91450  0.63530  0.90450  Biso   1.000  H
  H265     1.0000 0.13530  0.58550  0.59550  Biso   1.000  H
  H266     1.0000 0.41450  0.13530  0.59550  Biso   1.000  H
  H267     1.0000 0.86470  0.41450  0.59550  Biso   1.000  H
  H268     1.0000 0.58550  0.86470  0.59550  Biso   1.000  H
  H269     1.0000 0.63530  0.08550  0.09550  Biso   1.000  H
  H270     1.0000 0.91450  0.63530  0.09550  Biso   1.000  H
  H271     1.0000 0.36470  0.91450  0.09550  Biso   1.000  H
  H272     1.0000 0.08550  0.36470  0.09550  Biso   1.000  H
  C449     1.0000 0.79953  0.42030  0.40674  Biso   1.000  C
  C450     1.0000 0.57970  0.79953  0.40674  Biso   1.000  C
  C451     1.0000 0.20047  0.57970  0.40674  Biso   1.000  C
  C452     1.0000 0.42030  0.20047  0.40674  Biso   1.000  C
  C453     1.0000 0.29953  0.92030  0.90674  Biso   1.000  C
  C454     1.0000 0.07970  0.29953  0.90674  Biso   1.000  C
  C455     1.0000 0.70047  0.07970  0.90674  Biso   1.000  C
  C456     1.0000 0.92030  0.70047  0.90674  Biso   1.000  C
  C457     1.0000 0.20047  0.57970  0.59326  Biso   1.000  C
  C458     1.0000 0.42030  0.20047  0.59326  Biso   1.000  C
  C459     1.0000 0.79953  0.42030  0.59326  Biso   1.000  C
  C460     1.0000 0.57970  0.79953  0.59326  Biso   1.000  C
  C461     1.0000 0.70047  0.07970  0.09326  Biso   1.000  C
  C462     1.0000 0.92030  0.70047  0.09326  Biso   1.000  C
  C463     1.0000 0.29953  0.92030  0.09326  Biso   1.000  C
  C464     1.0000 0.07970  0.29953  0.09326  Biso   1.000  C
  C465     1.0000 0.76146  0.40840  0.38594  Biso   1.000  C
  C466     1.0000 0.59160  0.76146  0.38594  Biso   1.000  C
  C467     1.0000 0.23854  0.59160  0.38594  Biso   1.000  C
  C468     1.0000 0.40840  0.23854  0.38594  Biso   1.000  C
  C469     1.0000 0.26146  0.90840  0.88594  Biso   1.000  C
  C470     1.0000 0.09160  0.26146  0.88594  Biso   1.000  C
  C471     1.0000 0.73854  0.09160  0.88594  Biso   1.000  C
  C472     1.0000 0.90840  0.73854  0.88594  Biso   1.000  C
  C473     1.0000 0.23854  0.59160  0.61406  Biso   1.000  C
  C474     1.0000 0.40840  0.23854  0.61406  Biso   1.000  C
  C475     1.0000 0.76146  0.40840  0.61406  Biso   1.000  C
  C476     1.0000 0.59160  0.76146  0.61406  Biso   1.000  C
  C477     1.0000 0.73854  0.09160  0.11406  Biso   1.000  C
  C478     1.0000 0.90840  0.73854  0.11406  Biso   1.000  C
  C479     1.0000 0.26146  0.90840  0.11406  Biso   1.000  C
  C480     1.0000 0.09160  0.26146  0.11406  Biso   1.000  C
  H273     1.0000 0.73490  0.41750  0.39680  Biso   1.000  H
  H274     1.0000 0.58250  0.73490  0.39680  Biso   1.000  H
  H275     1.0000 0.26510  0.58250  0.39680  Biso   1.000  H
  H276     1.0000 0.41750  0.26510  0.39680  Biso   1.000  H
  H277     1.0000 0.23490  0.91750  0.89680  Biso   1.000  H
  H278     1.0000 0.08250  0.23490  0.89680  Biso   1.000  H
  H279     1.0000 0.76510  0.08250  0.89680  Biso   1.000  H
  H280     1.0000 0.91750  0.76510  0.89680  Biso   1.000  H
  H281     1.0000 0.26510  0.58250  0.60320  Biso   1.000  H
  H282     1.0000 0.41750  0.26510  0.60320  Biso   1.000  H
  H283     1.0000 0.73490  0.41750  0.60320  Biso   1.000  H
  H284     1.0000 0.58250  0.73490  0.60320  Biso   1.000  H
  H285     1.0000 0.76510  0.08250  0.10320  Biso   1.000  H
  H286     1.0000 0.91750  0.76510  0.10320  Biso   1.000  H
  H287     1.0000 0.23490  0.91750  0.10320  Biso   1.000  H
  H288     1.0000 0.08250  0.23490  0.10320  Biso   1.000  H
  C481     1.0000 0.76305  0.38290  0.34894  Biso   1.000  C
  C482     1.0000 0.61710  0.76305  0.34894  Biso   1.000  C
  C483     1.0000 0.23695  0.61710  0.34894  Biso   1.000  C
  C484     1.0000 0.38290  0.23695  0.34894  Biso   1.000  C
  C485     1.0000 0.26305  0.88290  0.84894  Biso   1.000  C
  C486     1.0000 0.11710  0.26305  0.84894  Biso   1.000  C
  C487     1.0000 0.73695  0.11710  0.84894  Biso   1.000  C
  C488     1.0000 0.88290  0.73695  0.84894  Biso   1.000  C
  C489     1.0000 0.23695  0.61710  0.65106  Biso   1.000  C
  C490     1.0000 0.38290  0.23695  0.65106  Biso   1.000  C
  C491     1.0000 0.76305  0.38290  0.65106  Biso   1.000  C
  C492     1.0000 0.61710  0.76305  0.65106  Biso   1.000  C
  C493     1.0000 0.73695  0.11710  0.15106  Biso   1.000  C
  C494     1.0000 0.88290  0.73695  0.15106  Biso   1.000  C
  C495     1.0000 0.26305  0.88290  0.15106  Biso   1.000  C
  C496     1.0000 0.11710  0.26305  0.15106  Biso   1.000  C
  C497     1.0000 0.80271  0.36930  0.33273  Biso   1.000  C
  C498     1.0000 0.63070  0.80271  0.33273  Biso   1.000  C
  C499     1.0000 0.19729  0.63070  0.33273  Biso   1.000  C
  C500     1.0000 0.36930  0.19729  0.33273  Biso   1.000  C
  C501     1.0000 0.30271  0.86930  0.83273  Biso   1.000  C
  C502     1.0000 0.13070  0.30271  0.83273  Biso   1.000  C
  C503     1.0000 0.69729  0.13070  0.83273  Biso   1.000  C
  C504     1.0000 0.86930  0.69729  0.83273  Biso   1.000  C
  C505     1.0000 0.19729  0.63070  0.66727  Biso   1.000  C
  C506     1.0000 0.36930  0.19729  0.66727  Biso   1.000  C
  C507     1.0000 0.80271  0.36930  0.66727  Biso   1.000  C
  C508     1.0000 0.63070  0.80271  0.66727  Biso   1.000  C
  C509     1.0000 0.69729  0.13070  0.16727  Biso   1.000  C
  C510     1.0000 0.86930  0.69729  0.16727  Biso   1.000  C
  C511     1.0000 0.30271  0.86930  0.16727  Biso   1.000  C
  C512     1.0000 0.13070  0.30271  0.16727  Biso   1.000  C
  H289     1.0000 0.80380  0.35220  0.30800  Biso   1.000  H
  H290     1.0000 0.64780  0.80380  0.30800  Biso   1.000  H
  H291     1.0000 0.19620  0.64780  0.30800  Biso   1.000  H
  H292     1.0000 0.35220  0.19620  0.30800  Biso   1.000  H
  H293     1.0000 0.30380  0.85220  0.80800  Biso   1.000  H
  H294     1.0000 0.14780  0.30380  0.80800  Biso   1.000  H
  H295     1.0000 0.69620  0.14780  0.80800  Biso   1.000  H
  H296     1.0000 0.85220  0.69620  0.80800  Biso   1.000  H
  H297     1.0000 0.19620  0.64780  0.69200  Biso   1.000  H
  H298     1.0000 0.35220  0.19620  0.69200  Biso   1.000  H
  H299     1.0000 0.80380  0.35220  0.69200  Biso   1.000  H
  H300     1.0000 0.64780  0.80380  0.69200  Biso   1.000  H
  H301     1.0000 0.69620  0.14780  0.19200  Biso   1.000  H
  H302     1.0000 0.85220  0.69620  0.19200  Biso   1.000  H
  H303     1.0000 0.30380  0.85220  0.19200  Biso   1.000  H
  H304     1.0000 0.14780  0.30380  0.19200  Biso   1.000  H
  C513     1.0000 0.72170  0.37230  0.32420  Biso   1.000  C
  C514     1.0000 0.62770  0.72170  0.32420  Biso   1.000  C
  C515     1.0000 0.27830  0.62770  0.32420  Biso   1.000  C
  C516     1.0000 0.37230  0.27830  0.32420  Biso   1.000  C
  C517     1.0000 0.22170  0.87230  0.82420  Biso   1.000  C
  C518     1.0000 0.12770  0.22170  0.82420  Biso   1.000  C
  C519     1.0000 0.77830  0.12770  0.82420  Biso   1.000  C
  C520     1.0000 0.87230  0.77830  0.82420  Biso   1.000  C
  C521     1.0000 0.27830  0.62770  0.67580  Biso   1.000  C
  C522     1.0000 0.37230  0.27830  0.67580  Biso   1.000  C
  C523     1.0000 0.72170  0.37230  0.67580  Biso   1.000  C
  C524     1.0000 0.62770  0.72170  0.67580  Biso   1.000  C
  C525     1.0000 0.77830  0.12770  0.17580  Biso   1.000  C
  C526     1.0000 0.87230  0.77830  0.17580  Biso   1.000  C
  C527     1.0000 0.22170  0.87230  0.17580  Biso   1.000  C
  C528     1.0000 0.12770  0.22170  0.17580  Biso   1.000  C
  C529     1.0000 0.79860  0.45300  0.44330  Biso   1.000  C
  C530     1.0000 0.54700  0.79860  0.44330  Biso   1.000  C
  C531     1.0000 0.20140  0.54700  0.44330  Biso   1.000  C
  C532     1.0000 0.45300  0.20140  0.44330  Biso   1.000  C
  C533     1.0000 0.29860  0.95300  0.94330  Biso   1.000  C
  C534     1.0000 0.04700  0.29860  0.94330  Biso   1.000  C
  C535     1.0000 0.70140  0.04700  0.94330  Biso   1.000  C
  C536     1.0000 0.95300  0.70140  0.94330  Biso   1.000  C
  C537     1.0000 0.20140  0.54700  0.55670  Biso   1.000  C
  C538     1.0000 0.45300  0.20140  0.55670  Biso   1.000  C
  C539     1.0000 0.79860  0.45300  0.55670  Biso   1.000  C
  C540     1.0000 0.54700  0.79860  0.55670  Biso   1.000  C
  C541     1.0000 0.70140  0.04700  0.05670  Biso   1.000  C
  C542     1.0000 0.95300  0.70140  0.05670  Biso   1.000  C
  C543     1.0000 0.29860  0.95300  0.05670  Biso   1.000  C
  C544     1.0000 0.04700  0.29860  0.05670  Biso   1.000  C
  O177     1.0000 0.42630  0.35830  0.27580  Biso   1.000  O
  O178     1.0000 0.64170  0.42630  0.27580  Biso   1.000  O
  O179     1.0000 0.57370  0.64170  0.27580  Biso   1.000  O
  O180     1.0000 0.35830  0.57370  0.27580  Biso   1.000  O
  O181     1.0000 0.92630  0.85830  0.77580  Biso   1.000  O
  O182     1.0000 0.14170  0.92630  0.77580  Biso   1.000  O
  O183     1.0000 0.07370  0.14170  0.77580  Biso   1.000  O
  O184     1.0000 0.85830  0.07370  0.77580  Biso   1.000  O
  O185     1.0000 0.57370  0.64170  0.72420  Biso   1.000  O
  O186     1.0000 0.35830  0.57370  0.72420  Biso   1.000  O
  O187     1.0000 0.42630  0.35830  0.72420  Biso   1.000  O
  O188     1.0000 0.64170  0.42630  0.72420  Biso   1.000  O
  O189     1.0000 0.07370  0.14170  0.22420  Biso   1.000  O
  O190     1.0000 0.85830  0.07370  0.22420  Biso   1.000  O
  O191     1.0000 0.92630  0.85830  0.22420  Biso   1.000  O
  O192     1.0000 0.14170  0.92630  0.22420  Biso   1.000  O
  N17      1.0000 0.51060  0.20740  0.00000  Biso   1.000  N
  N18      1.0000 0.79260  0.51060  0.00000  Biso   1.000  N
  N19      1.0000 0.48940  0.79260  0.00000  Biso   1.000  N
  N20      1.0000 0.20740  0.48940  0.00000  Biso   1.000  N
  N21      1.0000 0.01060  0.70740  0.50000  Biso   1.000  N
  N22      1.0000 0.29260  0.01060  0.50000  Biso   1.000  N
  N23      1.0000 0.98940  0.29260  0.50000  Biso   1.000  N
  N24      1.0000 0.70740  0.98940  0.50000  Biso   1.000  N
  O193     1.0000 0.39200  0.31690  0.22690  Biso   1.000  O
  O194     1.0000 0.68310  0.39200  0.22690  Biso   1.000  O
  O195     1.0000 0.60800  0.68310  0.22690  Biso   1.000  O
  O196     1.0000 0.31690  0.60800  0.22690  Biso   1.000  O
  O197     1.0000 0.89200  0.81690  0.72690  Biso   1.000  O
  O198     1.0000 0.18310  0.89200  0.72690  Biso   1.000  O
  O199     1.0000 0.10800  0.18310  0.72690  Biso   1.000  O
  O200     1.0000 0.81690  0.10800  0.72690  Biso   1.000  O
  O201     1.0000 0.60800  0.68310  0.77310  Biso   1.000  O
  O202     1.0000 0.31690  0.60800  0.77310  Biso   1.000  O
  O203     1.0000 0.39200  0.31690  0.77310  Biso   1.000  O
  O204     1.0000 0.68310  0.39200  0.77310  Biso   1.000  O
  O205     1.0000 0.10800  0.18310  0.27310  Biso   1.000  O
  O206     1.0000 0.81690  0.10800  0.27310  Biso   1.000  O
  O207     1.0000 0.89200  0.81690  0.27310  Biso   1.000  O
  O208     1.0000 0.18310  0.89200  0.27310  Biso   1.000  O
  O209     1.0000 0.58160  0.36200  0.27860  Biso   1.000  O
  O210     1.0000 0.63800  0.58160  0.27860  Biso   1.000  O
  O211     1.0000 0.41840  0.63800  0.27860  Biso   1.000  O
  O212     1.0000 0.36200  0.41840  0.27860  Biso   1.000  O
  O213     1.0000 0.08160  0.86200  0.77860  Biso   1.000  O
  O214     1.0000 0.13800  0.08160  0.77860  Biso   1.000  O
  O215     1.0000 0.91840  0.13800  0.77860  Biso   1.000  O
  O216     1.0000 0.86200  0.91840  0.77860  Biso   1.000  O
  O217     1.0000 0.41840  0.63800  0.72140  Biso   1.000  O
  O218     1.0000 0.36200  0.41840  0.72140  Biso   1.000  O
  O219     1.0000 0.58160  0.36200  0.72140  Biso   1.000  O
  O220     1.0000 0.63800  0.58160  0.72140  Biso   1.000  O
  O221     1.0000 0.91840  0.13800  0.22140  Biso   1.000  O
  O222     1.0000 0.86200  0.91840  0.22140  Biso   1.000  O
  O223     1.0000 0.08160  0.86200  0.22140  Biso   1.000  O
  O224     1.0000 0.13800  0.08160  0.22140  Biso   1.000  O
  O225     1.0000 0.62060  0.32860  0.22510  Biso   1.000  O
  O226     1.0000 0.67140  0.62060  0.22510  Biso   1.000  O
  O227     1.0000 0.37940  0.67140  0.22510  Biso   1.000  O
  O228     1.0000 0.32860  0.37940  0.22510  Biso   1.000  O
  O229     1.0000 0.12060  0.82860  0.72510  Biso   1.000  O
  O230     1.0000 0.17140  0.12060  0.72510  Biso   1.000  O
  O231     1.0000 0.87940  0.17140  0.72510  Biso   1.000  O
  O232     1.0000 0.82860  0.87940  0.72510  Biso   1.000  O
  O233     1.0000 0.37940  0.67140  0.77490  Biso   1.000  O
  O234     1.0000 0.32860  0.37940  0.77490  Biso   1.000  O
  O235     1.0000 0.62060  0.32860  0.77490  Biso   1.000  O
  O236     1.0000 0.67140  0.62060  0.77490  Biso   1.000  O
  O237     1.0000 0.87940  0.17140  0.27490  Biso   1.000  O
  O238     1.0000 0.82860  0.87940  0.27490  Biso   1.000  O
  O239     1.0000 0.12060  0.82860  0.27490  Biso   1.000  O
  O240     1.0000 0.17140  0.12060  0.27490  Biso   1.000  O
  C545     1.0000 0.42440  0.33510  0.24130  Biso   1.000  C
  C546     1.0000 0.66490  0.42440  0.24130  Biso   1.000  C
  C547     1.0000 0.57560  0.66490  0.24130  Biso   1.000  C
  C548     1.0000 0.33510  0.57560  0.24130  Biso   1.000  C
  C549     1.0000 0.92440  0.83510  0.74130  Biso   1.000  C
  C550     1.0000 0.16490  0.92440  0.74130  Biso   1.000  C
  C551     1.0000 0.07560  0.16490  0.74130  Biso   1.000  C
  C552     1.0000 0.83510  0.07560  0.74130  Biso   1.000  C
  C553     1.0000 0.57560  0.66490  0.75870  Biso   1.000  C
  C554     1.0000 0.33510  0.57560  0.75870  Biso   1.000  C
  C555     1.0000 0.42440  0.33510  0.75870  Biso   1.000  C
  C556     1.0000 0.66490  0.42440  0.75870  Biso   1.000  C
  C557     1.0000 0.07560  0.16490  0.25870  Biso   1.000  C
  C558     1.0000 0.83510  0.07560  0.25870  Biso   1.000  C
  C559     1.0000 0.92440  0.83510  0.25870  Biso   1.000  C
  C560     1.0000 0.16490  0.92440  0.25870  Biso   1.000  C
  C561     1.0000 0.46659  0.32820  0.21870  Biso   1.000  C
  C562     1.0000 0.67180  0.46659  0.21870  Biso   1.000  C
  C563     1.0000 0.53341  0.67180  0.21870  Biso   1.000  C
  C564     1.0000 0.32820  0.53341  0.21870  Biso   1.000  C
  C565     1.0000 0.96659  0.82820  0.71870  Biso   1.000  C
  C566     1.0000 0.17180  0.96659  0.71870  Biso   1.000  C
  C567     1.0000 0.03341  0.17180  0.71870  Biso   1.000  C
  C568     1.0000 0.82820  0.03341  0.71870  Biso   1.000  C
  C569     1.0000 0.53341  0.67180  0.78130  Biso   1.000  C
  C570     1.0000 0.32820  0.53341  0.78130  Biso   1.000  C
  C571     1.0000 0.46659  0.32820  0.78130  Biso   1.000  C
  C572     1.0000 0.67180  0.46659  0.78130  Biso   1.000  C
  C573     1.0000 0.03341  0.17180  0.28130  Biso   1.000  C
  C574     1.0000 0.82820  0.03341  0.28130  Biso   1.000  C
  C575     1.0000 0.96659  0.82820  0.28130  Biso   1.000  C
  C576     1.0000 0.17180  0.96659  0.28130  Biso   1.000  C
  C577     1.0000 0.50510  0.34050  0.23851  Biso   1.000  C
  C578     1.0000 0.65950  0.50510  0.23851  Biso   1.000  C
  C579     1.0000 0.49490  0.65950  0.23851  Biso   1.000  C
  C580     1.0000 0.34050  0.49490  0.23851  Biso   1.000  C
  C581     1.0000 0.00510  0.84050  0.73851  Biso   1.000  C
  C582     1.0000 0.15950  0.00510  0.73851  Biso   1.000  C
  C583     1.0000 0.99490  0.15950  0.73851  Biso   1.000  C
  C584     1.0000 0.84050  0.99490  0.73851  Biso   1.000  C
  C585     1.0000 0.49490  0.65950  0.76149  Biso   1.000  C
  C586     1.0000 0.34050  0.49490  0.76149  Biso   1.000  C
  C587     1.0000 0.50510  0.34050  0.76149  Biso   1.000  C
  C588     1.0000 0.65950  0.50510  0.76149  Biso   1.000  C
  C589     1.0000 0.99490  0.15950  0.26149  Biso   1.000  C
  C590     1.0000 0.84050  0.99490  0.26149  Biso   1.000  C
  C591     1.0000 0.00510  0.84050  0.26149  Biso   1.000  C
  C592     1.0000 0.15950  0.00510  0.26149  Biso   1.000  C
  H305     1.0000 0.50450  0.35500  0.26490  Biso   1.000  H
  H306     1.0000 0.64500  0.50450  0.26490  Biso   1.000  H
  H307     1.0000 0.49550  0.64500  0.26490  Biso   1.000  H
  H308     1.0000 0.35500  0.49550  0.26490  Biso   1.000  H
  H309     1.0000 0.00450  0.85500  0.76490  Biso   1.000  H
  H310     1.0000 0.14500  0.00450  0.76490  Biso   1.000  H
  H311     1.0000 0.99550  0.14500  0.76490  Biso   1.000  H
  H312     1.0000 0.85500  0.99550  0.76490  Biso   1.000  H
  H313     1.0000 0.49550  0.64500  0.73510  Biso   1.000  H
  H314     1.0000 0.35500  0.49550  0.73510  Biso   1.000  H
  H315     1.0000 0.50450  0.35500  0.73510  Biso   1.000  H
  H316     1.0000 0.64500  0.50450  0.73510  Biso   1.000  H
  H317     1.0000 0.99550  0.14500  0.23510  Biso   1.000  H
  H318     1.0000 0.85500  0.99550  0.23510  Biso   1.000  H
  H319     1.0000 0.00450  0.85500  0.23510  Biso   1.000  H
  H320     1.0000 0.14500  0.00450  0.23510  Biso   1.000  H
  C593     1.0000 0.54442  0.33110  0.21890  Biso   1.000  C
  C594     1.0000 0.66890  0.54442  0.21890  Biso   1.000  C
  C595     1.0000 0.45558  0.66890  0.21890  Biso   1.000  C
  C596     1.0000 0.33110  0.45558  0.21890  Biso   1.000  C
  C597     1.0000 0.04442  0.83110  0.71890  Biso   1.000  C
  C598     1.0000 0.16890  0.04442  0.71890  Biso   1.000  C
  C599     1.0000 0.95558  0.16890  0.71890  Biso   1.000  C
  C600     1.0000 0.83110  0.95558  0.71890  Biso   1.000  C
  C601     1.0000 0.45558  0.66890  0.78110  Biso   1.000  C
  C602     1.0000 0.33110  0.45558  0.78110  Biso   1.000  C
  C603     1.0000 0.54442  0.33110  0.78110  Biso   1.000  C
  C604     1.0000 0.66890  0.54442  0.78110  Biso   1.000  C
  C605     1.0000 0.95558  0.16890  0.28110  Biso   1.000  C
  C606     1.0000 0.83110  0.95558  0.28110  Biso   1.000  C
  C607     1.0000 0.04442  0.83110  0.28110  Biso   1.000  C
  C608     1.0000 0.16890  0.04442  0.28110  Biso   1.000  C
  C609     1.0000 0.54528  0.30940  0.17950  Biso   1.000  C
  C610     1.0000 0.69060  0.54528  0.17950  Biso   1.000  C
  C611     1.0000 0.45472  0.69060  0.17950  Biso   1.000  C
  C612     1.0000 0.30940  0.45472  0.17950  Biso   1.000  C
  C613     1.0000 0.04528  0.80940  0.67950  Biso   1.000  C
  C614     1.0000 0.19060  0.04528  0.67950  Biso   1.000  C
  C615     1.0000 0.95472  0.19060  0.67950  Biso   1.000  C
  C616     1.0000 0.80940  0.95472  0.67950  Biso   1.000  C
  C617     1.0000 0.45472  0.69060  0.82050  Biso   1.000  C
  C618     1.0000 0.30940  0.45472  0.82050  Biso   1.000  C
  C619     1.0000 0.54528  0.30940  0.82050  Biso   1.000  C
  C620     1.0000 0.69060  0.54528  0.82050  Biso   1.000  C
  C621     1.0000 0.95472  0.19060  0.32050  Biso   1.000  C
  C622     1.0000 0.80940  0.95472  0.32050  Biso   1.000  C
  C623     1.0000 0.04528  0.80940  0.32050  Biso   1.000  C
  C624     1.0000 0.19060  0.04528  0.32050  Biso   1.000  C
  H321     1.0000 0.57160  0.30310  0.16630  Biso   1.000  H
  H322     1.0000 0.69690  0.57160  0.16630  Biso   1.000  H
  H323     1.0000 0.42840  0.69690  0.16630  Biso   1.000  H
  H324     1.0000 0.30310  0.42840  0.16630  Biso   1.000  H
  H325     1.0000 0.07160  0.80310  0.66630  Biso   1.000  H
  H326     1.0000 0.19690  0.07160  0.66630  Biso   1.000  H
  H327     1.0000 0.92840  0.19690  0.66630  Biso   1.000  H
  H328     1.0000 0.80310  0.92840  0.66630  Biso   1.000  H
  H329     1.0000 0.42840  0.69690  0.83370  Biso   1.000  H
  H330     1.0000 0.30310  0.42840  0.83370  Biso   1.000  H
  H331     1.0000 0.57160  0.30310  0.83370  Biso   1.000  H
  H332     1.0000 0.69690  0.57160  0.83370  Biso   1.000  H
  H333     1.0000 0.92840  0.19690  0.33370  Biso   1.000  H
  H334     1.0000 0.80310  0.92840  0.33370  Biso   1.000  H
  H335     1.0000 0.07160  0.80310  0.33370  Biso   1.000  H
  H336     1.0000 0.19690  0.07160  0.33370  Biso   1.000  H
  C625     1.0000 0.50680  0.29720  0.15971  Biso   1.000  C
  C626     1.0000 0.70280  0.50680  0.15971  Biso   1.000  C
  C627     1.0000 0.49320  0.70280  0.15971  Biso   1.000  C
  C628     1.0000 0.29720  0.49320  0.15971  Biso   1.000  C
  C629     1.0000 0.00680  0.79720  0.65971  Biso   1.000  C
  C630     1.0000 0.20280  0.00680  0.65971  Biso   1.000  C
  C631     1.0000 0.99320  0.20280  0.65971  Biso   1.000  C
  C632     1.0000 0.79720  0.99320  0.65971  Biso   1.000  C
  C633     1.0000 0.49320  0.70280  0.84029  Biso   1.000  C
  C634     1.0000 0.29720  0.49320  0.84029  Biso   1.000  C
  C635     1.0000 0.50680  0.29720  0.84029  Biso   1.000  C
  C636     1.0000 0.70280  0.50680  0.84029  Biso   1.000  C
  C637     1.0000 0.99320  0.20280  0.34029  Biso   1.000  C
  C638     1.0000 0.79720  0.99320  0.34029  Biso   1.000  C
  C639     1.0000 0.00680  0.79720  0.34029  Biso   1.000  C
  C640     1.0000 0.20280  0.00680  0.34029  Biso   1.000  C
  C641     1.0000 0.46746  0.30660  0.17930  Biso   1.000  C
  C642     1.0000 0.69340  0.46746  0.17930  Biso   1.000  C
  C643     1.0000 0.53254  0.69340  0.17930  Biso   1.000  C
  C644     1.0000 0.30660  0.53254  0.17930  Biso   1.000  C
  C645     1.0000 0.96746  0.80660  0.67930  Biso   1.000  C
  C646     1.0000 0.19340  0.96746  0.67930  Biso   1.000  C
  C647     1.0000 0.03254  0.19340  0.67930  Biso   1.000  C
  C648     1.0000 0.80660  0.03254  0.67930  Biso   1.000  C
  C649     1.0000 0.53254  0.69340  0.82070  Biso   1.000  C
  C650     1.0000 0.30660  0.53254  0.82070  Biso   1.000  C
  C651     1.0000 0.46746  0.30660  0.82070  Biso   1.000  C
  C652     1.0000 0.69340  0.46746  0.82070  Biso   1.000  C
  C653     1.0000 0.03254  0.19340  0.32070  Biso   1.000  C
  C654     1.0000 0.80660  0.03254  0.32070  Biso   1.000  C
  C655     1.0000 0.96746  0.80660  0.32070  Biso   1.000  C
  C656     1.0000 0.19340  0.96746  0.32070  Biso   1.000  C
  H337     1.0000 0.44170  0.29840  0.16610  Biso   1.000  H
  H338     1.0000 0.70160  0.44170  0.16610  Biso   1.000  H
  H339     1.0000 0.55830  0.70160  0.16610  Biso   1.000  H
  H340     1.0000 0.29840  0.55830  0.16610  Biso   1.000  H
  H341     1.0000 0.94170  0.79840  0.66610  Biso   1.000  H
  H342     1.0000 0.20160  0.94170  0.66610  Biso   1.000  H
  H343     1.0000 0.05830  0.20160  0.66610  Biso   1.000  H
  H344     1.0000 0.79840  0.05830  0.66610  Biso   1.000  H
  H345     1.0000 0.55830  0.70160  0.83390  Biso   1.000  H
  H346     1.0000 0.29840  0.55830  0.83390  Biso   1.000  H
  H347     1.0000 0.44170  0.29840  0.83390  Biso   1.000  H
  H348     1.0000 0.70160  0.44170  0.83390  Biso   1.000  H
  H349     1.0000 0.05830  0.20160  0.33390  Biso   1.000  H
  H350     1.0000 0.79840  0.05830  0.33390  Biso   1.000  H
  H351     1.0000 0.94170  0.79840  0.33390  Biso   1.000  H
  H352     1.0000 0.20160  0.94170  0.33390  Biso   1.000  H
  C657     1.0000 0.58670  0.34180  0.24330  Biso   1.000  C
  C658     1.0000 0.65820  0.58670  0.24330  Biso   1.000  C
  C659     1.0000 0.41330  0.65820  0.24330  Biso   1.000  C
  C660     1.0000 0.34180  0.41330  0.24330  Biso   1.000  C
  C661     1.0000 0.08670  0.84180  0.74330  Biso   1.000  C
  C662     1.0000 0.15820  0.08670  0.74330  Biso   1.000  C
  C663     1.0000 0.91330  0.15820  0.74330  Biso   1.000  C
  C664     1.0000 0.84180  0.91330  0.74330  Biso   1.000  C
  C665     1.0000 0.41330  0.65820  0.75670  Biso   1.000  C
  C666     1.0000 0.34180  0.41330  0.75670  Biso   1.000  C
  C667     1.0000 0.58670  0.34180  0.75670  Biso   1.000  C
  C668     1.0000 0.65820  0.58670  0.75670  Biso   1.000  C
  C669     1.0000 0.91330  0.15820  0.25670  Biso   1.000  C
  C670     1.0000 0.84180  0.91330  0.25670  Biso   1.000  C
  C671     1.0000 0.08670  0.84180  0.25670  Biso   1.000  C
  C672     1.0000 0.15820  0.08670  0.25670  Biso   1.000  C
  C673     1.0000 0.50810  0.27410  0.11810  Biso   1.000  C
  C674     1.0000 0.72590  0.50810  0.11810  Biso   1.000  C
  C675     1.0000 0.49190  0.72590  0.11810  Biso   1.000  C
  C676     1.0000 0.27410  0.49190  0.11810  Biso   1.000  C
  C677     1.0000 0.00810  0.77410  0.61810  Biso   1.000  C
  C678     1.0000 0.22590  0.00810  0.61810  Biso   1.000  C
  C679     1.0000 0.99190  0.22590  0.61810  Biso   1.000  C
  C680     1.0000 0.77410  0.99190  0.61810  Biso   1.000  C
  C681     1.0000 0.49190  0.72590  0.88190  Biso   1.000  C
  C682     1.0000 0.27410  0.49190  0.88190  Biso   1.000  C
  C683     1.0000 0.50810  0.27410  0.88190  Biso   1.000  C
  C684     1.0000 0.72590  0.50810  0.88190  Biso   1.000  C
  C685     1.0000 0.99190  0.22590  0.38190  Biso   1.000  C
  C686     1.0000 0.77410  0.99190  0.38190  Biso   1.000  C
  C687     1.0000 0.00810  0.77410  0.38190  Biso   1.000  C
  C688     1.0000 0.22590  0.00810  0.38190  Biso   1.000  C
  C689     1.0000 0.53940  0.24240  0.11170  Biso   1.000  C
  C690     1.0000 0.75760  0.53940  0.11170  Biso   1.000  C
  C691     1.0000 0.46060  0.75760  0.11170  Biso   1.000  C
  C692     1.0000 0.24240  0.46060  0.11170  Biso   1.000  C
  C693     1.0000 0.03940  0.74240  0.61170  Biso   1.000  C
  C694     1.0000 0.25760  0.03940  0.61170  Biso   1.000  C
  C695     1.0000 0.96060  0.25760  0.61170  Biso   1.000  C
  C696     1.0000 0.74240  0.96060  0.61170  Biso   1.000  C
  C697     1.0000 0.46060  0.75760  0.88830  Biso   1.000  C
  C698     1.0000 0.24240  0.46060  0.88830  Biso   1.000  C
  C699     1.0000 0.53940  0.24240  0.88830  Biso   1.000  C
  C700     1.0000 0.75760  0.53940  0.88830  Biso   1.000  C
  C701     1.0000 0.96060  0.25760  0.38830  Biso   1.000  C
  C702     1.0000 0.74240  0.96060  0.38830  Biso   1.000  C
  C703     1.0000 0.03940  0.74240  0.38830  Biso   1.000  C
  C704     1.0000 0.25760  0.03940  0.38830  Biso   1.000  C
  H353     1.0000 0.55910  0.23610  0.13350  Biso   1.000  H
  H354     1.0000 0.76390  0.55910  0.13350  Biso   1.000  H
  H355     1.0000 0.44090  0.76390  0.13350  Biso   1.000  H
  H356     1.0000 0.23610  0.44090  0.13350  Biso   1.000  H
  H357     1.0000 0.05910  0.73610  0.63350  Biso   1.000  H
  H358     1.0000 0.26390  0.05910  0.63350  Biso   1.000  H
  H359     1.0000 0.94090  0.26390  0.63350  Biso   1.000  H
  H360     1.0000 0.73610  0.94090  0.63350  Biso   1.000  H
  H361     1.0000 0.44090  0.76390  0.86650  Biso   1.000  H
  H362     1.0000 0.23610  0.44090  0.86650  Biso   1.000  H
  H363     1.0000 0.55910  0.23610  0.86650  Biso   1.000  H
  H364     1.0000 0.76390  0.55910  0.86650  Biso   1.000  H
  H365     1.0000 0.94090  0.26390  0.36650  Biso   1.000  H
  H366     1.0000 0.73610  0.94090  0.36650  Biso   1.000  H
  H367     1.0000 0.05910  0.73610  0.36650  Biso   1.000  H
  H368     1.0000 0.26390  0.05910  0.36650  Biso   1.000  H
  C705     1.0000 0.54100  0.22000  0.07280  Biso   1.000  C
  C706     1.0000 0.78000  0.54100  0.07280  Biso   1.000  C
  C707     1.0000 0.45900  0.78000  0.07280  Biso   1.000  C
  C708     1.0000 0.22000  0.45900  0.07280  Biso   1.000  C
  C709     1.0000 0.04100  0.72000  0.57280  Biso   1.000  C
  C710     1.0000 0.28000  0.04100  0.57280  Biso   1.000  C
  C711     1.0000 0.95900  0.28000  0.57280  Biso   1.000  C
  C712     1.0000 0.72000  0.95900  0.57280  Biso   1.000  C
  C713     1.0000 0.45900  0.78000  0.92720  Biso   1.000  C
  C714     1.0000 0.22000  0.45900  0.92720  Biso   1.000  C
  C715     1.0000 0.54100  0.22000  0.92720  Biso   1.000  C
  C716     1.0000 0.78000  0.54100  0.92720  Biso   1.000  C
  C717     1.0000 0.95900  0.28000  0.42720  Biso   1.000  C
  C718     1.0000 0.72000  0.95900  0.42720  Biso   1.000  C
  C719     1.0000 0.04100  0.72000  0.42720  Biso   1.000  C
  C720     1.0000 0.28000  0.04100  0.42720  Biso   1.000  C
  H369     1.0000 0.56190  0.19870  0.06850  Biso   1.000  H
  H370     1.0000 0.80130  0.56190  0.06850  Biso   1.000  H
  H371     1.0000 0.43810  0.80130  0.06850  Biso   1.000  H
  H372     1.0000 0.19870  0.43810  0.06850  Biso   1.000  H
  H373     1.0000 0.06190  0.69870  0.56850  Biso   1.000  H
  H374     1.0000 0.30130  0.06190  0.56850  Biso   1.000  H
  H375     1.0000 0.93810  0.30130  0.56850  Biso   1.000  H
  H376     1.0000 0.69870  0.93810  0.56850  Biso   1.000  H
  H377     1.0000 0.43810  0.80130  0.93150  Biso   1.000  H
  H378     1.0000 0.19870  0.43810  0.93150  Biso   1.000  H
  H379     1.0000 0.56190  0.19870  0.93150  Biso   1.000  H
  H380     1.0000 0.80130  0.56190  0.93150  Biso   1.000  H
  H381     1.0000 0.93810  0.30130  0.43150  Biso   1.000  H
  H382     1.0000 0.69870  0.93810  0.43150  Biso   1.000  H
  H383     1.0000 0.06190  0.69870  0.43150  Biso   1.000  H
  H384     1.0000 0.30130  0.06190  0.43150  Biso   1.000  H
  C721     1.0000 0.51140  0.22930  0.04020  Biso   1.000  C
  C722     1.0000 0.77070  0.51140  0.04020  Biso   1.000  C
  C723     1.0000 0.48860  0.77070  0.04020  Biso   1.000  C
  C724     1.0000 0.22930  0.48860  0.04020  Biso   1.000  C
  C725     1.0000 0.01140  0.72930  0.54020  Biso   1.000  C
  C726     1.0000 0.27070  0.01140  0.54020  Biso   1.000  C
  C727     1.0000 0.98860  0.27070  0.54020  Biso   1.000  C
  C728     1.0000 0.72930  0.98860  0.54020  Biso   1.000  C
  C729     1.0000 0.48860  0.77070  0.95980  Biso   1.000  C
  C730     1.0000 0.22930  0.48860  0.95980  Biso   1.000  C
  C731     1.0000 0.51140  0.22930  0.95980  Biso   1.000  C
  C732     1.0000 0.77070  0.51140  0.95980  Biso   1.000  C
  C733     1.0000 0.98860  0.27070  0.45980  Biso   1.000  C
  C734     1.0000 0.72930  0.98860  0.45980  Biso   1.000  C
  C735     1.0000 0.01140  0.72930  0.45980  Biso   1.000  C
  C736     1.0000 0.27070  0.01140  0.45980  Biso   1.000  C
  C737     1.0000 0.48020  0.26100  0.04660  Biso   1.000  C
  C738     1.0000 0.73900  0.48020  0.04660  Biso   1.000  C
  C739     1.0000 0.51980  0.73900  0.04660  Biso   1.000  C
  C740     1.0000 0.26100  0.51980  0.04660  Biso   1.000  C
  C741     1.0000 0.98020  0.76100  0.54660  Biso   1.000  C
  C742     1.0000 0.23900  0.98020  0.54660  Biso   1.000  C
  C743     1.0000 0.01980  0.23900  0.54660  Biso   1.000  C
  C744     1.0000 0.76100  0.01980  0.54660  Biso   1.000  C
  C745     1.0000 0.51980  0.73900  0.95340  Biso   1.000  C
  C746     1.0000 0.26100  0.51980  0.95340  Biso   1.000  C
  C747     1.0000 0.48020  0.26100  0.95340  Biso   1.000  C
  C748     1.0000 0.73900  0.48020  0.95340  Biso   1.000  C
  C749     1.0000 0.01980  0.23900  0.45340  Biso   1.000  C
  C750     1.0000 0.76100  0.01980  0.45340  Biso   1.000  C
  C751     1.0000 0.98020  0.76100  0.45340  Biso   1.000  C
  C752     1.0000 0.23900  0.98020  0.45340  Biso   1.000  C
  H385     1.0000 0.46040  0.26720  0.02480  Biso   1.000  H
  H386     1.0000 0.73280  0.46040  0.02480  Biso   1.000  H
  H387     1.0000 0.53960  0.73280  0.02480  Biso   1.000  H
  H388     1.0000 0.26720  0.53960  0.02480  Biso   1.000  H
  H389     1.0000 0.96040  0.76720  0.52480  Biso   1.000  H
  H390     1.0000 0.23280  0.96040  0.52480  Biso   1.000  H
  H391     1.0000 0.03960  0.23280  0.52480  Biso   1.000  H
  H392     1.0000 0.76720  0.03960  0.52480  Biso   1.000  H
  H393     1.0000 0.53960  0.73280  0.97520  Biso   1.000  H
  H394     1.0000 0.26720  0.53960  0.97520  Biso   1.000  H
  H395     1.0000 0.46040  0.26720  0.97520  Biso   1.000  H
  H396     1.0000 0.73280  0.46040  0.97520  Biso   1.000  H
  H397     1.0000 0.03960  0.23280  0.47520  Biso   1.000  H
  H398     1.0000 0.76720  0.03960  0.47520  Biso   1.000  H
  H399     1.0000 0.96040  0.76720  0.47520  Biso   1.000  H
  H400     1.0000 0.23280  0.96040  0.47520  Biso   1.000  H
  C753     1.0000 0.47860  0.28340  0.08560  Biso   1.000  C
  C754     1.0000 0.71660  0.47860  0.08560  Biso   1.000  C
  C755     1.0000 0.52140  0.71660  0.08560  Biso   1.000  C
  C756     1.0000 0.28340  0.52140  0.08560  Biso   1.000  C
  C757     1.0000 0.97860  0.78340  0.58560  Biso   1.000  C
  C758     1.0000 0.21660  0.97860  0.58560  Biso   1.000  C
  C759     1.0000 0.02140  0.21660  0.58560  Biso   1.000  C
  C760     1.0000 0.78340  0.02140  0.58560  Biso   1.000  C
  C761     1.0000 0.52140  0.71660  0.91440  Biso   1.000  C
  C762     1.0000 0.28340  0.52140  0.91440  Biso   1.000  C
  C763     1.0000 0.47860  0.28340  0.91440  Biso   1.000  C
  C764     1.0000 0.71660  0.47860  0.91440  Biso   1.000  C
  C765     1.0000 0.02140  0.21660  0.41440  Biso   1.000  C
  C766     1.0000 0.78340  0.02140  0.41440  Biso   1.000  C
  C767     1.0000 0.97860  0.78340  0.41440  Biso   1.000  C
  C768     1.0000 0.21660  0.97860  0.41440  Biso   1.000  C
  H401     1.0000 0.45770  0.30460  0.08980  Biso   1.000  H
  H402     1.0000 0.69540  0.45770  0.08980  Biso   1.000  H
  H403     1.0000 0.54230  0.69540  0.08980  Biso   1.000  H
  H404     1.0000 0.30460  0.54230  0.08980  Biso   1.000  H
  H405     1.0000 0.95770  0.80460  0.58980  Biso   1.000  H
  H406     1.0000 0.19540  0.95770  0.58980  Biso   1.000  H
  H407     1.0000 0.04230  0.19540  0.58980  Biso   1.000  H
  H408     1.0000 0.80460  0.04230  0.58980  Biso   1.000  H
  H409     1.0000 0.54230  0.69540  0.91020  Biso   1.000  H
  H410     1.0000 0.30460  0.54230  0.91020  Biso   1.000  H
  H411     1.0000 0.45770  0.30460  0.91020  Biso   1.000  H
  H412     1.0000 0.69540  0.45770  0.91020  Biso   1.000  H
  H413     1.0000 0.04230  0.19540  0.41020  Biso   1.000  H
  H414     1.0000 0.80460  0.04230  0.41020  Biso   1.000  H
  H415     1.0000 0.95770  0.80460  0.41020  Biso   1.000  H
  H416     1.0000 0.19540  0.95770  0.41020  Biso   1.000  H
  C769     1.0000 0.52840  0.16260  0.99110  Biso   1.000  C
  C770     1.0000 0.83740  0.52840  0.99110  Biso   1.000  C
  C771     1.0000 0.47160  0.83740  0.99110  Biso   1.000  C
  C772     1.0000 0.16260  0.47160  0.99110  Biso   1.000  C
  C773     1.0000 0.02840  0.66260  0.49110  Biso   1.000  C
  C774     1.0000 0.33740  0.02840  0.49110  Biso   1.000  C
  C775     1.0000 0.97160  0.33740  0.49110  Biso   1.000  C
  C776     1.0000 0.66260  0.97160  0.49110  Biso   1.000  C
  C777     1.0000 0.47160  0.83740  0.00890  Biso   1.000  C
  C778     1.0000 0.16260  0.47160  0.00890  Biso   1.000  C
  C779     1.0000 0.52840  0.16260  0.00890  Biso   1.000  C
  C780     1.0000 0.83740  0.52840  0.00890  Biso   1.000  C
  C781     1.0000 0.97160  0.33740  0.50890  Biso   1.000  C
  C782     1.0000 0.66260  0.97160  0.50890  Biso   1.000  C
  C783     1.0000 0.02840  0.66260  0.50890  Biso   1.000  C
  C784     1.0000 0.33740  0.02840  0.50890  Biso   1.000  C
  C785     1.0000 0.50830  0.13550  0.96140  Biso   1.000  C
  C786     1.0000 0.86450  0.50830  0.96140  Biso   1.000  C
  C787     1.0000 0.49170  0.86450  0.96140  Biso   1.000  C
  C788     1.0000 0.13550  0.49170  0.96140  Biso   1.000  C
  C789     1.0000 0.00830  0.63550  0.46140  Biso   1.000  C
  C790     1.0000 0.36450  0.00830  0.46140  Biso   1.000  C
  C791     1.0000 0.99170  0.36450  0.46140  Biso   1.000  C
  C792     1.0000 0.63550  0.99170  0.46140  Biso   1.000  C
  C793     1.0000 0.49170  0.86450  0.03860  Biso   1.000  C
  C794     1.0000 0.13550  0.49170  0.03860  Biso   1.000  C
  C795     1.0000 0.50830  0.13550  0.03860  Biso   1.000  C
  C796     1.0000 0.86450  0.50830  0.03860  Biso   1.000  C
  C797     1.0000 0.99170  0.36450  0.53860  Biso   1.000  C
  C798     1.0000 0.63550  0.99170  0.53860  Biso   1.000  C
  C799     1.0000 0.00830  0.63550  0.53860  Biso   1.000  C
  C800     1.0000 0.36450  0.00830  0.53860  Biso   1.000  C
  H417     1.0000 0.48510  0.14550  0.94510  Biso   1.000  H
  H418     1.0000 0.85450  0.48510  0.94510  Biso   1.000  H
  H419     1.0000 0.51490  0.85450  0.94510  Biso   1.000  H
  H420     1.0000 0.14550  0.51490  0.94510  Biso   1.000  H
  H421     1.0000 0.98510  0.64550  0.44510  Biso   1.000  H
  H422     1.0000 0.35450  0.98510  0.44510  Biso   1.000  H
  H423     1.0000 0.01490  0.35450  0.44510  Biso   1.000  H
  H424     1.0000 0.64550  0.01490  0.44510  Biso   1.000  H
  H425     1.0000 0.51490  0.85450  0.05490  Biso   1.000  H
  H426     1.0000 0.14550  0.51490  0.05490  Biso   1.000  H
  H427     1.0000 0.48510  0.14550  0.05490  Biso   1.000  H
  H428     1.0000 0.85450  0.48510  0.05490  Biso   1.000  H
  H429     1.0000 0.01490  0.35450  0.55490  Biso   1.000  H
  H430     1.0000 0.64550  0.01490  0.55490  Biso   1.000  H
  H431     1.0000 0.98510  0.64550  0.55490  Biso   1.000  H
  H432     1.0000 0.35450  0.98510  0.55490  Biso   1.000  H
  C801     1.0000 0.52300  0.09330  0.95600  Biso   1.000  C
  C802     1.0000 0.90670  0.52300  0.95600  Biso   1.000  C
  C803     1.0000 0.47700  0.90670  0.95600  Biso   1.000  C
  C804     1.0000 0.09330  0.47700  0.95600  Biso   1.000  C
  C805     1.0000 0.02300  0.59330  0.45600  Biso   1.000  C
  C806     1.0000 0.40670  0.02300  0.45600  Biso   1.000  C
  C807     1.0000 0.97700  0.40670  0.45600  Biso   1.000  C
  C808     1.0000 0.59330  0.97700  0.45600  Biso   1.000  C
  C809     1.0000 0.47700  0.90670  0.04400  Biso   1.000  C
  C810     1.0000 0.09330  0.47700  0.04400  Biso   1.000  C
  C811     1.0000 0.52300  0.09330  0.04400  Biso   1.000  C
  C812     1.0000 0.90670  0.52300  0.04400  Biso   1.000  C
  C813     1.0000 0.97700  0.40670  0.54400  Biso   1.000  C
  C814     1.0000 0.59330  0.97700  0.54400  Biso   1.000  C
  C815     1.0000 0.02300  0.59330  0.54400  Biso   1.000  C
  C816     1.0000 0.40670  0.02300  0.54400  Biso   1.000  C
  H433     1.0000 0.50950  0.07520  0.93610  Biso   1.000  H
  H434     1.0000 0.92480  0.50950  0.93610  Biso   1.000  H
  H435     1.0000 0.49050  0.92480  0.93610  Biso   1.000  H
  H436     1.0000 0.07520  0.49050  0.93610  Biso   1.000  H
  H437     1.0000 0.00950  0.57520  0.43610  Biso   1.000  H
  H438     1.0000 0.42480  0.00950  0.43610  Biso   1.000  H
  H439     1.0000 0.99050  0.42480  0.43610  Biso   1.000  H
  H440     1.0000 0.57520  0.99050  0.43610  Biso   1.000  H
  H441     1.0000 0.49050  0.92480  0.06390  Biso   1.000  H
  H442     1.0000 0.07520  0.49050  0.06390  Biso   1.000  H
  H443     1.0000 0.50950  0.07520  0.06390  Biso   1.000  H
  H444     1.0000 0.92480  0.50950  0.06390  Biso   1.000  H
  H445     1.0000 0.99050  0.42480  0.56390  Biso   1.000  H
  H446     1.0000 0.57520  0.99050  0.56390  Biso   1.000  H
  H447     1.0000 0.00950  0.57520  0.56390  Biso   1.000  H
  H448     1.0000 0.42480  0.00950  0.56390  Biso   1.000  H
  C817     1.0000 0.55760  0.07830  0.98030  Biso   1.000  C
  C818     1.0000 0.92170  0.55760  0.98030  Biso   1.000  C
  C819     1.0000 0.44240  0.92170  0.98030  Biso   1.000  C
  C820     1.0000 0.07830  0.44240  0.98030  Biso   1.000  C
  C821     1.0000 0.05760  0.57830  0.48030  Biso   1.000  C
  C822     1.0000 0.42170  0.05760  0.48030  Biso   1.000  C
  C823     1.0000 0.94240  0.42170  0.48030  Biso   1.000  C
  C824     1.0000 0.57830  0.94240  0.48030  Biso   1.000  C
  C825     1.0000 0.44240  0.92170  0.01970  Biso   1.000  C
  C826     1.0000 0.07830  0.44240  0.01970  Biso   1.000  C
  C827     1.0000 0.55760  0.07830  0.01970  Biso   1.000  C
  C828     1.0000 0.92170  0.55760  0.01970  Biso   1.000  C
  C829     1.0000 0.94240  0.42170  0.51970  Biso   1.000  C
  C830     1.0000 0.57830  0.94240  0.51970  Biso   1.000  C
  C831     1.0000 0.05760  0.57830  0.51970  Biso   1.000  C
  C832     1.0000 0.42170  0.05760  0.51970  Biso   1.000  C
  H449     1.0000 0.56740  0.05000  0.97670  Biso   1.000  H
  H450     1.0000 0.95000  0.56740  0.97670  Biso   1.000  H
  H451     1.0000 0.43260  0.95000  0.97670  Biso   1.000  H
  H452     1.0000 0.05000  0.43260  0.97670  Biso   1.000  H
  H453     1.0000 0.06740  0.55000  0.47670  Biso   1.000  H
  H454     1.0000 0.45000  0.06740  0.47670  Biso   1.000  H
  H455     1.0000 0.93260  0.45000  0.47670  Biso   1.000  H
  H456     1.0000 0.55000  0.93260  0.47670  Biso   1.000  H
  H457     1.0000 0.43260  0.95000  0.02330  Biso   1.000  H
  H458     1.0000 0.05000  0.43260  0.02330  Biso   1.000  H
  H459     1.0000 0.56740  0.05000  0.02330  Biso   1.000  H
  H460     1.0000 0.95000  0.56740  0.02330  Biso   1.000  H
  H461     1.0000 0.93260  0.45000  0.52330  Biso   1.000  H
  H462     1.0000 0.55000  0.93260  0.52330  Biso   1.000  H
  H463     1.0000 0.06740  0.55000  0.52330  Biso   1.000  H
  H464     1.0000 0.45000  0.06740  0.52330  Biso   1.000  H
  C833     1.0000 0.57770  0.10540  0.01010  Biso   1.000  C
  C834     1.0000 0.89460  0.57770  0.01010  Biso   1.000  C
  C835     1.0000 0.42230  0.89460  0.01010  Biso   1.000  C
  C836     1.0000 0.10540  0.42230  0.01010  Biso   1.000  C
  C837     1.0000 0.07770  0.60540  0.51010  Biso   1.000  C
  C838     1.0000 0.39460  0.07770  0.51010  Biso   1.000  C
  C839     1.0000 0.92230  0.39460  0.51010  Biso   1.000  C
  C840     1.0000 0.60540  0.92230  0.51010  Biso   1.000  C
  C841     1.0000 0.42230  0.89460  0.98990  Biso   1.000  C
  C842     1.0000 0.10540  0.42230  0.98990  Biso   1.000  C
  C843     1.0000 0.57770  0.10540  0.98990  Biso   1.000  C
  C844     1.0000 0.89460  0.57770  0.98990  Biso   1.000  C
  C845     1.0000 0.92230  0.39460  0.48990  Biso   1.000  C
  C846     1.0000 0.60540  0.92230  0.48990  Biso   1.000  C
  C847     1.0000 0.07770  0.60540  0.48990  Biso   1.000  C
  C848     1.0000 0.39460  0.07770  0.48990  Biso   1.000  C
  H465     1.0000 0.60090  0.09530  0.02630  Biso   1.000  H
  H466     1.0000 0.90470  0.60090  0.02630  Biso   1.000  H
  H467     1.0000 0.39910  0.90470  0.02630  Biso   1.000  H
  H468     1.0000 0.09530  0.39910  0.02630  Biso   1.000  H
  H469     1.0000 0.10090  0.59530  0.52630  Biso   1.000  H
  H470     1.0000 0.40470  0.10090  0.52630  Biso   1.000  H
  H471     1.0000 0.89910  0.40470  0.52630  Biso   1.000  H
  H472     1.0000 0.59530  0.89910  0.52630  Biso   1.000  H
  H473     1.0000 0.39910  0.90470  0.97370  Biso   1.000  H
  H474     1.0000 0.09530  0.39910  0.97370  Biso   1.000  H
  H475     1.0000 0.60090  0.09530  0.97370  Biso   1.000  H
  H476     1.0000 0.90470  0.60090  0.97370  Biso   1.000  H
  H477     1.0000 0.89910  0.40470  0.47370  Biso   1.000  H
  H478     1.0000 0.59530  0.89910  0.47370  Biso   1.000  H
  H479     1.0000 0.10090  0.59530  0.47370  Biso   1.000  H
  H480     1.0000 0.40470  0.10090  0.47370  Biso   1.000  H
  C849     1.0000 0.56310  0.14760  0.01540  Biso   1.000  C
  C850     1.0000 0.85240  0.56310  0.01540  Biso   1.000  C
  C851     1.0000 0.43690  0.85240  0.01540  Biso   1.000  C
  C852     1.0000 0.14760  0.43690  0.01540  Biso   1.000  C
  C853     1.0000 0.06310  0.64760  0.51540  Biso   1.000  C
  C854     1.0000 0.35240  0.06310  0.51540  Biso   1.000  C
  C855     1.0000 0.93690  0.35240  0.51540  Biso   1.000  C
  C856     1.0000 0.64760  0.93690  0.51540  Biso   1.000  C
  C857     1.0000 0.43690  0.85240  0.98460  Biso   1.000  C
  C858     1.0000 0.14760  0.43690  0.98460  Biso   1.000  C
  C859     1.0000 0.56310  0.14760  0.98460  Biso   1.000  C
  C860     1.0000 0.85240  0.56310  0.98460  Biso   1.000  C
  C861     1.0000 0.93690  0.35240  0.48460  Biso   1.000  C
  C862     1.0000 0.64760  0.93690  0.48460  Biso   1.000  C
  C863     1.0000 0.06310  0.64760  0.48460  Biso   1.000  C
  C864     1.0000 0.35240  0.06310  0.48460  Biso   1.000  C
  H481     1.0000 0.57650  0.16570  0.03530  Biso   1.000  H
  H482     1.0000 0.83430  0.57650  0.03530  Biso   1.000  H
  H483     1.0000 0.42350  0.83430  0.03530  Biso   1.000  H
  H484     1.0000 0.16570  0.42350  0.03530  Biso   1.000  H
  H485     1.0000 0.07650  0.66570  0.53530  Biso   1.000  H
  H486     1.0000 0.33430  0.07650  0.53530  Biso   1.000  H
  H487     1.0000 0.92350  0.33430  0.53530  Biso   1.000  H
  H488     1.0000 0.66570  0.92350  0.53530  Biso   1.000  H
  H489     1.0000 0.42350  0.83430  0.96470  Biso   1.000  H
  H490     1.0000 0.16570  0.42350  0.96470  Biso   1.000  H
  H491     1.0000 0.57650  0.16570  0.96470  Biso   1.000  H
  H492     1.0000 0.83430  0.57650  0.96470  Biso   1.000  H
  H493     1.0000 0.92350  0.33430  0.46470  Biso   1.000  H
  H494     1.0000 0.66570  0.92350  0.46470  Biso   1.000  H
  H495     1.0000 0.07650  0.66570  0.46470  Biso   1.000  H
  H496     1.0000 0.33430  0.07650  0.46470  Biso   1.000  H
  C865     1.0000 0.11790  0.34740  0.28900  Biso   1.000  C
  C866     1.0000 0.65260  0.11790  0.28900  Biso   1.000  C
  C867     1.0000 0.88210  0.65260  0.28900  Biso   1.000  C
  C868     1.0000 0.34740  0.88210  0.28900  Biso   1.000  C
  C869     1.0000 0.61790  0.84740  0.78900  Biso   1.000  C
  C870     1.0000 0.15260  0.61790  0.78900  Biso   1.000  C
  C871     1.0000 0.38210  0.15260  0.78900  Biso   1.000  C
  C872     1.0000 0.84740  0.38210  0.78900  Biso   1.000  C
  C873     1.0000 0.88210  0.65260  0.71100  Biso   1.000  C
  C874     1.0000 0.34740  0.88210  0.71100  Biso   1.000  C
  C875     1.0000 0.11790  0.34740  0.71100  Biso   1.000  C
  C876     1.0000 0.65260  0.11790  0.71100  Biso   1.000  C
  C877     1.0000 0.38210  0.15260  0.21100  Biso   1.000  C
  C878     1.0000 0.84740  0.38210  0.21100  Biso   1.000  C
  C879     1.0000 0.61790  0.84740  0.21100  Biso   1.000  C
  C880     1.0000 0.15260  0.61790  0.21100  Biso   1.000  C
  H497     1.0000 0.14220  0.34820  0.27140  Biso   1.000  H
  H498     1.0000 0.65180  0.14220  0.27140  Biso   1.000  H
  H499     1.0000 0.85780  0.65180  0.27140  Biso   1.000  H
  H500     1.0000 0.34820  0.85780  0.27140  Biso   1.000  H
  H501     1.0000 0.64220  0.84820  0.77140  Biso   1.000  H
  H502     1.0000 0.15180  0.64220  0.77140  Biso   1.000  H
  H503     1.0000 0.35780  0.15180  0.77140  Biso   1.000  H
  H504     1.0000 0.84820  0.35780  0.77140  Biso   1.000  H
  H505     1.0000 0.85780  0.65180  0.72860  Biso   1.000  H
  H506     1.0000 0.34820  0.85780  0.72860  Biso   1.000  H
  H507     1.0000 0.14220  0.34820  0.72860  Biso   1.000  H
  H508     1.0000 0.65180  0.14220  0.72860  Biso   1.000  H
  H509     1.0000 0.35780  0.15180  0.22860  Biso   1.000  H
  H510     1.0000 0.84820  0.35780  0.22860  Biso   1.000  H
  H511     1.0000 0.64220  0.84820  0.22860  Biso   1.000  H
  H512     1.0000 0.15180  0.64220  0.22860  Biso   1.000  H
  C881     1.0000 0.07800  0.34080  0.26970  Biso   1.000  C
  C882     1.0000 0.65920  0.07800  0.26970  Biso   1.000  C
  C883     1.0000 0.92200  0.65920  0.26970  Biso   1.000  C
  C884     1.0000 0.34080  0.92200  0.26970  Biso   1.000  C
  C885     1.0000 0.57800  0.84080  0.76970  Biso   1.000  C
  C886     1.0000 0.15920  0.57800  0.76970  Biso   1.000  C
  C887     1.0000 0.42200  0.15920  0.76970  Biso   1.000  C
  C888     1.0000 0.84080  0.42200  0.76970  Biso   1.000  C
  C889     1.0000 0.92200  0.65920  0.73030  Biso   1.000  C
  C890     1.0000 0.34080  0.92200  0.73030  Biso   1.000  C
  C891     1.0000 0.07800  0.34080  0.73030  Biso   1.000  C
  C892     1.0000 0.65920  0.07800  0.73030  Biso   1.000  C
  C893     1.0000 0.42200  0.15920  0.23030  Biso   1.000  C
  C894     1.0000 0.84080  0.42200  0.23030  Biso   1.000  C
  C895     1.0000 0.57800  0.84080  0.23030  Biso   1.000  C
  C896     1.0000 0.15920  0.57800  0.23030  Biso   1.000  C
  H513     1.0000 0.07540  0.33940  0.23980  Biso   1.000  H
  H514     1.0000 0.66060  0.07540  0.23980  Biso   1.000  H
  H515     1.0000 0.92460  0.66060  0.23980  Biso   1.000  H
  H516     1.0000 0.33940  0.92460  0.23980  Biso   1.000  H
  H517     1.0000 0.57540  0.83940  0.73980  Biso   1.000  H
  H518     1.0000 0.16060  0.57540  0.73980  Biso   1.000  H
  H519     1.0000 0.42460  0.16060  0.73980  Biso   1.000  H
  H520     1.0000 0.83940  0.42460  0.73980  Biso   1.000  H
  H521     1.0000 0.92460  0.66060  0.76020  Biso   1.000  H
  H522     1.0000 0.33940  0.92460  0.76020  Biso   1.000  H
  H523     1.0000 0.07540  0.33940  0.76020  Biso   1.000  H
  H524     1.0000 0.66060  0.07540  0.76020  Biso   1.000  H
  H525     1.0000 0.42460  0.16060  0.26020  Biso   1.000  H
  H526     1.0000 0.83940  0.42460  0.26020  Biso   1.000  H
  H527     1.0000 0.57540  0.83940  0.26020  Biso   1.000  H
  H528     1.0000 0.16060  0.57540  0.26020  Biso   1.000  H
  C897     1.0000 0.04860  0.33280  0.34130  Biso   1.000  C
  C898     1.0000 0.66720  0.04860  0.34130  Biso   1.000  C
  C899     1.0000 0.95140  0.66720  0.34130  Biso   1.000  C
  C900     1.0000 0.33280  0.95140  0.34130  Biso   1.000  C
  C901     1.0000 0.54860  0.83280  0.84130  Biso   1.000  C
  C902     1.0000 0.16720  0.54860  0.84130  Biso   1.000  C
  C903     1.0000 0.45140  0.16720  0.84130  Biso   1.000  C
  C904     1.0000 0.83280  0.45140  0.84130  Biso   1.000  C
  C905     1.0000 0.95140  0.66720  0.65870  Biso   1.000  C
  C906     1.0000 0.33280  0.95140  0.65870  Biso   1.000  C
  C907     1.0000 0.04860  0.33280  0.65870  Biso   1.000  C
  C908     1.0000 0.66720  0.04860  0.65870  Biso   1.000  C
  C909     1.0000 0.45140  0.16720  0.15870  Biso   1.000  C
  C910     1.0000 0.83280  0.45140  0.15870  Biso   1.000  C
  C911     1.0000 0.54860  0.83280  0.15870  Biso   1.000  C
  C912     1.0000 0.16720  0.54860  0.15870  Biso   1.000  C
  H529     1.0000 0.02500  0.32730  0.35910  Biso   1.000  H
  H530     1.0000 0.67270  0.02500  0.35910  Biso   1.000  H
  H531     1.0000 0.97500  0.67270  0.35910  Biso   1.000  H
  H532     1.0000 0.32730  0.97500  0.35910  Biso   1.000  H
  H533     1.0000 0.52500  0.82730  0.85910  Biso   1.000  H
  H534     1.0000 0.17270  0.52500  0.85910  Biso   1.000  H
  H535     1.0000 0.47500  0.17270  0.85910  Biso   1.000  H
  H536     1.0000 0.82730  0.47500  0.85910  Biso   1.000  H
  H537     1.0000 0.97500  0.67270  0.64090  Biso   1.000  H
  H538     1.0000 0.32730  0.97500  0.64090  Biso   1.000  H
  H539     1.0000 0.02500  0.32730  0.64090  Biso   1.000  H
  H540     1.0000 0.67270  0.02500  0.64090  Biso   1.000  H
  H541     1.0000 0.47500  0.17270  0.14090  Biso   1.000  H
  H542     1.0000 0.82730  0.47500  0.14090  Biso   1.000  H
  H543     1.0000 0.52500  0.82730  0.14090  Biso   1.000  H
  H544     1.0000 0.17270  0.52500  0.14090  Biso   1.000  H
  C913     1.0000 0.08970  0.33730  0.36010  Biso   1.000  C
  C914     1.0000 0.66270  0.08970  0.36010  Biso   1.000  C
  C915     1.0000 0.91030  0.66270  0.36010  Biso   1.000  C
  C916     1.0000 0.33730  0.91030  0.36010  Biso   1.000  C
  C917     1.0000 0.58970  0.83730  0.86010  Biso   1.000  C
  C918     1.0000 0.16270  0.58970  0.86010  Biso   1.000  C
  C919     1.0000 0.41030  0.16270  0.86010  Biso   1.000  C
  C920     1.0000 0.83730  0.41030  0.86010  Biso   1.000  C
  C921     1.0000 0.91030  0.66270  0.63990  Biso   1.000  C
  C922     1.0000 0.33730  0.91030  0.63990  Biso   1.000  C
  C923     1.0000 0.08970  0.33730  0.63990  Biso   1.000  C
  C924     1.0000 0.66270  0.08970  0.63990  Biso   1.000  C
  C925     1.0000 0.41030  0.16270  0.13990  Biso   1.000  C
  C926     1.0000 0.83730  0.41030  0.13990  Biso   1.000  C
  C927     1.0000 0.58970  0.83730  0.13990  Biso   1.000  C
  C928     1.0000 0.16270  0.58970  0.13990  Biso   1.000  C
  H545     1.0000 0.09500  0.33090  0.38900  Biso   1.000  H
  H546     1.0000 0.66910  0.09500  0.38900  Biso   1.000  H
  H547     1.0000 0.90500  0.66910  0.38900  Biso   1.000  H
  H548     1.0000 0.33090  0.90500  0.38900  Biso   1.000  H
  H549     1.0000 0.59500  0.83090  0.88900  Biso   1.000  H
  H550     1.0000 0.16910  0.59500  0.88900  Biso   1.000  H
  H551     1.0000 0.40500  0.16910  0.88900  Biso   1.000  H
  H552     1.0000 0.83090  0.40500  0.88900  Biso   1.000  H
  H553     1.0000 0.90500  0.66910  0.61100  Biso   1.000  H
  H554     1.0000 0.33090  0.90500  0.61100  Biso   1.000  H
  H555     1.0000 0.09500  0.33090  0.61100  Biso   1.000  H
  H556     1.0000 0.66910  0.09500  0.61100  Biso   1.000  H
  H557     1.0000 0.40500  0.16910  0.11100  Biso   1.000  H
  H558     1.0000 0.83090  0.40500  0.11100  Biso   1.000  H
  H559     1.0000 0.59500  0.83090  0.11100  Biso   1.000  H
  H560     1.0000 0.16910  0.59500  0.11100  Biso   1.000  H
  C929     1.0000 0.98740  0.26400  0.23360  Biso   1.000  C
  C930     1.0000 0.73600  0.98740  0.23360  Biso   1.000  C
  C931     1.0000 0.01260  0.73600  0.23360  Biso   1.000  C
  C932     1.0000 0.26400  0.01260  0.23360  Biso   1.000  C
  C933     1.0000 0.48740  0.76400  0.73360  Biso   1.000  C
  C934     1.0000 0.23600  0.48740  0.73360  Biso   1.000  C
  C935     1.0000 0.51260  0.23600  0.73360  Biso   1.000  C
  C936     1.0000 0.76400  0.51260  0.73360  Biso   1.000  C
  C937     1.0000 0.01260  0.73600  0.76640  Biso   1.000  C
  C938     1.0000 0.26400  0.01260  0.76640  Biso   1.000  C
  C939     1.0000 0.98740  0.26400  0.76640  Biso   1.000  C
  C940     1.0000 0.73600  0.98740  0.76640  Biso   1.000  C
  C941     1.0000 0.51260  0.23600  0.26640  Biso   1.000  C
  C942     1.0000 0.76400  0.51260  0.26640  Biso   1.000  C
  C943     1.0000 0.48740  0.76400  0.26640  Biso   1.000  C
  C944     1.0000 0.23600  0.48740  0.26640  Biso   1.000  C
  H561     1.0000 0.98620  0.24660  0.25810  Biso   1.000  H
  H562     1.0000 0.75340  0.98620  0.25810  Biso   1.000  H
  H563     1.0000 0.01380  0.75340  0.25810  Biso   1.000  H
  H564     1.0000 0.24660  0.01380  0.25810  Biso   1.000  H
  H565     1.0000 0.48620  0.74660  0.75810  Biso   1.000  H
  H566     1.0000 0.25340  0.48620  0.75810  Biso   1.000  H
  H567     1.0000 0.51380  0.25340  0.75810  Biso   1.000  H
  H568     1.0000 0.74660  0.51380  0.75810  Biso   1.000  H
  H569     1.0000 0.01380  0.75340  0.74190  Biso   1.000  H
  H570     1.0000 0.24660  0.01380  0.74190  Biso   1.000  H
  H571     1.0000 0.98620  0.24660  0.74190  Biso   1.000  H
  H572     1.0000 0.75340  0.98620  0.74190  Biso   1.000  H
  H573     1.0000 0.51380  0.25340  0.24190  Biso   1.000  H
  H574     1.0000 0.74660  0.51380  0.24190  Biso   1.000  H
  H575     1.0000 0.48620  0.74660  0.24190  Biso   1.000  H
  H576     1.0000 0.25340  0.48620  0.24190  Biso   1.000  H
  C945     1.0000 0.97850  0.24610  0.19320  Biso   1.000  C
  C946     1.0000 0.75390  0.97850  0.19320  Biso   1.000  C
  C947     1.0000 0.02150  0.75390  0.19320  Biso   1.000  C
  C948     1.0000 0.24610  0.02150  0.19320  Biso   1.000  C
  C949     1.0000 0.47850  0.74610  0.69320  Biso   1.000  C
  C950     1.0000 0.25390  0.47850  0.69320  Biso   1.000  C
  C951     1.0000 0.52150  0.25390  0.69320  Biso   1.000  C
  C952     1.0000 0.74610  0.52150  0.69320  Biso   1.000  C
  C953     1.0000 0.02150  0.75390  0.80680  Biso   1.000  C
  C954     1.0000 0.24610  0.02150  0.80680  Biso   1.000  C
  C955     1.0000 0.97850  0.24610  0.80680  Biso   1.000  C
  C956     1.0000 0.75390  0.97850  0.80680  Biso   1.000  C
  C957     1.0000 0.52150  0.25390  0.30680  Biso   1.000  C
  C958     1.0000 0.74610  0.52150  0.30680  Biso   1.000  C
  C959     1.0000 0.47850  0.74610  0.30680  Biso   1.000  C
  C960     1.0000 0.25390  0.47850  0.30680  Biso   1.000  C
  H577     1.0000 0.96240  0.22100  0.18990  Biso   1.000  H
  H578     1.0000 0.77900  0.96240  0.18990  Biso   1.000  H
  H579     1.0000 0.03760  0.77900  0.18990  Biso   1.000  H
  H580     1.0000 0.22100  0.03760  0.18990  Biso   1.000  H
  H581     1.0000 0.46240  0.72100  0.68990  Biso   1.000  H
  H582     1.0000 0.27900  0.46240  0.68990  Biso   1.000  H
  H583     1.0000 0.53760  0.27900  0.68990  Biso   1.000  H
  H584     1.0000 0.72100  0.53760  0.68990  Biso   1.000  H
  H585     1.0000 0.03760  0.77900  0.81010  Biso   1.000  H
  H586     1.0000 0.22100  0.03760  0.81010  Biso   1.000  H
  H587     1.0000 0.96240  0.22100  0.81010  Biso   1.000  H
  H588     1.0000 0.77900  0.96240  0.81010  Biso   1.000  H
  H589     1.0000 0.53760  0.27900  0.31010  Biso   1.000  H
  H590     1.0000 0.72100  0.53760  0.31010  Biso   1.000  H
  H591     1.0000 0.46240  0.72100  0.31010  Biso   1.000  H
  H592     1.0000 0.27900  0.46240  0.31010  Biso   1.000  H
  C961     1.0000 0.99560  0.26880  0.15800  Biso   1.000  C
  C962     1.0000 0.73120  0.99560  0.15800  Biso   1.000  C
  C963     1.0000 0.00440  0.73120  0.15800  Biso   1.000  C
  C964     1.0000 0.26880  0.00440  0.15800  Biso   1.000  C
  C965     1.0000 0.49560  0.76880  0.65800  Biso   1.000  C
  C966     1.0000 0.23120  0.49560  0.65800  Biso   1.000  C
  C967     1.0000 0.50440  0.23120  0.65800  Biso   1.000  C
  C968     1.0000 0.76880  0.50440  0.65800  Biso   1.000  C
  C969     1.0000 0.00440  0.73120  0.84200  Biso   1.000  C
  C970     1.0000 0.26880  0.00440  0.84200  Biso   1.000  C
  C971     1.0000 0.99560  0.26880  0.84200  Biso   1.000  C
  C972     1.0000 0.73120  0.99560  0.84200  Biso   1.000  C
  C973     1.0000 0.50440  0.23120  0.34200  Biso   1.000  C
  C974     1.0000 0.76880  0.50440  0.34200  Biso   1.000  C
  C975     1.0000 0.49560  0.76880  0.34200  Biso   1.000  C
  C976     1.0000 0.23120  0.49560  0.34200  Biso   1.000  C
  H593     1.0000 0.00450  0.25390  0.13340  Biso   1.000  H
  H594     1.0000 0.74610  0.00450  0.13340  Biso   1.000  H
  H595     1.0000 0.99550  0.74610  0.13340  Biso   1.000  H
  H596     1.0000 0.25390  0.99550  0.13340  Biso   1.000  H
  H597     1.0000 0.50450  0.75390  0.63340  Biso   1.000  H
  H598     1.0000 0.24610  0.50450  0.63340  Biso   1.000  H
  H599     1.0000 0.49550  0.24610  0.63340  Biso   1.000  H
  H600     1.0000 0.75390  0.49550  0.63340  Biso   1.000  H
  H601     1.0000 0.99550  0.74610  0.86660  Biso   1.000  H
  H602     1.0000 0.25390  0.99550  0.86660  Biso   1.000  H
  H603     1.0000 0.00450  0.25390  0.86660  Biso   1.000  H
  H604     1.0000 0.74610  0.00450  0.86660  Biso   1.000  H
  H605     1.0000 0.49550  0.24610  0.36660  Biso   1.000  H
  H606     1.0000 0.75390  0.49550  0.36660  Biso   1.000  H
  H607     1.0000 0.50450  0.75390  0.36660  Biso   1.000  H
  H608     1.0000 0.24610  0.50450  0.36660  Biso   1.000  H
  C977     1.0000 0.99950  0.31390  0.15980  Biso   1.000  C
  C978     1.0000 0.68610  0.99950  0.15980  Biso   1.000  C
  C979     1.0000 0.00050  0.68610  0.15980  Biso   1.000  C
  C980     1.0000 0.31390  0.00050  0.15980  Biso   1.000  C
  C981     1.0000 0.49950  0.81390  0.65980  Biso   1.000  C
  C982     1.0000 0.18610  0.49950  0.65980  Biso   1.000  C
  C983     1.0000 0.50050  0.18610  0.65980  Biso   1.000  C
  C984     1.0000 0.81390  0.50050  0.65980  Biso   1.000  C
  C985     1.0000 0.00050  0.68610  0.84020  Biso   1.000  C
  C986     1.0000 0.31390  0.00050  0.84020  Biso   1.000  C
  C987     1.0000 0.99950  0.31390  0.84020  Biso   1.000  C
  C988     1.0000 0.68610  0.99950  0.84020  Biso   1.000  C
  C989     1.0000 0.50050  0.18610  0.34020  Biso   1.000  C
  C990     1.0000 0.81390  0.50050  0.34020  Biso   1.000  C
  C991     1.0000 0.49950  0.81390  0.34020  Biso   1.000  C
  C992     1.0000 0.18610  0.49950  0.34020  Biso   1.000  C
  H609     1.0000 0.99680  0.33140  0.13550  Biso   1.000  H
  H610     1.0000 0.66860  0.99680  0.13550  Biso   1.000  H
  H611     1.0000 0.00320  0.66860  0.13550  Biso   1.000  H
  H612     1.0000 0.33140  0.00320  0.13550  Biso   1.000  H
  H613     1.0000 0.49680  0.83140  0.63550  Biso   1.000  H
  H614     1.0000 0.16860  0.49680  0.63550  Biso   1.000  H
  H615     1.0000 0.50320  0.16860  0.63550  Biso   1.000  H
  H616     1.0000 0.83140  0.50320  0.63550  Biso   1.000  H
  H617     1.0000 0.00320  0.66860  0.86450  Biso   1.000  H
  H618     1.0000 0.33140  0.00320  0.86450  Biso   1.000  H
  H619     1.0000 0.99680  0.33140  0.86450  Biso   1.000  H
  H620     1.0000 0.66860  0.99680  0.86450  Biso   1.000  H
  H621     1.0000 0.50320  0.16860  0.36450  Biso   1.000  H
  H622     1.0000 0.83140  0.50320  0.36450  Biso   1.000  H
  H623     1.0000 0.49680  0.83140  0.36450  Biso   1.000  H
  H624     1.0000 0.16860  0.49680  0.36450  Biso   1.000  H
  C993     1.0000 0.00740  0.33030  0.20030  Biso   1.000  C
  C994     1.0000 0.66970  0.00740  0.20030  Biso   1.000  C
  C995     1.0000 0.99260  0.66970  0.20030  Biso   1.000  C
  C996     1.0000 0.33030  0.99260  0.20030  Biso   1.000  C
  C997     1.0000 0.50740  0.83030  0.70030  Biso   1.000  C
  C998     1.0000 0.16970  0.50740  0.70030  Biso   1.000  C
  C999     1.0000 0.49260  0.16970  0.70030  Biso   1.000  C
  C1000    1.0000 0.83030  0.49260  0.70030  Biso   1.000  C
  C1001    1.0000 0.99260  0.66970  0.79970  Biso   1.000  C
  C1002    1.0000 0.33030  0.99260  0.79970  Biso   1.000  C
  C1003    1.0000 0.00740  0.33030  0.79970  Biso   1.000  C
  C1004    1.0000 0.66970  0.00740  0.79970  Biso   1.000  C
  C1005    1.0000 0.49260  0.16970  0.29970  Biso   1.000  C
  C1006    1.0000 0.83030  0.49260  0.29970  Biso   1.000  C
  C1007    1.0000 0.50740  0.83030  0.29970  Biso   1.000  C
  C1008    1.0000 0.16970  0.50740  0.29970  Biso   1.000  C
  H625     1.0000 0.01950  0.35770  0.20270  Biso   1.000  H
  H626     1.0000 0.64230  0.01950  0.20270  Biso   1.000  H
  H627     1.0000 0.98050  0.64230  0.20270  Biso   1.000  H
  H628     1.0000 0.35770  0.98050  0.20270  Biso   1.000  H
  H629     1.0000 0.51950  0.85770  0.70270  Biso   1.000  H
  H630     1.0000 0.14230  0.51950  0.70270  Biso   1.000  H
  H631     1.0000 0.48050  0.14230  0.70270  Biso   1.000  H
  H632     1.0000 0.85770  0.48050  0.70270  Biso   1.000  H
  H633     1.0000 0.98050  0.64230  0.79730  Biso   1.000  H
  H634     1.0000 0.35770  0.98050  0.79730  Biso   1.000  H
  H635     1.0000 0.01950  0.35770  0.79730  Biso   1.000  H
  H636     1.0000 0.64230  0.01950  0.79730  Biso   1.000  H
  H637     1.0000 0.48050  0.14230  0.29730  Biso   1.000  H
  H638     1.0000 0.85770  0.48050  0.29730  Biso   1.000  H
  H639     1.0000 0.51950  0.85770  0.29730  Biso   1.000  H
  H640     1.0000 0.14230  0.51950  0.29730  Biso   1.000  H
  C1009    1.0000 0.95930  0.34820  0.34200  Biso   1.000  C
  C1010    1.0000 0.65180  0.95930  0.34200  Biso   1.000  C
  C1011    1.0000 0.04070  0.65180  0.34200  Biso   1.000  C
  C1012    1.0000 0.34820  0.04070  0.34200  Biso   1.000  C
  C1013    1.0000 0.45930  0.84820  0.84200  Biso   1.000  C
  C1014    1.0000 0.15180  0.45930  0.84200  Biso   1.000  C
  C1015    1.0000 0.54070  0.15180  0.84200  Biso   1.000  C
  C1016    1.0000 0.84820  0.54070  0.84200  Biso   1.000  C
  C1017    1.0000 0.04070  0.65180  0.65800  Biso   1.000  C
  C1018    1.0000 0.34820  0.04070  0.65800  Biso   1.000  C
  C1019    1.0000 0.95930  0.34820  0.65800  Biso   1.000  C
  C1020    1.0000 0.65180  0.95930  0.65800  Biso   1.000  C
  C1021    1.0000 0.54070  0.15180  0.15800  Biso   1.000  C
  C1022    1.0000 0.84820  0.54070  0.15800  Biso   1.000  C
  C1023    1.0000 0.45930  0.84820  0.15800  Biso   1.000  C
  C1024    1.0000 0.15180  0.45930  0.15800  Biso   1.000  C
  H641     1.0000 0.98310  0.34430  0.36000  Biso   1.000  H
  H642     1.0000 0.65570  0.98310  0.36000  Biso   1.000  H
  H643     1.0000 0.01690  0.65570  0.36000  Biso   1.000  H
  H644     1.0000 0.34430  0.01690  0.36000  Biso   1.000  H
  H645     1.0000 0.48310  0.84430  0.86000  Biso   1.000  H
  H646     1.0000 0.15570  0.48310  0.86000  Biso   1.000  H
  H647     1.0000 0.51690  0.15570  0.86000  Biso   1.000  H
  H648     1.0000 0.84430  0.51690  0.86000  Biso   1.000  H
  H649     1.0000 0.01690  0.65570  0.64000  Biso   1.000  H
  H650     1.0000 0.34430  0.01690  0.64000  Biso   1.000  H
  H651     1.0000 0.98310  0.34430  0.64000  Biso   1.000  H
  H652     1.0000 0.65570  0.98310  0.64000  Biso   1.000  H
  H653     1.0000 0.51690  0.15570  0.14000  Biso   1.000  H
  H654     1.0000 0.84430  0.51690  0.14000  Biso   1.000  H
  H655     1.0000 0.48310  0.84430  0.14000  Biso   1.000  H
  H656     1.0000 0.15570  0.48310  0.14000  Biso   1.000  H
  C1025    1.0000 0.92040  0.36330  0.35780  Biso   1.000  C
  C1026    1.0000 0.63670  0.92040  0.35780  Biso   1.000  C
  C1027    1.0000 0.07960  0.63670  0.35780  Biso   1.000  C
  C1028    1.0000 0.36330  0.07960  0.35780  Biso   1.000  C
  C1029    1.0000 0.42040  0.86330  0.85780  Biso   1.000  C
  C1030    1.0000 0.13670  0.42040  0.85780  Biso   1.000  C
  C1031    1.0000 0.57960  0.13670  0.85780  Biso   1.000  C
  C1032    1.0000 0.86330  0.57960  0.85780  Biso   1.000  C
  C1033    1.0000 0.07960  0.63670  0.64220  Biso   1.000  C
  C1034    1.0000 0.36330  0.07960  0.64220  Biso   1.000  C
  C1035    1.0000 0.92040  0.36330  0.64220  Biso   1.000  C
  C1036    1.0000 0.63670  0.92040  0.64220  Biso   1.000  C
  C1037    1.0000 0.57960  0.13670  0.14220  Biso   1.000  C
  C1038    1.0000 0.86330  0.57960  0.14220  Biso   1.000  C
  C1039    1.0000 0.42040  0.86330  0.14220  Biso   1.000  C
  C1040    1.0000 0.13670  0.42040  0.14220  Biso   1.000  C
  H657     1.0000 0.91930  0.37260  0.38640  Biso   1.000  H
  H658     1.0000 0.62740  0.91930  0.38640  Biso   1.000  H
  H659     1.0000 0.08070  0.62740  0.38640  Biso   1.000  H
  H660     1.0000 0.37260  0.08070  0.38640  Biso   1.000  H
  H661     1.0000 0.41930  0.87260  0.88640  Biso   1.000  H
  H662     1.0000 0.12740  0.41930  0.88640  Biso   1.000  H
  H663     1.0000 0.58070  0.12740  0.88640  Biso   1.000  H
  H664     1.0000 0.87260  0.58070  0.88640  Biso   1.000  H
  H665     1.0000 0.08070  0.62740  0.61360  Biso   1.000  H
  H666     1.0000 0.37260  0.08070  0.61360  Biso   1.000  H
  H667     1.0000 0.91930  0.37260  0.61360  Biso   1.000  H
  H668     1.0000 0.62740  0.91930  0.61360  Biso   1.000  H
  H669     1.0000 0.58070  0.12740  0.11360  Biso   1.000  H
  H670     1.0000 0.87260  0.58070  0.11360  Biso   1.000  H
  H671     1.0000 0.41930  0.87260  0.11360  Biso   1.000  H
  H672     1.0000 0.12740  0.41930  0.11360  Biso   1.000  H
  C1041    1.0000 0.88860  0.36600  0.28800  Biso   1.000  C
  C1042    1.0000 0.63400  0.88860  0.28800  Biso   1.000  C
  C1043    1.0000 0.11140  0.63400  0.28800  Biso   1.000  C
  C1044    1.0000 0.36600  0.11140  0.28800  Biso   1.000  C
  C1045    1.0000 0.38860  0.86600  0.78800  Biso   1.000  C
  C1046    1.0000 0.13400  0.38860  0.78800  Biso   1.000  C
  C1047    1.0000 0.61140  0.13400  0.78800  Biso   1.000  C
  C1048    1.0000 0.86600  0.61140  0.78800  Biso   1.000  C
  C1049    1.0000 0.11140  0.63400  0.71200  Biso   1.000  C
  C1050    1.0000 0.36600  0.11140  0.71200  Biso   1.000  C
  C1051    1.0000 0.88860  0.36600  0.71200  Biso   1.000  C
  C1052    1.0000 0.63400  0.88860  0.71200  Biso   1.000  C
  C1053    1.0000 0.61140  0.13400  0.21200  Biso   1.000  C
  C1054    1.0000 0.86600  0.61140  0.21200  Biso   1.000  C
  C1055    1.0000 0.38860  0.86600  0.21200  Biso   1.000  C
  C1056    1.0000 0.13400  0.38860  0.21200  Biso   1.000  C
  H673     1.0000 0.86620  0.37500  0.27010  Biso   1.000  H
  H674     1.0000 0.62500  0.86620  0.27010  Biso   1.000  H
  H675     1.0000 0.13380  0.62500  0.27010  Biso   1.000  H
  H676     1.0000 0.37500  0.13380  0.27010  Biso   1.000  H
  H677     1.0000 0.36620  0.87500  0.77010  Biso   1.000  H
  H678     1.0000 0.12500  0.36620  0.77010  Biso   1.000  H
  H679     1.0000 0.63380  0.12500  0.77010  Biso   1.000  H
  H680     1.0000 0.87500  0.63380  0.77010  Biso   1.000  H
  H681     1.0000 0.13380  0.62500  0.72990  Biso   1.000  H
  H682     1.0000 0.37500  0.13380  0.72990  Biso   1.000  H
  H683     1.0000 0.86620  0.37500  0.72990  Biso   1.000  H
  H684     1.0000 0.62500  0.86620  0.72990  Biso   1.000  H
  H685     1.0000 0.63380  0.12500  0.22990  Biso   1.000  H
  H686     1.0000 0.87500  0.63380  0.22990  Biso   1.000  H
  H687     1.0000 0.36620  0.87500  0.22990  Biso   1.000  H
  H688     1.0000 0.12500  0.36620  0.22990  Biso   1.000  H
  C1057    1.0000 0.92690  0.35330  0.27100  Biso   1.000  C
  C1058    1.0000 0.64670  0.92690  0.27100  Biso   1.000  C
  C1059    1.0000 0.07310  0.64670  0.27100  Biso   1.000  C
  C1060    1.0000 0.35330  0.07310  0.27100  Biso   1.000  C
  C1061    1.0000 0.42690  0.85330  0.77100  Biso   1.000  C
  C1062    1.0000 0.14670  0.42690  0.77100  Biso   1.000  C
  C1063    1.0000 0.57310  0.14670  0.77100  Biso   1.000  C
  C1064    1.0000 0.85330  0.57310  0.77100  Biso   1.000  C
  C1065    1.0000 0.07310  0.64670  0.72900  Biso   1.000  C
  C1066    1.0000 0.35330  0.07310  0.72900  Biso   1.000  C
  C1067    1.0000 0.92690  0.35330  0.72900  Biso   1.000  C
  C1068    1.0000 0.64670  0.92690  0.72900  Biso   1.000  C
  C1069    1.0000 0.57310  0.14670  0.22900  Biso   1.000  C
  C1070    1.0000 0.85330  0.57310  0.22900  Biso   1.000  C
  C1071    1.0000 0.42690  0.85330  0.22900  Biso   1.000  C
  C1072    1.0000 0.14670  0.42690  0.22900  Biso   1.000  C
  H689     1.0000 0.93080  0.35400  0.24120  Biso   1.000  H
  H690     1.0000 0.64600  0.93080  0.24120  Biso   1.000  H
  H691     1.0000 0.06920  0.64600  0.24120  Biso   1.000  H
  H692     1.0000 0.35400  0.06920  0.24120  Biso   1.000  H
  H693     1.0000 0.43080  0.85400  0.74120  Biso   1.000  H
  H694     1.0000 0.14600  0.43080  0.74120  Biso   1.000  H
  H695     1.0000 0.56920  0.14600  0.74120  Biso   1.000  H
  H696     1.0000 0.85400  0.56920  0.74120  Biso   1.000  H
  H697     1.0000 0.06920  0.64600  0.75880  Biso   1.000  H
  H698     1.0000 0.35400  0.06920  0.75880  Biso   1.000  H
  H699     1.0000 0.93080  0.35400  0.75880  Biso   1.000  H
  H700     1.0000 0.64600  0.93080  0.75880  Biso   1.000  H
  H701     1.0000 0.56920  0.14600  0.25880  Biso   1.000  H
  H702     1.0000 0.85400  0.56920  0.25880  Biso   1.000  H
  H703     1.0000 0.43080  0.85400  0.25880  Biso   1.000  H
  H704     1.0000 0.14600  0.43080  0.25880  Biso   1.000  H
  C1073    1.0000 0.53480  0.28820  0.08340  Biso   1.000  C
  C1074    1.0000 0.71180  0.53480  0.08340  Biso   1.000  C
  C1075    1.0000 0.46520  0.71180  0.08340  Biso   1.000  C
  C1076    1.0000 0.28820  0.46520  0.08340  Biso   1.000  C
  C1077    1.0000 0.03480  0.78820  0.58340  Biso   1.000  C
  C1078    1.0000 0.21180  0.03480  0.58340  Biso   1.000  C
  C1079    1.0000 0.96520  0.21180  0.58340  Biso   1.000  C
  C1080    1.0000 0.78820  0.96520  0.58340  Biso   1.000  C
  C1081    1.0000 0.46520  0.71180  0.91660  Biso   1.000  C
  C1082    1.0000 0.28820  0.46520  0.91660  Biso   1.000  C
  C1083    1.0000 0.53480  0.28820  0.91660  Biso   1.000  C
  C1084    1.0000 0.71180  0.53480  0.91660  Biso   1.000  C
  C1085    1.0000 0.96520  0.21180  0.41660  Biso   1.000  C
  C1086    1.0000 0.78820  0.96520  0.41660  Biso   1.000  C
  C1087    1.0000 0.03480  0.78820  0.41660  Biso   1.000  C
  C1088    1.0000 0.21180  0.03480  0.41660  Biso   1.000  C
  H705     1.0000 0.55220  0.31240  0.08710  Biso   1.000  H
  H706     1.0000 0.68760  0.55220  0.08710  Biso   1.000  H
  H707     1.0000 0.44780  0.68760  0.08710  Biso   1.000  H
  H708     1.0000 0.31240  0.44780  0.08710  Biso   1.000  H
  H709     1.0000 0.05220  0.81240  0.58710  Biso   1.000  H
  H710     1.0000 0.18760  0.05220  0.58710  Biso   1.000  H
  H711     1.0000 0.94780  0.18760  0.58710  Biso   1.000  H
  H712     1.0000 0.81240  0.94780  0.58710  Biso   1.000  H
  H713     1.0000 0.44780  0.68760  0.91290  Biso   1.000  H
  H714     1.0000 0.31240  0.44780  0.91290  Biso   1.000  H
  H715     1.0000 0.55220  0.31240  0.91290  Biso   1.000  H
  H716     1.0000 0.68760  0.55220  0.91290  Biso   1.000  H
  H717     1.0000 0.94780  0.18760  0.41290  Biso   1.000  H
  H718     1.0000 0.81240  0.94780  0.41290  Biso   1.000  H
  H719     1.0000 0.05220  0.81240  0.41290  Biso   1.000  H
  H720     1.0000 0.18760  0.05220  0.41290  Biso   1.000  H
  C1089    1.0000 0.53520  0.26650  0.04430  Biso   1.000  C
  C1090    1.0000 0.73350  0.53520  0.04430  Biso   1.000  C
  C1091    1.0000 0.46480  0.73350  0.04430  Biso   1.000  C
  C1092    1.0000 0.26650  0.46480  0.04430  Biso   1.000  C
  C1093    1.0000 0.03520  0.76650  0.54430  Biso   1.000  C
  C1094    1.0000 0.23350  0.03520  0.54430  Biso   1.000  C
  C1095    1.0000 0.96480  0.23350  0.54430  Biso   1.000  C
  C1096    1.0000 0.76650  0.96480  0.54430  Biso   1.000  C
  C1097    1.0000 0.46480  0.73350  0.95570  Biso   1.000  C
  C1098    1.0000 0.26650  0.46480  0.95570  Biso   1.000  C
  C1099    1.0000 0.53520  0.26650  0.95570  Biso   1.000  C
  C1100    1.0000 0.73350  0.53520  0.95570  Biso   1.000  C
  C1101    1.0000 0.96480  0.23350  0.45570  Biso   1.000  C
  C1102    1.0000 0.76650  0.96480  0.45570  Biso   1.000  C
  C1103    1.0000 0.03520  0.76650  0.45570  Biso   1.000  C
  C1104    1.0000 0.23350  0.03520  0.45570  Biso   1.000  C
  H721     1.0000 0.55130  0.27700  0.02110  Biso   1.000  H
  H722     1.0000 0.72300  0.55130  0.02110  Biso   1.000  H
  H723     1.0000 0.44870  0.72300  0.02110  Biso   1.000  H
  H724     1.0000 0.27700  0.44870  0.02110  Biso   1.000  H
  H725     1.0000 0.05130  0.77700  0.52110  Biso   1.000  H
  H726     1.0000 0.22300  0.05130  0.52110  Biso   1.000  H
  H727     1.0000 0.94870  0.22300  0.52110  Biso   1.000  H
  H728     1.0000 0.77700  0.94870  0.52110  Biso   1.000  H
  H729     1.0000 0.44870  0.72300  0.97890  Biso   1.000  H
  H730     1.0000 0.27700  0.44870  0.97890  Biso   1.000  H
  H731     1.0000 0.55130  0.27700  0.97890  Biso   1.000  H
  H732     1.0000 0.72300  0.55130  0.97890  Biso   1.000  H
  H733     1.0000 0.94870  0.22300  0.47890  Biso   1.000  H
  H734     1.0000 0.77700  0.94870  0.47890  Biso   1.000  H
  H735     1.0000 0.05130  0.77700  0.47890  Biso   1.000  H
  H736     1.0000 0.22300  0.05130  0.47890  Biso   1.000  H
  C1105    1.0000 0.48320  0.21490  0.07100  Biso   1.000  C
  C1106    1.0000 0.78510  0.48320  0.07100  Biso   1.000  C
  C1107    1.0000 0.51680  0.78510  0.07100  Biso   1.000  C
  C1108    1.0000 0.21490  0.51680  0.07100  Biso   1.000  C
  C1109    1.0000 0.98320  0.71490  0.57100  Biso   1.000  C
  C1110    1.0000 0.28510  0.98320  0.57100  Biso   1.000  C
  C1111    1.0000 0.01680  0.28510  0.57100  Biso   1.000  C
  C1112    1.0000 0.71490  0.01680  0.57100  Biso   1.000  C
  C1113    1.0000 0.51680  0.78510  0.92900  Biso   1.000  C
  C1114    1.0000 0.21490  0.51680  0.92900  Biso   1.000  C
  C1115    1.0000 0.48320  0.21490  0.92900  Biso   1.000  C
  C1116    1.0000 0.78510  0.48320  0.92900  Biso   1.000  C
  C1117    1.0000 0.01680  0.28510  0.42900  Biso   1.000  C
  C1118    1.0000 0.71490  0.01680  0.42900  Biso   1.000  C
  C1119    1.0000 0.98320  0.71490  0.42900  Biso   1.000  C
  C1120    1.0000 0.28510  0.98320  0.42900  Biso   1.000  C
  H737     1.0000 0.46520  0.19120  0.06650  Biso   1.000  H
  H738     1.0000 0.80880  0.46520  0.06650  Biso   1.000  H
  H739     1.0000 0.53480  0.80880  0.06650  Biso   1.000  H
  H740     1.0000 0.19120  0.53480  0.06650  Biso   1.000  H
  H741     1.0000 0.96520  0.69120  0.56650  Biso   1.000  H
  H742     1.0000 0.30880  0.96520  0.56650  Biso   1.000  H
  H743     1.0000 0.03480  0.30880  0.56650  Biso   1.000  H
  H744     1.0000 0.69120  0.03480  0.56650  Biso   1.000  H
  H745     1.0000 0.53480  0.80880  0.93350  Biso   1.000  H
  H746     1.0000 0.19120  0.53480  0.93350  Biso   1.000  H
  H747     1.0000 0.46520  0.19120  0.93350  Biso   1.000  H
  H748     1.0000 0.80880  0.46520  0.93350  Biso   1.000  H
  H749     1.0000 0.03480  0.30880  0.43350  Biso   1.000  H
  H750     1.0000 0.69120  0.03480  0.43350  Biso   1.000  H
  H751     1.0000 0.96520  0.69120  0.43350  Biso   1.000  H
  H752     1.0000 0.30880  0.96520  0.43350  Biso   1.000  H
  C1121    1.0000 0.48320  0.23760  0.10900  Biso   1.000  C
  C1122    1.0000 0.76240  0.48320  0.10900  Biso   1.000  C
  C1123    1.0000 0.51680  0.76240  0.10900  Biso   1.000  C
  C1124    1.0000 0.23760  0.51680  0.10900  Biso   1.000  C
  C1125    1.0000 0.98320  0.73760  0.60900  Biso   1.000  C
  C1126    1.0000 0.26240  0.98320  0.60900  Biso   1.000  C
  C1127    1.0000 0.01680  0.26240  0.60900  Biso   1.000  C
  C1128    1.0000 0.73760  0.01680  0.60900  Biso   1.000  C
  C1129    1.0000 0.51680  0.76240  0.89100  Biso   1.000  C
  C1130    1.0000 0.23760  0.51680  0.89100  Biso   1.000  C
  C1131    1.0000 0.48320  0.23760  0.89100  Biso   1.000  C
  C1132    1.0000 0.76240  0.48320  0.89100  Biso   1.000  C
  C1133    1.0000 0.01680  0.26240  0.39100  Biso   1.000  C
  C1134    1.0000 0.73760  0.01680  0.39100  Biso   1.000  C
  C1135    1.0000 0.98320  0.73760  0.39100  Biso   1.000  C
  C1136    1.0000 0.26240  0.98320  0.39100  Biso   1.000  C
  H753     1.0000 0.46490  0.22780  0.13080  Biso   1.000  H
  H754     1.0000 0.77220  0.46490  0.13080  Biso   1.000  H
  H755     1.0000 0.53510  0.77220  0.13080  Biso   1.000  H
  H756     1.0000 0.22780  0.53510  0.13080  Biso   1.000  H
  H757     1.0000 0.96490  0.72780  0.63080  Biso   1.000  H
  H758     1.0000 0.27220  0.96490  0.63080  Biso   1.000  H
  H759     1.0000 0.03510  0.27220  0.63080  Biso   1.000  H
  H760     1.0000 0.72780  0.03510  0.63080  Biso   1.000  H
  H761     1.0000 0.53510  0.77220  0.86920  Biso   1.000  H
  H762     1.0000 0.22780  0.53510  0.86920  Biso   1.000  H
  H763     1.0000 0.46490  0.22780  0.86920  Biso   1.000  H
  H764     1.0000 0.77220  0.46490  0.86920  Biso   1.000  H
  H765     1.0000 0.03510  0.27220  0.36920  Biso   1.000  H
  H766     1.0000 0.72780  0.03510  0.36920  Biso   1.000  H
  H767     1.0000 0.96490  0.72780  0.36920  Biso   1.000  H
  H768     1.0000 0.27220  0.96490  0.36920  Biso   1.000  H
