data_image0
_cell_length_a       25.9181
_cell_length_b       12.1924
_cell_length_c       35.215
_cell_angle_alpha    90
_cell_angle_beta     90
_cell_angle_gamma    90

_symmetry_space_group_name_H-M    "P 1"
_symmetry_int_tables_number       1

loop_
  _symmetry_equiv_pos_as_xyz
  'x, y, z'

loop_
  _atom_site_label
  _atom_site_occupancy
  _atom_site_fract_x
  _atom_site_fract_y
  _atom_site_fract_z
  _atom_site_thermal_displace_type
  _atom_site_B_iso_or_equiv
  _atom_site_type_symbol
  Cu1      1.0000 0.97541  0.82817  0.77859  Biso   1.000  Cu
  Cu2      1.0000 0.52459  0.17183  0.27859  Biso   1.000  Cu
  Cu3      1.0000 0.47541  0.67183  0.22141  Biso   1.000  Cu
  Cu4      1.0000 0.02459  0.32817  0.72141  Biso   1.000  Cu
  Cu5      1.0000 0.02459  0.17183  0.22141  Biso   1.000  Cu
  Cu6      1.0000 0.47541  0.82817  0.72141  Biso   1.000  Cu
  Cu7      1.0000 0.52459  0.32817  0.77859  Biso   1.000  Cu
  Cu8      1.0000 0.97541  0.67183  0.27859  Biso   1.000  Cu
  O1       1.0000 0.86558  0.84293  0.78435  Biso   1.000  O
  O2       1.0000 0.63442  0.15707  0.28435  Biso   1.000  O
  O3       1.0000 0.36558  0.65707  0.21565  Biso   1.000  O
  O4       1.0000 0.13442  0.34293  0.71565  Biso   1.000  O
  O5       1.0000 0.13442  0.15707  0.21565  Biso   1.000  O
  O6       1.0000 0.36558  0.84293  0.71565  Biso   1.000  O
  O7       1.0000 0.63442  0.34293  0.78435  Biso   1.000  O
  O8       1.0000 0.86558  0.65707  0.28435  Biso   1.000  O
  O9       1.0000 0.92485  0.71195  0.78276  Biso   1.000  O
  O10      1.0000 0.57515  0.28805  0.28276  Biso   1.000  O
  O11      1.0000 0.42485  0.78805  0.21724  Biso   1.000  O
  O12      1.0000 0.07515  0.21195  0.71724  Biso   1.000  O
  O13      1.0000 0.07515  0.28805  0.21724  Biso   1.000  O
  O14      1.0000 0.42485  0.71195  0.71724  Biso   1.000  O
  O15      1.0000 0.57515  0.21195  0.78276  Biso   1.000  O
  O16      1.0000 0.92485  0.78805  0.28276  Biso   1.000  O
  N1       1.0000 0.88067  0.13150  0.72307  Biso   1.000  N
  N2       1.0000 0.61933  0.86850  0.22307  Biso   1.000  N
  N3       1.0000 0.38067  0.36850  0.27693  Biso   1.000  N
  N4       1.0000 0.11933  0.63150  0.77693  Biso   1.000  N
  N5       1.0000 0.11933  0.86850  0.27693  Biso   1.000  N
  N6       1.0000 0.38067  0.13150  0.77693  Biso   1.000  N
  N7       1.0000 0.61933  0.63150  0.72307  Biso   1.000  N
  N8       1.0000 0.88067  0.36850  0.22307  Biso   1.000  N
  N9       1.0000 0.01797  0.96970  0.77651  Biso   1.000  N
  N10      1.0000 0.48203  0.03030  0.27651  Biso   1.000  N
  N11      1.0000 0.51797  0.53030  0.22349  Biso   1.000  N
  N12      1.0000 0.98203  0.46970  0.72349  Biso   1.000  N
  N13      1.0000 0.98203  0.03030  0.22349  Biso   1.000  N
  N14      1.0000 0.51797  0.96970  0.72349  Biso   1.000  N
  N15      1.0000 0.48203  0.46970  0.77651  Biso   1.000  N
  N16      1.0000 0.01797  0.53030  0.27651  Biso   1.000  N
  N17      1.0000 0.95613  0.19640  0.73386  Biso   1.000  N
  N18      1.0000 0.54387  0.80360  0.23386  Biso   1.000  N
  N19      1.0000 0.45613  0.30360  0.26614  Biso   1.000  N
  N20      1.0000 0.04387  0.69640  0.76614  Biso   1.000  N
  N21      1.0000 0.04387  0.80360  0.26614  Biso   1.000  N
  N22      1.0000 0.45613  0.19640  0.76614  Biso   1.000  N
  N23      1.0000 0.54387  0.69640  0.73386  Biso   1.000  N
  N24      1.0000 0.95613  0.30360  0.23386  Biso   1.000  N
  N25      1.0000 0.91427  0.21040  0.71310  Biso   1.000  N
  N26      1.0000 0.58573  0.78960  0.21310  Biso   1.000  N
  N27      1.0000 0.41427  0.28960  0.28690  Biso   1.000  N
  N28      1.0000 0.08573  0.71040  0.78690  Biso   1.000  N
  N29      1.0000 0.08573  0.78960  0.28690  Biso   1.000  N
  N30      1.0000 0.41427  0.21040  0.78690  Biso   1.000  N
  N31      1.0000 0.58573  0.71040  0.71310  Biso   1.000  N
  N32      1.0000 0.91427  0.28960  0.21310  Biso   1.000  N
  N33      1.0000 0.99297  0.83890  0.83412  Biso   1.000  N
  N34      1.0000 0.50703  0.16110  0.33412  Biso   1.000  N
  N35      1.0000 0.49297  0.66110  0.16588  Biso   1.000  N
  N36      1.0000 0.00703  0.33890  0.66588  Biso   1.000  N
  N37      1.0000 0.00703  0.16110  0.16588  Biso   1.000  N
  N38      1.0000 0.49297  0.83890  0.66588  Biso   1.000  N
  N39      1.0000 0.50703  0.33890  0.83412  Biso   1.000  N
  N40      1.0000 0.99297  0.66110  0.33412  Biso   1.000  N
  N41      1.0000 0.96671  0.85840  0.72280  Biso   1.000  N
  N42      1.0000 0.53329  0.14160  0.22280  Biso   1.000  N
  N43      1.0000 0.46671  0.64160  0.27720  Biso   1.000  N
  N44      1.0000 0.03329  0.35840  0.77720  Biso   1.000  N
  N45      1.0000 0.03329  0.14160  0.27720  Biso   1.000  N
  N46      1.0000 0.46671  0.85840  0.77720  Biso   1.000  N
  N47      1.0000 0.53329  0.35840  0.72280  Biso   1.000  N
  N48      1.0000 0.96671  0.64160  0.22280  Biso   1.000  N
  C1       1.0000 0.82928  0.12580  0.70321  Biso   1.000  C
  C2       1.0000 0.67072  0.87420  0.20321  Biso   1.000  C
  C3       1.0000 0.32928  0.37420  0.29679  Biso   1.000  C
  C4       1.0000 0.17072  0.62580  0.79679  Biso   1.000  C
  C5       1.0000 0.17072  0.87420  0.29679  Biso   1.000  C
  C6       1.0000 0.32928  0.12580  0.79679  Biso   1.000  C
  C7       1.0000 0.67072  0.62580  0.70321  Biso   1.000  C
  C8       1.0000 0.82928  0.37420  0.20321  Biso   1.000  C
  C9       1.0000 0.92941  0.84430  0.66102  Biso   1.000  C
  C10      1.0000 0.57059  0.15570  0.16102  Biso   1.000  C
  C11      1.0000 0.42941  0.65570  0.33898  Biso   1.000  C
  C12      1.0000 0.07059  0.34430  0.83898  Biso   1.000  C
  C13      1.0000 0.07059  0.15570  0.33898  Biso   1.000  C
  C14      1.0000 0.42941  0.84430  0.83898  Biso   1.000  C
  C15      1.0000 0.57059  0.34430  0.66102  Biso   1.000  C
  C16      1.0000 0.92941  0.65570  0.16102  Biso   1.000  C
  H1       1.0000 0.90410  0.81300  0.64480  Biso   1.000  H
  H2       1.0000 0.59590  0.18700  0.14480  Biso   1.000  H
  H3       1.0000 0.40410  0.68700  0.35520  Biso   1.000  H
  H4       1.0000 0.09590  0.31300  0.85520  Biso   1.000  H
  H5       1.0000 0.09590  0.18700  0.35520  Biso   1.000  H
  H6       1.0000 0.40410  0.81300  0.85520  Biso   1.000  H
  H7       1.0000 0.59590  0.31300  0.64480  Biso   1.000  H
  H8       1.0000 0.90410  0.68700  0.14480  Biso   1.000  H
  C17      1.0000 0.90039  0.06730  0.75035  Biso   1.000  C
  C18      1.0000 0.59961  0.93270  0.25035  Biso   1.000  C
  C19      1.0000 0.40039  0.43270  0.24965  Biso   1.000  C
  C20      1.0000 0.09961  0.56730  0.74965  Biso   1.000  C
  C21      1.0000 0.09961  0.93270  0.24965  Biso   1.000  C
  C22      1.0000 0.40039  0.06730  0.74965  Biso   1.000  C
  C23      1.0000 0.59961  0.56730  0.75035  Biso   1.000  C
  C24      1.0000 0.90039  0.43270  0.25035  Biso   1.000  C
  H9       1.0000 0.88420  0.00680  0.76250  Biso   1.000  H
  H10      1.0000 0.61580  0.99320  0.26250  Biso   1.000  H
  H11      1.0000 0.38420  0.49320  0.23750  Biso   1.000  H
  H12      1.0000 0.11580  0.50680  0.73750  Biso   1.000  H
  H13      1.0000 0.11580  0.99320  0.23750  Biso   1.000  H
  H14      1.0000 0.38420  0.00680  0.73750  Biso   1.000  H
  H15      1.0000 0.61580  0.50680  0.76250  Biso   1.000  H
  H16      1.0000 0.88420  0.49320  0.26250  Biso   1.000  H
  C25      1.0000 0.04706  0.93400  0.87837  Biso   1.000  C
  C26      1.0000 0.45294  0.06600  0.37837  Biso   1.000  C
  C27      1.0000 0.54706  0.56600  0.12163  Biso   1.000  C
  C28      1.0000 0.95294  0.43400  0.62163  Biso   1.000  C
  C29      1.0000 0.95294  0.06600  0.12163  Biso   1.000  C
  C30      1.0000 0.54706  0.93400  0.62163  Biso   1.000  C
  C31      1.0000 0.45294  0.43400  0.87837  Biso   1.000  C
  C32      1.0000 0.04706  0.56600  0.37837  Biso   1.000  C
  H17      1.0000 0.07430  0.98440  0.88300  Biso   1.000  H
  H18      1.0000 0.42570  0.01560  0.38300  Biso   1.000  H
  H19      1.0000 0.57430  0.51560  0.11700  Biso   1.000  H
  H20      1.0000 0.92570  0.48440  0.61700  Biso   1.000  H
  H21      1.0000 0.92570  0.01560  0.11700  Biso   1.000  H
  H22      1.0000 0.57430  0.98440  0.61700  Biso   1.000  H
  H23      1.0000 0.42570  0.48440  0.88300  Biso   1.000  H
  H24      1.0000 0.07430  0.51560  0.38300  Biso   1.000  H
  C33      1.0000 0.94901  0.10790  0.75701  Biso   1.000  C
  C34      1.0000 0.55099  0.89210  0.25701  Biso   1.000  C
  C35      1.0000 0.44901  0.39210  0.24299  Biso   1.000  C
  C36      1.0000 0.05099  0.60790  0.74299  Biso   1.000  C
  C37      1.0000 0.05099  0.89210  0.24299  Biso   1.000  C
  C38      1.0000 0.44901  0.10790  0.74299  Biso   1.000  C
  C39      1.0000 0.55099  0.60790  0.75701  Biso   1.000  C
  C40      1.0000 0.94901  0.39210  0.25701  Biso   1.000  C
  C41      1.0000 0.87773  0.74530  0.78468  Biso   1.000  C
  C42      1.0000 0.62227  0.25470  0.28468  Biso   1.000  C
  C43      1.0000 0.37773  0.75470  0.21532  Biso   1.000  C
  C44      1.0000 0.12227  0.24530  0.71532  Biso   1.000  C
  C45      1.0000 0.12227  0.25470  0.21532  Biso   1.000  C
  C46      1.0000 0.37773  0.74530  0.71532  Biso   1.000  C
  C47      1.0000 0.62227  0.24530  0.78468  Biso   1.000  C
  C48      1.0000 0.87773  0.75470  0.28468  Biso   1.000  C
  C49      1.0000 0.83747  0.65610  0.78805  Biso   1.000  C
  C50      1.0000 0.66253  0.34390  0.28805  Biso   1.000  C
  C51      1.0000 0.33747  0.84390  0.21195  Biso   1.000  C
  C52      1.0000 0.16253  0.15610  0.71195  Biso   1.000  C
  C53      1.0000 0.16253  0.34390  0.21195  Biso   1.000  C
  C54      1.0000 0.33747  0.65610  0.71195  Biso   1.000  C
  C55      1.0000 0.66253  0.15610  0.78805  Biso   1.000  C
  C56      1.0000 0.83747  0.84390  0.28805  Biso   1.000  C
  H25      1.0000 0.84840  0.60270  0.80720  Biso   1.000  H
  H26      1.0000 0.65160  0.39730  0.30720  Biso   1.000  H
  H27      1.0000 0.34840  0.89730  0.19280  Biso   1.000  H
  H28      1.0000 0.15160  0.10270  0.69280  Biso   1.000  H
  H29      1.0000 0.15160  0.39730  0.19280  Biso   1.000  H
  H30      1.0000 0.34840  0.60270  0.69280  Biso   1.000  H
  H31      1.0000 0.65160  0.10270  0.80720  Biso   1.000  H
  H32      1.0000 0.84840  0.89730  0.30720  Biso   1.000  H
  H33      1.0000 0.83350  0.61920  0.76350  Biso   1.000  H
  H34      1.0000 0.66650  0.38080  0.26350  Biso   1.000  H
  H35      1.0000 0.33350  0.88080  0.23650  Biso   1.000  H
  H36      1.0000 0.16650  0.11920  0.73650  Biso   1.000  H
  H37      1.0000 0.16650  0.38080  0.23650  Biso   1.000  H
  H38      1.0000 0.33350  0.61920  0.73650  Biso   1.000  H
  H39      1.0000 0.66650  0.11920  0.76350  Biso   1.000  H
  H40      1.0000 0.83350  0.88080  0.26350  Biso   1.000  H
  H41      1.0000 0.80440  0.68870  0.79560  Biso   1.000  H
  H42      1.0000 0.69560  0.31130  0.29560  Biso   1.000  H
  H43      1.0000 0.30440  0.81130  0.20440  Biso   1.000  H
  H44      1.0000 0.19560  0.18870  0.70440  Biso   1.000  H
  H45      1.0000 0.19560  0.31130  0.20440  Biso   1.000  H
  H46      1.0000 0.30440  0.68870  0.70440  Biso   1.000  H
  H47      1.0000 0.69560  0.18870  0.79560  Biso   1.000  H
  H48      1.0000 0.80440  0.81130  0.29560  Biso   1.000  H
  C57      1.0000 0.98274  0.80920  0.90082  Biso   1.000  C
  C58      1.0000 0.51726  0.19080  0.40082  Biso   1.000  C
  C59      1.0000 0.48274  0.69080  0.09918  Biso   1.000  C
  C60      1.0000 0.01726  0.30920  0.59918  Biso   1.000  C
  C61      1.0000 0.01726  0.19080  0.09918  Biso   1.000  C
  C62      1.0000 0.48274  0.80920  0.59918  Biso   1.000  C
  C63      1.0000 0.51726  0.30920  0.90082  Biso   1.000  C
  C64      1.0000 0.98274  0.69080  0.40082  Biso   1.000  C
  H49      1.0000 0.96530  0.77320  0.92100  Biso   1.000  H
  H50      1.0000 0.53470  0.22680  0.42100  Biso   1.000  H
  H51      1.0000 0.46530  0.72680  0.07900  Biso   1.000  H
  H52      1.0000 0.03470  0.27320  0.57900  Biso   1.000  H
  H53      1.0000 0.03470  0.22680  0.07900  Biso   1.000  H
  H54      1.0000 0.46530  0.77320  0.57900  Biso   1.000  H
  H55      1.0000 0.53470  0.27320  0.92100  Biso   1.000  H
  H56      1.0000 0.96530  0.72680  0.42100  Biso   1.000  H
  C65      1.0000 0.05723  0.95760  0.80686  Biso   1.000  C
  C66      1.0000 0.44277  0.04240  0.30686  Biso   1.000  C
  C67      1.0000 0.55723  0.54240  0.19314  Biso   1.000  C
  C68      1.0000 0.94277  0.45760  0.69314  Biso   1.000  C
  C69      1.0000 0.94277  0.04240  0.19314  Biso   1.000  C
  C70      1.0000 0.55723  0.95760  0.69314  Biso   1.000  C
  C71      1.0000 0.44277  0.45760  0.80686  Biso   1.000  C
  C72      1.0000 0.05723  0.54240  0.30686  Biso   1.000  C
  H57      1.0000 0.07230  0.03000  0.81300  Biso   1.000  H
  H58      1.0000 0.42770  0.97000  0.31300  Biso   1.000  H
  H59      1.0000 0.57230  0.47000  0.18700  Biso   1.000  H
  H60      1.0000 0.92770  0.53000  0.68700  Biso   1.000  H
  H61      1.0000 0.92770  0.97000  0.18700  Biso   1.000  H
  H62      1.0000 0.57230  0.03000  0.68700  Biso   1.000  H
  H63      1.0000 0.42770  0.53000  0.81300  Biso   1.000  H
  H64      1.0000 0.07230  0.47000  0.31300  Biso   1.000  H
  H65      1.0000 0.08530  0.90870  0.79810  Biso   1.000  H
  H66      1.0000 0.41470  0.09130  0.29810  Biso   1.000  H
  H67      1.0000 0.58530  0.59130  0.20190  Biso   1.000  H
  H68      1.0000 0.91470  0.40870  0.70190  Biso   1.000  H
  H69      1.0000 0.91470  0.09130  0.20190  Biso   1.000  H
  H70      1.0000 0.58530  0.90870  0.70190  Biso   1.000  H
  H71      1.0000 0.41470  0.40870  0.79810  Biso   1.000  H
  H72      1.0000 0.08530  0.59130  0.29810  Biso   1.000  H
  C73      1.0000 0.03196  0.90970  0.84159  Biso   1.000  C
  C74      1.0000 0.46804  0.09030  0.34159  Biso   1.000  C
  C75      1.0000 0.53196  0.59030  0.15841  Biso   1.000  C
  C76      1.0000 0.96804  0.40970  0.65841  Biso   1.000  C
  C77      1.0000 0.96804  0.09030  0.15841  Biso   1.000  C
  C78      1.0000 0.53196  0.90970  0.65841  Biso   1.000  C
  C79      1.0000 0.46804  0.40970  0.84159  Biso   1.000  C
  C80      1.0000 0.03196  0.59030  0.34159  Biso   1.000  C
  C81      1.0000 0.96564  0.91830  0.64712  Biso   1.000  C
  C82      1.0000 0.53436  0.08170  0.14712  Biso   1.000  C
  C83      1.0000 0.46564  0.58170  0.35288  Biso   1.000  C
  C84      1.0000 0.03436  0.41830  0.85288  Biso   1.000  C
  C85      1.0000 0.03436  0.08170  0.35288  Biso   1.000  C
  C86      1.0000 0.46564  0.91830  0.85288  Biso   1.000  C
  C87      1.0000 0.53436  0.41830  0.64712  Biso   1.000  C
  C88      1.0000 0.96564  0.58170  0.14712  Biso   1.000  C
  H73      1.0000 0.96550  0.93800  0.62100  Biso   1.000  H
  H74      1.0000 0.53450  0.06200  0.12100  Biso   1.000  H
  H75      1.0000 0.46550  0.56200  0.37900  Biso   1.000  H
  H76      1.0000 0.03450  0.43800  0.87900  Biso   1.000  H
  H77      1.0000 0.03450  0.06200  0.37900  Biso   1.000  H
  H78      1.0000 0.46550  0.93800  0.87900  Biso   1.000  H
  H79      1.0000 0.53450  0.43800  0.62100  Biso   1.000  H
  H80      1.0000 0.96550  0.56200  0.12100  Biso   1.000  H
  C89      1.0000 0.04073  0.97150  0.73773  Biso   1.000  C
  C90      1.0000 0.45927  0.02850  0.23773  Biso   1.000  C
  C91      1.0000 0.54073  0.52850  0.26227  Biso   1.000  C
  C92      1.0000 0.95927  0.47150  0.76227  Biso   1.000  C
  C93      1.0000 0.95927  0.02850  0.26227  Biso   1.000  C
  C94      1.0000 0.54073  0.97150  0.76227  Biso   1.000  C
  C95      1.0000 0.45927  0.47150  0.73773  Biso   1.000  C
  C96      1.0000 0.04073  0.52850  0.23773  Biso   1.000  C
  H81      1.0000 0.07170  0.92410  0.73700  Biso   1.000  H
  H82      1.0000 0.42830  0.07590  0.23700  Biso   1.000  H
  H83      1.0000 0.57170  0.57590  0.26300  Biso   1.000  H
  H84      1.0000 0.92830  0.42410  0.76300  Biso   1.000  H
  H85      1.0000 0.92830  0.07590  0.26300  Biso   1.000  H
  H86      1.0000 0.57170  0.92410  0.76300  Biso   1.000  H
  H87      1.0000 0.42830  0.42410  0.73700  Biso   1.000  H
  H88      1.0000 0.07170  0.57590  0.23700  Biso   1.000  H
  H89      1.0000 0.05140  0.04720  0.73120  Biso   1.000  H
  H90      1.0000 0.44860  0.95280  0.23120  Biso   1.000  H
  H91      1.0000 0.55140  0.45280  0.26880  Biso   1.000  H
  H92      1.0000 0.94860  0.54720  0.76880  Biso   1.000  H
  H93      1.0000 0.94860  0.95280  0.26880  Biso   1.000  H
  H94      1.0000 0.55140  0.04720  0.76880  Biso   1.000  H
  H95      1.0000 0.44860  0.54720  0.73120  Biso   1.000  H
  H96      1.0000 0.05140  0.45280  0.23120  Biso   1.000  H
  C97      1.0000 0.00173  0.93130  0.70935  Biso   1.000  C
  C98      1.0000 0.49827  0.06870  0.20935  Biso   1.000  C
  C99      1.0000 0.50173  0.56870  0.29065  Biso   1.000  C
  C100     1.0000 0.99827  0.43130  0.79065  Biso   1.000  C
  C101     1.0000 0.99827  0.06870  0.29065  Biso   1.000  C
  C102     1.0000 0.50173  0.93130  0.79065  Biso   1.000  C
  C103     1.0000 0.49827  0.43130  0.70935  Biso   1.000  C
  C104     1.0000 0.00173  0.56870  0.20935  Biso   1.000  C
  C105     1.0000 0.02190  0.88380  0.90810  Biso   1.000  C
  C106     1.0000 0.47810  0.11620  0.40810  Biso   1.000  C
  C107     1.0000 0.52190  0.61620  0.09190  Biso   1.000  C
  C108     1.0000 0.97810  0.38380  0.59190  Biso   1.000  C
  C109     1.0000 0.97810  0.11620  0.09190  Biso   1.000  C
  C110     1.0000 0.52190  0.88380  0.59190  Biso   1.000  C
  C111     1.0000 0.47810  0.38380  0.90810  Biso   1.000  C
  C112     1.0000 0.02190  0.61620  0.40810  Biso   1.000  C
  H97      1.0000 0.03140  0.90020  0.93350  Biso   1.000  H
  H98      1.0000 0.46860  0.09980  0.43350  Biso   1.000  H
  H99      1.0000 0.53140  0.59980  0.06650  Biso   1.000  H
  H100     1.0000 0.96860  0.40020  0.56650  Biso   1.000  H
  H101     1.0000 0.96860  0.09980  0.06650  Biso   1.000  H
  H102     1.0000 0.53140  0.90020  0.56650  Biso   1.000  H
  H103     1.0000 0.46860  0.40020  0.93350  Biso   1.000  H
  H104     1.0000 0.03140  0.59980  0.43350  Biso   1.000  H
  C113     1.0000 0.96957  0.78830  0.86324  Biso   1.000  C
  C114     1.0000 0.53043  0.21170  0.36324  Biso   1.000  C
  C115     1.0000 0.46957  0.71170  0.13676  Biso   1.000  C
  C116     1.0000 0.03043  0.28830  0.63676  Biso   1.000  C
  C117     1.0000 0.03043  0.21170  0.13676  Biso   1.000  C
  C118     1.0000 0.46957  0.78830  0.63676  Biso   1.000  C
  C119     1.0000 0.53043  0.28830  0.86324  Biso   1.000  C
  C120     1.0000 0.96957  0.71170  0.36324  Biso   1.000  C
  H105     1.0000 0.94310  0.73640  0.85800  Biso   1.000  H
  H106     1.0000 0.55690  0.26360  0.35800  Biso   1.000  H
  H107     1.0000 0.44310  0.76360  0.14200  Biso   1.000  H
  H108     1.0000 0.05690  0.23640  0.64200  Biso   1.000  H
  H109     1.0000 0.05690  0.26360  0.14200  Biso   1.000  H
  H110     1.0000 0.44310  0.73640  0.64200  Biso   1.000  H
  H111     1.0000 0.55690  0.23640  0.85800  Biso   1.000  H
  H112     1.0000 0.94310  0.76360  0.35800  Biso   1.000  H
  C121     1.0000 0.80004  0.02820  0.71824  Biso   1.000  C
  C122     1.0000 0.69996  0.97180  0.21824  Biso   1.000  C
  C123     1.0000 0.30004  0.47180  0.28176  Biso   1.000  C
  C124     1.0000 0.19996  0.52820  0.78176  Biso   1.000  C
  C125     1.0000 0.19996  0.97180  0.28176  Biso   1.000  C
  C126     1.0000 0.30004  0.02820  0.78176  Biso   1.000  C
  C127     1.0000 0.69996  0.52820  0.71824  Biso   1.000  C
  C128     1.0000 0.80004  0.47180  0.21824  Biso   1.000  C
  H113     1.0000 0.81970  0.96110  0.71320  Biso   1.000  H
  H114     1.0000 0.68030  0.03890  0.21320  Biso   1.000  H
  H115     1.0000 0.31970  0.53890  0.28680  Biso   1.000  H
  H116     1.0000 0.18030  0.46110  0.78680  Biso   1.000  H
  H117     1.0000 0.18030  0.03890  0.28680  Biso   1.000  H
  H118     1.0000 0.31970  0.96110  0.78680  Biso   1.000  H
  H119     1.0000 0.68030  0.46110  0.71320  Biso   1.000  H
  H120     1.0000 0.81970  0.53890  0.21320  Biso   1.000  H
  H121     1.0000 0.76640  0.02360  0.70560  Biso   1.000  H
  H122     1.0000 0.73360  0.97640  0.20560  Biso   1.000  H
  H123     1.0000 0.26640  0.47640  0.29440  Biso   1.000  H
  H124     1.0000 0.23360  0.52360  0.79440  Biso   1.000  H
  H125     1.0000 0.23360  0.97640  0.29440  Biso   1.000  H
  H126     1.0000 0.26640  0.02360  0.79440  Biso   1.000  H
  H127     1.0000 0.73360  0.52360  0.70560  Biso   1.000  H
  H128     1.0000 0.76640  0.47640  0.20560  Biso   1.000  H
  H129     1.0000 0.79490  0.03640  0.74570  Biso   1.000  H
  H130     1.0000 0.70510  0.96360  0.24570  Biso   1.000  H
  H131     1.0000 0.29490  0.46360  0.25430  Biso   1.000  H
  H132     1.0000 0.20510  0.53640  0.75430  Biso   1.000  H
  H133     1.0000 0.20510  0.96360  0.25430  Biso   1.000  H
  H134     1.0000 0.29490  0.03640  0.75430  Biso   1.000  H
  H135     1.0000 0.70510  0.53640  0.74570  Biso   1.000  H
  H136     1.0000 0.79490  0.46360  0.24570  Biso   1.000  H
  C129     1.0000 0.98854  0.07320  0.78530  Biso   1.000  C
  C130     1.0000 0.51146  0.92680  0.28530  Biso   1.000  C
  C131     1.0000 0.48854  0.42680  0.21470  Biso   1.000  C
  C132     1.0000 0.01146  0.57320  0.71470  Biso   1.000  C
  C133     1.0000 0.01146  0.92680  0.21470  Biso   1.000  C
  C134     1.0000 0.48854  0.07320  0.71470  Biso   1.000  C
  C135     1.0000 0.51146  0.57320  0.78530  Biso   1.000  C
  C136     1.0000 0.98854  0.42680  0.28530  Biso   1.000  C
  H137     1.0000 0.97120  0.06350  0.81010  Biso   1.000  H
  H138     1.0000 0.52880  0.93650  0.31010  Biso   1.000  H
  H139     1.0000 0.47120  0.43650  0.18990  Biso   1.000  H
  H140     1.0000 0.02880  0.56350  0.68990  Biso   1.000  H
  H141     1.0000 0.02880  0.93650  0.18990  Biso   1.000  H
  H142     1.0000 0.47120  0.06350  0.68990  Biso   1.000  H
  H143     1.0000 0.52880  0.56350  0.81010  Biso   1.000  H
  H144     1.0000 0.97120  0.43650  0.31010  Biso   1.000  H
  H145     1.0000 0.01370  0.13370  0.78820  Biso   1.000  H
  H146     1.0000 0.48630  0.86630  0.28820  Biso   1.000  H
  H147     1.0000 0.51370  0.36630  0.21180  Biso   1.000  H
  H148     1.0000 0.98630  0.63370  0.71180  Biso   1.000  H
  H149     1.0000 0.98630  0.86630  0.21180  Biso   1.000  H
  H150     1.0000 0.51370  0.13370  0.71180  Biso   1.000  H
  H151     1.0000 0.48630  0.63370  0.78820  Biso   1.000  H
  H152     1.0000 0.01370  0.36630  0.28820  Biso   1.000  H
  C137     1.0000 0.00183  0.96320  0.67131  Biso   1.000  C
  C138     1.0000 0.49817  0.03680  0.17131  Biso   1.000  C
  C139     1.0000 0.50183  0.53680  0.32869  Biso   1.000  C
  C140     1.0000 0.99817  0.46320  0.82869  Biso   1.000  C
  C141     1.0000 0.99817  0.03680  0.32869  Biso   1.000  C
  C142     1.0000 0.50183  0.96320  0.82869  Biso   1.000  C
  C143     1.0000 0.49817  0.46320  0.67131  Biso   1.000  C
  C144     1.0000 0.00183  0.53680  0.17131  Biso   1.000  C
  H153     1.0000 0.02630  0.01490  0.66220  Biso   1.000  H
  H154     1.0000 0.47370  0.98510  0.16220  Biso   1.000  H
  H155     1.0000 0.52630  0.48510  0.33780  Biso   1.000  H
  H156     1.0000 0.97370  0.51490  0.83780  Biso   1.000  H
  H157     1.0000 0.97370  0.98510  0.33780  Biso   1.000  H
  H158     1.0000 0.52630  0.01490  0.83780  Biso   1.000  H
  H159     1.0000 0.47370  0.51490  0.66220  Biso   1.000  H
  H160     1.0000 0.02630  0.48510  0.16220  Biso   1.000  H
  C145     1.0000 0.80036  0.23130  0.71146  Biso   1.000  C
  C146     1.0000 0.69964  0.76870  0.21146  Biso   1.000  C
  C147     1.0000 0.30036  0.26870  0.28854  Biso   1.000  C
  C148     1.0000 0.19964  0.73130  0.78854  Biso   1.000  C
  C149     1.0000 0.19964  0.76870  0.28854  Biso   1.000  C
  C150     1.0000 0.30036  0.23130  0.78854  Biso   1.000  C
  C151     1.0000 0.69964  0.73130  0.71146  Biso   1.000  C
  C152     1.0000 0.80036  0.26870  0.21146  Biso   1.000  C
  H161     1.0000 0.82080  0.29390  0.70270  Biso   1.000  H
  H162     1.0000 0.67920  0.70610  0.20270  Biso   1.000  H
  H163     1.0000 0.32080  0.20610  0.29730  Biso   1.000  H
  H164     1.0000 0.17920  0.79390  0.79730  Biso   1.000  H
  H165     1.0000 0.17920  0.70610  0.29730  Biso   1.000  H
  H166     1.0000 0.32080  0.29390  0.79730  Biso   1.000  H
  H167     1.0000 0.67920  0.79390  0.70270  Biso   1.000  H
  H168     1.0000 0.82080  0.20610  0.20270  Biso   1.000  H
  H169     1.0000 0.79440  0.23760  0.73890  Biso   1.000  H
  H170     1.0000 0.70560  0.76240  0.23890  Biso   1.000  H
  H171     1.0000 0.29440  0.26240  0.26110  Biso   1.000  H
  H172     1.0000 0.20560  0.73760  0.76110  Biso   1.000  H
  H173     1.0000 0.20560  0.76240  0.26110  Biso   1.000  H
  H174     1.0000 0.29440  0.23760  0.76110  Biso   1.000  H
  H175     1.0000 0.70560  0.73760  0.73890  Biso   1.000  H
  H176     1.0000 0.79440  0.26240  0.23890  Biso   1.000  H
  H177     1.0000 0.76720  0.23050  0.69810  Biso   1.000  H
  H178     1.0000 0.73280  0.76950  0.19810  Biso   1.000  H
  H179     1.0000 0.26720  0.26950  0.30190  Biso   1.000  H
  H180     1.0000 0.23280  0.73050  0.80190  Biso   1.000  H
  H181     1.0000 0.23280  0.76950  0.30190  Biso   1.000  H
  H182     1.0000 0.26720  0.23050  0.80190  Biso   1.000  H
  H183     1.0000 0.73280  0.73050  0.69810  Biso   1.000  H
  H184     1.0000 0.76720  0.26950  0.19810  Biso   1.000  H
  C153     1.0000 0.93127  0.81760  0.69904  Biso   1.000  C
  C154     1.0000 0.56873  0.18240  0.19904  Biso   1.000  C
  C155     1.0000 0.43127  0.68240  0.30096  Biso   1.000  C
  C156     1.0000 0.06873  0.31760  0.80096  Biso   1.000  C
  C157     1.0000 0.06873  0.18240  0.30096  Biso   1.000  C
  C158     1.0000 0.43127  0.81760  0.80096  Biso   1.000  C
  C159     1.0000 0.56873  0.31760  0.69904  Biso   1.000  C
  C160     1.0000 0.93127  0.68240  0.19904  Biso   1.000  C
  H185     1.0000 0.90630  0.76810  0.70880  Biso   1.000  H
  H186     1.0000 0.59370  0.23190  0.20880  Biso   1.000  H
  H187     1.0000 0.40630  0.73190  0.29120  Biso   1.000  H
  H188     1.0000 0.09370  0.26810  0.79120  Biso   1.000  H
  H189     1.0000 0.09370  0.23190  0.29120  Biso   1.000  H
  H190     1.0000 0.40630  0.76810  0.79120  Biso   1.000  H
  H191     1.0000 0.59370  0.26810  0.70880  Biso   1.000  H
  H192     1.0000 0.90630  0.73190  0.20880  Biso   1.000  H
  C161     1.0000 0.84004  0.11640  0.66082  Biso   1.000  C
  C162     1.0000 0.65996  0.88360  0.16082  Biso   1.000  C
  C163     1.0000 0.34004  0.38360  0.33918  Biso   1.000  C
  C164     1.0000 0.15996  0.61640  0.83918  Biso   1.000  C
  C165     1.0000 0.15996  0.88360  0.33918  Biso   1.000  C
  C166     1.0000 0.34004  0.11640  0.83918  Biso   1.000  C
  C167     1.0000 0.65996  0.61640  0.66082  Biso   1.000  C
  C168     1.0000 0.84004  0.38360  0.16082  Biso   1.000  C
  H193     1.0000 0.86200  0.05240  0.65610  Biso   1.000  H
  H194     1.0000 0.63800  0.94760  0.15610  Biso   1.000  H
  H195     1.0000 0.36200  0.44760  0.34390  Biso   1.000  H
  H196     1.0000 0.13800  0.55240  0.84390  Biso   1.000  H
  H197     1.0000 0.13800  0.94760  0.34390  Biso   1.000  H
  H198     1.0000 0.36200  0.05240  0.84390  Biso   1.000  H
  H199     1.0000 0.63800  0.55240  0.65610  Biso   1.000  H
  H200     1.0000 0.86200  0.44760  0.15610  Biso   1.000  H
  H201     1.0000 0.85760  0.18290  0.65200  Biso   1.000  H
  H202     1.0000 0.64240  0.81710  0.15200  Biso   1.000  H
  H203     1.0000 0.35760  0.31710  0.34800  Biso   1.000  H
  H204     1.0000 0.14240  0.68290  0.84800  Biso   1.000  H
  H205     1.0000 0.14240  0.81710  0.34800  Biso   1.000  H
  H206     1.0000 0.35760  0.18290  0.84800  Biso   1.000  H
  H207     1.0000 0.64240  0.68290  0.65200  Biso   1.000  H
  H208     1.0000 0.85760  0.31710  0.15200  Biso   1.000  H
  H209     1.0000 0.80740  0.10790  0.64710  Biso   1.000  H
  H210     1.0000 0.69260  0.89210  0.14710  Biso   1.000  H
  H211     1.0000 0.30740  0.39210  0.35290  Biso   1.000  H
  H212     1.0000 0.19260  0.60790  0.85290  Biso   1.000  H
  H213     1.0000 0.19260  0.89210  0.35290  Biso   1.000  H
  H214     1.0000 0.30740  0.10790  0.85290  Biso   1.000  H
  H215     1.0000 0.69260  0.60790  0.64710  Biso   1.000  H
  H216     1.0000 0.80740  0.39210  0.14710  Biso   1.000  H
  Cu9      1.0000 0.79020  0.02090  0.97942  Biso   1.000  Cu
  Cu10     1.0000 0.70980  0.97910  0.47942  Biso   1.000  Cu
  Cu11     1.0000 0.29020  0.47910  0.02058  Biso   1.000  Cu
  Cu12     1.0000 0.20980  0.52090  0.52058  Biso   1.000  Cu
  Cu13     1.0000 0.20980  0.97910  0.02058  Biso   1.000  Cu
  Cu14     1.0000 0.29020  0.02090  0.52058  Biso   1.000  Cu
  Cu15     1.0000 0.70980  0.52090  0.97942  Biso   1.000  Cu
  Cu16     1.0000 0.79020  0.47910  0.47942  Biso   1.000  Cu
  O17      1.0000 0.84203  0.92234  0.99912  Biso   1.000  O
  O18      1.0000 0.65797  0.07766  0.49912  Biso   1.000  O
  O19      1.0000 0.34203  0.57766  0.00088  Biso   1.000  O
  O20      1.0000 0.15797  0.42234  0.50088  Biso   1.000  O
  O21      1.0000 0.15797  0.07766  0.00088  Biso   1.000  O
  O22      1.0000 0.34203  0.92234  0.50088  Biso   1.000  O
  O23      1.0000 0.65797  0.42234  0.99912  Biso   1.000  O
  O24      1.0000 0.84203  0.57766  0.49912  Biso   1.000  O
  N49      1.0000 0.79831  0.97810  0.92479  Biso   1.000  N
  N50      1.0000 0.70169  0.02190  0.42479  Biso   1.000  N
  N51      1.0000 0.29831  0.52190  0.07521  Biso   1.000  N
  N52      1.0000 0.20169  0.47810  0.57521  Biso   1.000  N
  N53      1.0000 0.20169  0.02190  0.07521  Biso   1.000  N
  N54      1.0000 0.29831  0.97810  0.57521  Biso   1.000  N
  N55      1.0000 0.70169  0.47810  0.92479  Biso   1.000  N
  N56      1.0000 0.79831  0.52190  0.42479  Biso   1.000  N
  N57      1.0000 0.86094  0.37110  0.00795  Biso   1.000  N
  N58      1.0000 0.63906  0.62890  0.50795  Biso   1.000  N
  N59      1.0000 0.36094  0.12890  0.99205  Biso   1.000  N
  N60      1.0000 0.13906  0.87110  0.49205  Biso   1.000  N
  N61      1.0000 0.13906  0.62890  0.99205  Biso   1.000  N
  N62      1.0000 0.36094  0.37110  0.49205  Biso   1.000  N
  N63      1.0000 0.63906  0.87110  0.00795  Biso   1.000  N
  N64      1.0000 0.86094  0.12890  0.50795  Biso   1.000  N
  N65      1.0000 0.74579  0.14200  0.95545  Biso   1.000  N
  N66      1.0000 0.75421  0.85800  0.45545  Biso   1.000  N
  N67      1.0000 0.24579  0.35800  0.04455  Biso   1.000  N
  N68      1.0000 0.25421  0.64200  0.54455  Biso   1.000  N
  N69      1.0000 0.25421  0.85800  0.04455  Biso   1.000  N
  N70      1.0000 0.24579  0.14200  0.54455  Biso   1.000  N
  N71      1.0000 0.75421  0.64200  0.95545  Biso   1.000  N
  N72      1.0000 0.74579  0.35800  0.45545  Biso   1.000  N
  N73      1.0000 0.78452  0.39460  0.98561  Biso   1.000  N
  N74      1.0000 0.71548  0.60540  0.48561  Biso   1.000  N
  N75      1.0000 0.28452  0.10540  0.01439  Biso   1.000  N
  N76      1.0000 0.21548  0.89460  0.51439  Biso   1.000  N
  N77      1.0000 0.21548  0.60540  0.01439  Biso   1.000  N
  N78      1.0000 0.28452  0.39460  0.51439  Biso   1.000  N
  N79      1.0000 0.71548  0.89460  0.98561  Biso   1.000  N
  N80      1.0000 0.78452  0.10540  0.48561  Biso   1.000  N
  O25      1.0000 0.90124  0.05210  0.99498  Biso   1.000  O
  O26      1.0000 0.59876  0.94790  0.49498  Biso   1.000  O
  O27      1.0000 0.40124  0.44790  0.00502  Biso   1.000  O
  O28      1.0000 0.09876  0.55210  0.50502  Biso   1.000  O
  O29      1.0000 0.09876  0.94790  0.00502  Biso   1.000  O
  O30      1.0000 0.40124  0.05210  0.50502  Biso   1.000  O
  O31      1.0000 0.59876  0.55210  0.99498  Biso   1.000  O
  O32      1.0000 0.90124  0.44790  0.49498  Biso   1.000  O
  N81      1.0000 0.81934  0.43630  0.00901  Biso   1.000  N
  N82      1.0000 0.68066  0.56370  0.50901  Biso   1.000  N
  N83      1.0000 0.31934  0.06370  0.99099  Biso   1.000  N
  N84      1.0000 0.18066  0.93630  0.49099  Biso   1.000  N
  N85      1.0000 0.18066  0.56370  0.99099  Biso   1.000  N
  N86      1.0000 0.31934  0.43630  0.49099  Biso   1.000  N
  N87      1.0000 0.68066  0.93630  0.00901  Biso   1.000  N
  N88      1.0000 0.81934  0.06370  0.50901  Biso   1.000  N
  N89      1.0000 0.77058  0.09330  0.02734  Biso   1.000  N
  N90      1.0000 0.72942  0.90670  0.52734  Biso   1.000  N
  N91      1.0000 0.27058  0.40670  0.97266  Biso   1.000  N
  N92      1.0000 0.22942  0.59330  0.47266  Biso   1.000  N
  N93      1.0000 0.22942  0.90670  0.97266  Biso   1.000  N
  N94      1.0000 0.27058  0.09330  0.47266  Biso   1.000  N
  N95      1.0000 0.72942  0.59330  0.02734  Biso   1.000  N
  N96      1.0000 0.77058  0.40670  0.52734  Biso   1.000  N
  C169     1.0000 0.80447  0.30180  0.97009  Biso   1.000  C
  C170     1.0000 0.69553  0.69820  0.47009  Biso   1.000  C
  C171     1.0000 0.30447  0.19820  0.02991  Biso   1.000  C
  C172     1.0000 0.19553  0.80180  0.52991  Biso   1.000  C
  C173     1.0000 0.19553  0.69820  0.02991  Biso   1.000  C
  C174     1.0000 0.30447  0.30180  0.52991  Biso   1.000  C
  C175     1.0000 0.69553  0.80180  0.97009  Biso   1.000  C
  C176     1.0000 0.80447  0.19820  0.47009  Biso   1.000  C
  C177     1.0000 0.76020  0.01780  0.90255  Biso   1.000  C
  C178     1.0000 0.73980  0.98220  0.40255  Biso   1.000  C
  C179     1.0000 0.26020  0.48220  0.09745  Biso   1.000  C
  C180     1.0000 0.23980  0.51780  0.59745  Biso   1.000  C
  C181     1.0000 0.23980  0.98220  0.09745  Biso   1.000  C
  C182     1.0000 0.26020  0.01780  0.59745  Biso   1.000  C
  C183     1.0000 0.73980  0.51780  0.90255  Biso   1.000  C
  C184     1.0000 0.76020  0.48220  0.40255  Biso   1.000  C
  C185     1.0000 0.75744  0.99270  0.86446  Biso   1.000  C
  C186     1.0000 0.74256  0.00730  0.36446  Biso   1.000  C
  C187     1.0000 0.25744  0.50730  0.13554  Biso   1.000  C
  C188     1.0000 0.24256  0.49270  0.63554  Biso   1.000  C
  C189     1.0000 0.24256  0.00730  0.13554  Biso   1.000  C
  C190     1.0000 0.25744  0.99270  0.63554  Biso   1.000  C
  C191     1.0000 0.74256  0.49270  0.86446  Biso   1.000  C
  C192     1.0000 0.75744  0.50730  0.36446  Biso   1.000  C
  H217     1.0000 0.73030  0.02120  0.84930  Biso   1.000  H
  H218     1.0000 0.76970  0.97880  0.34930  Biso   1.000  H
  H219     1.0000 0.23030  0.47880  0.15070  Biso   1.000  H
  H220     1.0000 0.26970  0.52120  0.65070  Biso   1.000  H
  H221     1.0000 0.26970  0.97880  0.15070  Biso   1.000  H
  H222     1.0000 0.23030  0.02120  0.65070  Biso   1.000  H
  H223     1.0000 0.76970  0.52120  0.84930  Biso   1.000  H
  H224     1.0000 0.73030  0.47880  0.34930  Biso   1.000  H
  C193     1.0000 0.85304  0.28550  0.98419  Biso   1.000  C
  C194     1.0000 0.64696  0.71450  0.48419  Biso   1.000  C
  C195     1.0000 0.35304  0.21450  0.01581  Biso   1.000  C
  C196     1.0000 0.14696  0.78550  0.51581  Biso   1.000  C
  C197     1.0000 0.14696  0.71450  0.01581  Biso   1.000  C
  C198     1.0000 0.35304  0.28550  0.51581  Biso   1.000  C
  C199     1.0000 0.64696  0.78550  0.98419  Biso   1.000  C
  C200     1.0000 0.85304  0.21450  0.48419  Biso   1.000  C
  H225     1.0000 0.87610  0.22710  0.97860  Biso   1.000  H
  H226     1.0000 0.62390  0.77290  0.47860  Biso   1.000  H
  H227     1.0000 0.37610  0.27290  0.02140  Biso   1.000  H
  H228     1.0000 0.12390  0.72710  0.52140  Biso   1.000  H
  H229     1.0000 0.12390  0.77290  0.02140  Biso   1.000  H
  H230     1.0000 0.37610  0.22710  0.52140  Biso   1.000  H
  H231     1.0000 0.62390  0.72710  0.97860  Biso   1.000  H
  H232     1.0000 0.87610  0.27290  0.47860  Biso   1.000  H
  C201     1.0000 0.70866  0.17870  0.98492  Biso   1.000  C
  C202     1.0000 0.79134  0.82130  0.48492  Biso   1.000  C
  C203     1.0000 0.20866  0.32130  0.01508  Biso   1.000  C
  C204     1.0000 0.29134  0.67870  0.51508  Biso   1.000  C
  C205     1.0000 0.29134  0.82130  0.01508  Biso   1.000  C
  C206     1.0000 0.20866  0.17870  0.51508  Biso   1.000  C
  C207     1.0000 0.79134  0.67870  0.98492  Biso   1.000  C
  C208     1.0000 0.70866  0.32130  0.48492  Biso   1.000  C
  H233     1.0000 0.67690  0.13400  0.98340  Biso   1.000  H
  H234     1.0000 0.82310  0.86600  0.48340  Biso   1.000  H
  H235     1.0000 0.17690  0.36600  0.01660  Biso   1.000  H
  H236     1.0000 0.32310  0.63400  0.51660  Biso   1.000  H
  H237     1.0000 0.32310  0.86600  0.01660  Biso   1.000  H
  H238     1.0000 0.17690  0.13400  0.51660  Biso   1.000  H
  H239     1.0000 0.82310  0.63400  0.98340  Biso   1.000  H
  H240     1.0000 0.67690  0.36600  0.48340  Biso   1.000  H
  H241     1.0000 0.69920  0.25630  0.98040  Biso   1.000  H
  H242     1.0000 0.80080  0.74370  0.48040  Biso   1.000  H
  H243     1.0000 0.19920  0.24370  0.01960  Biso   1.000  H
  H244     1.0000 0.30080  0.75630  0.51960  Biso   1.000  H
  H245     1.0000 0.30080  0.74370  0.01960  Biso   1.000  H
  H246     1.0000 0.19920  0.25630  0.51960  Biso   1.000  H
  H247     1.0000 0.80080  0.75630  0.98040  Biso   1.000  H
  H248     1.0000 0.69920  0.24370  0.48040  Biso   1.000  H
  C209     1.0000 0.88819  0.95850  0.00230  Biso   1.000  C
  C210     1.0000 0.61181  0.04150  0.50230  Biso   1.000  C
  C211     1.0000 0.38819  0.54150  0.99770  Biso   1.000  C
  C212     1.0000 0.11181  0.45850  0.49770  Biso   1.000  C
  C213     1.0000 0.11181  0.04150  0.99770  Biso   1.000  C
  C214     1.0000 0.38819  0.95850  0.49770  Biso   1.000  C
  C215     1.0000 0.61181  0.45850  0.00230  Biso   1.000  C
  C216     1.0000 0.88819  0.54150  0.50230  Biso   1.000  C
  C217     1.0000 0.83452  0.91290  0.90940  Biso   1.000  C
  C218     1.0000 0.66548  0.08710  0.40940  Biso   1.000  C
  C219     1.0000 0.33452  0.58710  0.09060  Biso   1.000  C
  C220     1.0000 0.16548  0.41290  0.59060  Biso   1.000  C
  C221     1.0000 0.16548  0.08710  0.09060  Biso   1.000  C
  C222     1.0000 0.33452  0.91290  0.59060  Biso   1.000  C
  C223     1.0000 0.66548  0.41290  0.90940  Biso   1.000  C
  C224     1.0000 0.83452  0.58710  0.40940  Biso   1.000  C
  H249     1.0000 0.86150  0.88570  0.92510  Biso   1.000  H
  H250     1.0000 0.63850  0.11430  0.42510  Biso   1.000  H
  H251     1.0000 0.36150  0.61430  0.07490  Biso   1.000  H
  H252     1.0000 0.13850  0.38570  0.57490  Biso   1.000  H
  H253     1.0000 0.13850  0.11430  0.07490  Biso   1.000  H
  H254     1.0000 0.36150  0.88570  0.57490  Biso   1.000  H
  H255     1.0000 0.63850  0.38570  0.92510  Biso   1.000  H
  H256     1.0000 0.86150  0.61430  0.42510  Biso   1.000  H
  C225     1.0000 0.72058  0.08680  0.92278  Biso   1.000  C
  C226     1.0000 0.77942  0.91320  0.42278  Biso   1.000  C
  C227     1.0000 0.22058  0.41320  0.07722  Biso   1.000  C
  C228     1.0000 0.27942  0.58680  0.57722  Biso   1.000  C
  C229     1.0000 0.27942  0.91320  0.07722  Biso   1.000  C
  C230     1.0000 0.22058  0.08680  0.57722  Biso   1.000  C
  C231     1.0000 0.77942  0.58680  0.92278  Biso   1.000  C
  C232     1.0000 0.72058  0.41320  0.42278  Biso   1.000  C
  H257     1.0000 0.70620  0.14230  0.90520  Biso   1.000  H
  H258     1.0000 0.79380  0.85770  0.40520  Biso   1.000  H
  H259     1.0000 0.20620  0.35770  0.09480  Biso   1.000  H
  H260     1.0000 0.29380  0.64230  0.59480  Biso   1.000  H
  H261     1.0000 0.29380  0.85770  0.09480  Biso   1.000  H
  H262     1.0000 0.20620  0.14230  0.59480  Biso   1.000  H
  H263     1.0000 0.79380  0.64230  0.90520  Biso   1.000  H
  H264     1.0000 0.70620  0.35770  0.40520  Biso   1.000  H
  H265     1.0000 0.69190  0.04000  0.93190  Biso   1.000  H
  H266     1.0000 0.80810  0.96000  0.43190  Biso   1.000  H
  H267     1.0000 0.19190  0.46000  0.06810  Biso   1.000  H
  H268     1.0000 0.30810  0.54000  0.56810  Biso   1.000  H
  H269     1.0000 0.30810  0.96000  0.06810  Biso   1.000  H
  H270     1.0000 0.19190  0.04000  0.56810  Biso   1.000  H
  H271     1.0000 0.80810  0.54000  0.93190  Biso   1.000  H
  H272     1.0000 0.69190  0.46000  0.43190  Biso   1.000  H
  C233     1.0000 0.71386  0.22560  0.05474  Biso   1.000  C
  C234     1.0000 0.78614  0.77440  0.55474  Biso   1.000  C
  C235     1.0000 0.21386  0.27440  0.94526  Biso   1.000  C
  C236     1.0000 0.28614  0.72560  0.44526  Biso   1.000  C
  C237     1.0000 0.28614  0.77440  0.94526  Biso   1.000  C
  C238     1.0000 0.21386  0.22560  0.44526  Biso   1.000  C
  C239     1.0000 0.78614  0.72560  0.05474  Biso   1.000  C
  C240     1.0000 0.71386  0.27440  0.55474  Biso   1.000  C
  H273     1.0000 0.68750  0.27910  0.05170  Biso   1.000  H
  H274     1.0000 0.81250  0.72090  0.55170  Biso   1.000  H
  H275     1.0000 0.18750  0.22090  0.94830  Biso   1.000  H
  H276     1.0000 0.31250  0.77910  0.44830  Biso   1.000  H
  H277     1.0000 0.31250  0.72090  0.94830  Biso   1.000  H
  H278     1.0000 0.18750  0.27910  0.44830  Biso   1.000  H
  H279     1.0000 0.81250  0.77910  0.05170  Biso   1.000  H
  H280     1.0000 0.68750  0.22090  0.55170  Biso   1.000  H
  C241     1.0000 0.90751  0.39700  0.03157  Biso   1.000  C
  C242     1.0000 0.59249  0.60300  0.53157  Biso   1.000  C
  C243     1.0000 0.40751  0.10300  0.96843  Biso   1.000  C
  C244     1.0000 0.09249  0.89700  0.46843  Biso   1.000  C
  C245     1.0000 0.09249  0.60300  0.96843  Biso   1.000  C
  C246     1.0000 0.40751  0.39700  0.46843  Biso   1.000  C
  C247     1.0000 0.59249  0.89700  0.03157  Biso   1.000  C
  C248     1.0000 0.90751  0.10300  0.53157  Biso   1.000  C
  C249     1.0000 0.79477  0.92520  0.84851  Biso   1.000  C
  C250     1.0000 0.70523  0.07480  0.34851  Biso   1.000  C
  C251     1.0000 0.29477  0.57480  0.15149  Biso   1.000  C
  C252     1.0000 0.20523  0.42520  0.65149  Biso   1.000  C
  C253     1.0000 0.20523  0.07480  0.15149  Biso   1.000  C
  C254     1.0000 0.29477  0.92520  0.65149  Biso   1.000  C
  C255     1.0000 0.70523  0.42520  0.84851  Biso   1.000  C
  C256     1.0000 0.79477  0.57480  0.34851  Biso   1.000  C
  H281     1.0000 0.79370  0.90730  0.82230  Biso   1.000  H
  H282     1.0000 0.70630  0.09270  0.32230  Biso   1.000  H
  H283     1.0000 0.29370  0.59270  0.17770  Biso   1.000  H
  H284     1.0000 0.20630  0.40730  0.67770  Biso   1.000  H
  H285     1.0000 0.20630  0.09270  0.17770  Biso   1.000  H
  H286     1.0000 0.29370  0.90730  0.67770  Biso   1.000  H
  H287     1.0000 0.70630  0.40730  0.82230  Biso   1.000  H
  H288     1.0000 0.79370  0.59270  0.32230  Biso   1.000  H
  C257     1.0000 0.95388  0.34060  0.01385  Biso   1.000  C
  C258     1.0000 0.54612  0.65940  0.51385  Biso   1.000  C
  C259     1.0000 0.45388  0.15940  0.98615  Biso   1.000  C
  C260     1.0000 0.04612  0.84060  0.48615  Biso   1.000  C
  C261     1.0000 0.04612  0.65940  0.98615  Biso   1.000  C
  C262     1.0000 0.45388  0.34060  0.48615  Biso   1.000  C
  C263     1.0000 0.54612  0.84060  0.01385  Biso   1.000  C
  C264     1.0000 0.95388  0.15940  0.51385  Biso   1.000  C
  H289     1.0000 0.94930  0.26090  0.01510  Biso   1.000  H
  H290     1.0000 0.55070  0.73910  0.51510  Biso   1.000  H
  H291     1.0000 0.44930  0.23910  0.98490  Biso   1.000  H
  H292     1.0000 0.05070  0.76090  0.48490  Biso   1.000  H
  H293     1.0000 0.05070  0.73910  0.98490  Biso   1.000  H
  H294     1.0000 0.44930  0.26090  0.48490  Biso   1.000  H
  H295     1.0000 0.55070  0.76090  0.01510  Biso   1.000  H
  H296     1.0000 0.94930  0.23910  0.51510  Biso   1.000  H
  H297     1.0000 0.98520  0.36130  0.02770  Biso   1.000  H
  H298     1.0000 0.51480  0.63870  0.52770  Biso   1.000  H
  H299     1.0000 0.48520  0.13870  0.97230  Biso   1.000  H
  H300     1.0000 0.01480  0.86130  0.47230  Biso   1.000  H
  H301     1.0000 0.01480  0.63870  0.97230  Biso   1.000  H
  H302     1.0000 0.48520  0.36130  0.47230  Biso   1.000  H
  H303     1.0000 0.51480  0.86130  0.02770  Biso   1.000  H
  H304     1.0000 0.98520  0.13870  0.52770  Biso   1.000  H
  H305     1.0000 0.95710  0.36330  0.98730  Biso   1.000  H
  H306     1.0000 0.54290  0.63670  0.48730  Biso   1.000  H
  H307     1.0000 0.45710  0.13670  0.01270  Biso   1.000  H
  H308     1.0000 0.04290  0.86330  0.51270  Biso   1.000  H
  H309     1.0000 0.04290  0.63670  0.01270  Biso   1.000  H
  H310     1.0000 0.45710  0.36330  0.51270  Biso   1.000  H
  H311     1.0000 0.54290  0.86330  0.98730  Biso   1.000  H
  H312     1.0000 0.95710  0.13670  0.48730  Biso   1.000  H
  C265     1.0000 0.79076  0.07310  0.06179  Biso   1.000  C
  C266     1.0000 0.70924  0.92690  0.56179  Biso   1.000  C
  C267     1.0000 0.29076  0.42690  0.93821  Biso   1.000  C
  C268     1.0000 0.20924  0.57310  0.43821  Biso   1.000  C
  C269     1.0000 0.20924  0.92690  0.93821  Biso   1.000  C
  C270     1.0000 0.29076  0.07310  0.43821  Biso   1.000  C
  C271     1.0000 0.70924  0.57310  0.06179  Biso   1.000  C
  C272     1.0000 0.79076  0.42690  0.56179  Biso   1.000  C
  H313     1.0000 0.81750  0.02030  0.06420  Biso   1.000  H
  H314     1.0000 0.68250  0.97970  0.56420  Biso   1.000  H
  H315     1.0000 0.31750  0.47970  0.93580  Biso   1.000  H
  H316     1.0000 0.18250  0.52030  0.43580  Biso   1.000  H
  H317     1.0000 0.18250  0.97970  0.93580  Biso   1.000  H
  H318     1.0000 0.31750  0.02030  0.43580  Biso   1.000  H
  H319     1.0000 0.68250  0.52030  0.06420  Biso   1.000  H
  H320     1.0000 0.81750  0.47970  0.56420  Biso   1.000  H
  C273     1.0000 0.77721  0.23600  0.94041  Biso   1.000  C
  C274     1.0000 0.72279  0.76400  0.44041  Biso   1.000  C
  C275     1.0000 0.27721  0.26400  0.05959  Biso   1.000  C
  C276     1.0000 0.22279  0.73600  0.55959  Biso   1.000  C
  C277     1.0000 0.22279  0.76400  0.05959  Biso   1.000  C
  C278     1.0000 0.27721  0.23600  0.55959  Biso   1.000  C
  C279     1.0000 0.72279  0.73600  0.94041  Biso   1.000  C
  C280     1.0000 0.77721  0.26400  0.44041  Biso   1.000  C
  H321     1.0000 0.80320  0.20680  0.92250  Biso   1.000  H
  H322     1.0000 0.69680  0.79320  0.42250  Biso   1.000  H
  H323     1.0000 0.30320  0.29320  0.07750  Biso   1.000  H
  H324     1.0000 0.19680  0.70680  0.57750  Biso   1.000  H
  H325     1.0000 0.19680  0.79320  0.07750  Biso   1.000  H
  H326     1.0000 0.30320  0.20680  0.57750  Biso   1.000  H
  H327     1.0000 0.69680  0.70680  0.92250  Biso   1.000  H
  H328     1.0000 0.80320  0.29320  0.42250  Biso   1.000  H
  H329     1.0000 0.75410  0.28550  0.92600  Biso   1.000  H
  H330     1.0000 0.74590  0.71450  0.42600  Biso   1.000  H
  H331     1.0000 0.25410  0.21450  0.07400  Biso   1.000  H
  H332     1.0000 0.24590  0.78550  0.57400  Biso   1.000  H
  H333     1.0000 0.24590  0.71450  0.07400  Biso   1.000  H
  H334     1.0000 0.25410  0.28550  0.57400  Biso   1.000  H
  H335     1.0000 0.74590  0.78550  0.92600  Biso   1.000  H
  H336     1.0000 0.75410  0.21450  0.42600  Biso   1.000  H
  C281     1.0000 0.83364  0.88440  0.87152  Biso   1.000  C
  C282     1.0000 0.66636  0.11560  0.37152  Biso   1.000  C
  C283     1.0000 0.33364  0.61560  0.12848  Biso   1.000  C
  C284     1.0000 0.16636  0.38440  0.62848  Biso   1.000  C
  C285     1.0000 0.16636  0.11560  0.12848  Biso   1.000  C
  C286     1.0000 0.33364  0.88440  0.62848  Biso   1.000  C
  C287     1.0000 0.66636  0.38440  0.87152  Biso   1.000  C
  C288     1.0000 0.83364  0.61560  0.37152  Biso   1.000  C
  H337     1.0000 0.85940  0.83740  0.86130  Biso   1.000  H
  H338     1.0000 0.64060  0.16260  0.36130  Biso   1.000  H
  H339     1.0000 0.35940  0.66260  0.13870  Biso   1.000  H
  H340     1.0000 0.14060  0.33740  0.63870  Biso   1.000  H
  H341     1.0000 0.14060  0.16260  0.13870  Biso   1.000  H
  H342     1.0000 0.35940  0.83740  0.63870  Biso   1.000  H
  H343     1.0000 0.64060  0.33740  0.86130  Biso   1.000  H
  H344     1.0000 0.85940  0.66260  0.36130  Biso   1.000  H
  C289     1.0000 0.73229  0.16740  0.02387  Biso   1.000  C
  C290     1.0000 0.76771  0.83260  0.52387  Biso   1.000  C
  C291     1.0000 0.23229  0.33260  0.97613  Biso   1.000  C
  C292     1.0000 0.26771  0.66740  0.47613  Biso   1.000  C
  C293     1.0000 0.26771  0.83260  0.97613  Biso   1.000  C
  C294     1.0000 0.23229  0.16740  0.47613  Biso   1.000  C
  C295     1.0000 0.76771  0.66740  0.02387  Biso   1.000  C
  C296     1.0000 0.73229  0.33260  0.52387  Biso   1.000  C
  C297     1.0000 0.92744  0.87580  0.01673  Biso   1.000  C
  C298     1.0000 0.57256  0.12420  0.51673  Biso   1.000  C
  C299     1.0000 0.42744  0.62420  0.98327  Biso   1.000  C
  C300     1.0000 0.07256  0.37580  0.48327  Biso   1.000  C
  C301     1.0000 0.07256  0.12420  0.98327  Biso   1.000  C
  C302     1.0000 0.42744  0.87580  0.48327  Biso   1.000  C
  C303     1.0000 0.57256  0.37580  0.01673  Biso   1.000  C
  C304     1.0000 0.92744  0.62420  0.51673  Biso   1.000  C
  H345     1.0000 0.92370  0.80690  0.00270  Biso   1.000  H
  H346     1.0000 0.57630  0.19310  0.50270  Biso   1.000  H
  H347     1.0000 0.42370  0.69310  0.99730  Biso   1.000  H
  H348     1.0000 0.07630  0.30690  0.49730  Biso   1.000  H
  H349     1.0000 0.07630  0.19310  0.99730  Biso   1.000  H
  H350     1.0000 0.42370  0.80690  0.49730  Biso   1.000  H
  H351     1.0000 0.57630  0.30690  0.00270  Biso   1.000  H
  H352     1.0000 0.92370  0.69310  0.50270  Biso   1.000  H
  H353     1.0000 0.92160  0.86240  0.04380  Biso   1.000  H
  H354     1.0000 0.57840  0.13760  0.54380  Biso   1.000  H
  H355     1.0000 0.42160  0.63760  0.95620  Biso   1.000  H
  H356     1.0000 0.07840  0.36240  0.45620  Biso   1.000  H
  H357     1.0000 0.07840  0.13760  0.95620  Biso   1.000  H
  H358     1.0000 0.42160  0.86240  0.45620  Biso   1.000  H
  H359     1.0000 0.57840  0.36240  0.04380  Biso   1.000  H
  H360     1.0000 0.92160  0.63760  0.54380  Biso   1.000  H
  H361     1.0000 0.96230  0.90480  0.01300  Biso   1.000  H
  H362     1.0000 0.53770  0.09520  0.51300  Biso   1.000  H
  H363     1.0000 0.46230  0.59520  0.98700  Biso   1.000  H
  H364     1.0000 0.03770  0.40480  0.48700  Biso   1.000  H
  H365     1.0000 0.03770  0.09520  0.98700  Biso   1.000  H
  H366     1.0000 0.46230  0.90480  0.48700  Biso   1.000  H
  H367     1.0000 0.53770  0.40480  0.01300  Biso   1.000  H
  H368     1.0000 0.96230  0.59520  0.51300  Biso   1.000  H
  C305     1.0000 0.91530  0.52110  0.03128  Biso   1.000  C
  C306     1.0000 0.58470  0.47890  0.53128  Biso   1.000  C
  C307     1.0000 0.41530  0.97890  0.96872  Biso   1.000  C
  C308     1.0000 0.08470  0.02110  0.46872  Biso   1.000  C
  C309     1.0000 0.08470  0.47890  0.96872  Biso   1.000  C
  C310     1.0000 0.41530  0.52110  0.46872  Biso   1.000  C
  C311     1.0000 0.58470  0.02110  0.03128  Biso   1.000  C
  C312     1.0000 0.91530  0.97890  0.53128  Biso   1.000  C
  H369     1.0000 0.91870  0.54670  0.00500  Biso   1.000  H
  H370     1.0000 0.58130  0.45330  0.50500  Biso   1.000  H
  H371     1.0000 0.41870  0.95330  0.99500  Biso   1.000  H
  H372     1.0000 0.08130  0.04670  0.49500  Biso   1.000  H
  H373     1.0000 0.08130  0.45330  0.99500  Biso   1.000  H
  H374     1.0000 0.41870  0.54670  0.49500  Biso   1.000  H
  H375     1.0000 0.58130  0.04670  0.00500  Biso   1.000  H
  H376     1.0000 0.91870  0.95330  0.50500  Biso   1.000  H
  H377     1.0000 0.94670  0.53950  0.04540  Biso   1.000  H
  H378     1.0000 0.55330  0.46050  0.54540  Biso   1.000  H
  H379     1.0000 0.44670  0.96050  0.95460  Biso   1.000  H
  H380     1.0000 0.05330  0.03950  0.45460  Biso   1.000  H
  H381     1.0000 0.05330  0.46050  0.95460  Biso   1.000  H
  H382     1.0000 0.44670  0.53950  0.45460  Biso   1.000  H
  H383     1.0000 0.55330  0.03950  0.04540  Biso   1.000  H
  H384     1.0000 0.94670  0.96050  0.54540  Biso   1.000  H
  H385     1.0000 0.88560  0.55680  0.04320  Biso   1.000  H
  H386     1.0000 0.61440  0.44320  0.54320  Biso   1.000  H
  H387     1.0000 0.38560  0.94320  0.95680  Biso   1.000  H
  H388     1.0000 0.11440  0.05680  0.45680  Biso   1.000  H
  H389     1.0000 0.11440  0.44320  0.95680  Biso   1.000  H
  H390     1.0000 0.38560  0.55680  0.45680  Biso   1.000  H
  H391     1.0000 0.61440  0.05680  0.04320  Biso   1.000  H
  H392     1.0000 0.88560  0.94320  0.54320  Biso   1.000  H
  C313     1.0000 0.89627  0.35410  0.07149  Biso   1.000  C
  C314     1.0000 0.60373  0.64590  0.57149  Biso   1.000  C
  C315     1.0000 0.39627  0.14590  0.92851  Biso   1.000  C
  C316     1.0000 0.10373  0.85410  0.42851  Biso   1.000  C
  C317     1.0000 0.10373  0.64590  0.92851  Biso   1.000  C
  C318     1.0000 0.39627  0.35410  0.42851  Biso   1.000  C
  C319     1.0000 0.60373  0.85410  0.07149  Biso   1.000  C
  C320     1.0000 0.89627  0.14590  0.57149  Biso   1.000  C
  H393     1.0000 0.89060  0.27470  0.07050  Biso   1.000  H
  H394     1.0000 0.60940  0.72530  0.57050  Biso   1.000  H
  H395     1.0000 0.39060  0.22530  0.92950  Biso   1.000  H
  H396     1.0000 0.10940  0.77470  0.42950  Biso   1.000  H
  H397     1.0000 0.10940  0.72530  0.92950  Biso   1.000  H
  H398     1.0000 0.39060  0.27470  0.42950  Biso   1.000  H
  H399     1.0000 0.60940  0.77470  0.07050  Biso   1.000  H
  H400     1.0000 0.89060  0.22530  0.57050  Biso   1.000  H
  H401     1.0000 0.86540  0.39020  0.08150  Biso   1.000  H
  H402     1.0000 0.63460  0.60980  0.58150  Biso   1.000  H
  H403     1.0000 0.36540  0.10980  0.91850  Biso   1.000  H
  H404     1.0000 0.13460  0.89020  0.41850  Biso   1.000  H
  H405     1.0000 0.13460  0.60980  0.91850  Biso   1.000  H
  H406     1.0000 0.36540  0.39020  0.41850  Biso   1.000  H
  H407     1.0000 0.63460  0.89020  0.08150  Biso   1.000  H
  H408     1.0000 0.86540  0.10980  0.58150  Biso   1.000  H
  H409     1.0000 0.92570  0.36990  0.08810  Biso   1.000  H
  H410     1.0000 0.57430  0.63010  0.58810  Biso   1.000  H
  H411     1.0000 0.42570  0.13010  0.91190  Biso   1.000  H
  H412     1.0000 0.07430  0.86990  0.41190  Biso   1.000  H
  H413     1.0000 0.07430  0.63010  0.91190  Biso   1.000  H
  H414     1.0000 0.42570  0.36990  0.41190  Biso   1.000  H
  H415     1.0000 0.57430  0.86990  0.08810  Biso   1.000  H
  H416     1.0000 0.92570  0.13010  0.58810  Biso   1.000  H
  C321     1.0000 0.73450  0.20420  0.08999  Biso   1.000  C
  C322     1.0000 0.76550  0.79580  0.58999  Biso   1.000  C
  C323     1.0000 0.23450  0.29580  0.91001  Biso   1.000  C
  C324     1.0000 0.26550  0.70420  0.41001  Biso   1.000  C
  C325     1.0000 0.26550  0.79580  0.91001  Biso   1.000  C
  C326     1.0000 0.23450  0.20420  0.41001  Biso   1.000  C
  C327     1.0000 0.76550  0.70420  0.08999  Biso   1.000  C
  C328     1.0000 0.73450  0.29580  0.58999  Biso   1.000  C
  H417     1.0000 0.72200  0.24230  0.11160  Biso   1.000  H
  H418     1.0000 0.77800  0.75770  0.61160  Biso   1.000  H
  H419     1.0000 0.22200  0.25770  0.88840  Biso   1.000  H
  H420     1.0000 0.27800  0.74230  0.38840  Biso   1.000  H
  H421     1.0000 0.27800  0.75770  0.88840  Biso   1.000  H
  H422     1.0000 0.22200  0.24230  0.38840  Biso   1.000  H
  H423     1.0000 0.77800  0.74230  0.11160  Biso   1.000  H
  H424     1.0000 0.72200  0.25770  0.61160  Biso   1.000  H
  C329     1.0000 0.77350  0.12760  0.09399  Biso   1.000  C
  C330     1.0000 0.72650  0.87240  0.59399  Biso   1.000  C
  C331     1.0000 0.27350  0.37240  0.90601  Biso   1.000  C
  C332     1.0000 0.22650  0.62760  0.40601  Biso   1.000  C
  C333     1.0000 0.22650  0.87240  0.90601  Biso   1.000  C
  C334     1.0000 0.27350  0.12760  0.40601  Biso   1.000  C
  C335     1.0000 0.72650  0.62760  0.09399  Biso   1.000  C
  C336     1.0000 0.77350  0.37240  0.59399  Biso   1.000  C
  H425     1.0000 0.78810  0.11260  0.11820  Biso   1.000  H
  H426     1.0000 0.71190  0.88740  0.61820  Biso   1.000  H
  H427     1.0000 0.28810  0.38740  0.88180  Biso   1.000  H
  H428     1.0000 0.21190  0.61260  0.38180  Biso   1.000  H
  H429     1.0000 0.21190  0.88740  0.88180  Biso   1.000  H
  H430     1.0000 0.28810  0.11260  0.38180  Biso   1.000  H
  H431     1.0000 0.71190  0.61260  0.11820  Biso   1.000  H
  H432     1.0000 0.78810  0.38740  0.61820  Biso   1.000  H
  F1       1.0000 0.89837  0.64770  0.93591  Biso   1.000  F
  F2       1.0000 0.60163  0.35230  0.43591  Biso   1.000  F
  F3       1.0000 0.39837  0.85230  0.06409  Biso   1.000  F
  F4       1.0000 0.10163  0.14770  0.56409  Biso   1.000  F
  F5       1.0000 0.10163  0.35230  0.06409  Biso   1.000  F
  F6       1.0000 0.39837  0.64770  0.56409  Biso   1.000  F
  F7       1.0000 0.60163  0.14770  0.93591  Biso   1.000  F
  F8       1.0000 0.89837  0.85230  0.43591  Biso   1.000  F
  F9       1.0000 0.96513  0.54670  0.91239  Biso   1.000  F
  F10      1.0000 0.53487  0.45330  0.41239  Biso   1.000  F
  F11      1.0000 0.46513  0.95330  0.08761  Biso   1.000  F
  F12      1.0000 0.03487  0.04670  0.58761  Biso   1.000  F
  F13      1.0000 0.03487  0.45330  0.08761  Biso   1.000  F
  F14      1.0000 0.46513  0.54670  0.58761  Biso   1.000  F
  F15      1.0000 0.53487  0.04670  0.91239  Biso   1.000  F
  F16      1.0000 0.96513  0.95330  0.41239  Biso   1.000  F
  F17      1.0000 0.89318  0.57370  0.87678  Biso   1.000  F
  F18      1.0000 0.60682  0.42630  0.37678  Biso   1.000  F
  F19      1.0000 0.39318  0.92630  0.12322  Biso   1.000  F
  F20      1.0000 0.10682  0.07370  0.62322  Biso   1.000  F
  F21      1.0000 0.10682  0.42630  0.12322  Biso   1.000  F
  F22      1.0000 0.39318  0.57370  0.62322  Biso   1.000  F
  F23      1.0000 0.60682  0.07370  0.87678  Biso   1.000  F
  F24      1.0000 0.89318  0.92630  0.37678  Biso   1.000  F
  F25      1.0000 0.88942  0.46373  0.92854  Biso   1.000  F
  F26      1.0000 0.61058  0.53627  0.42854  Biso   1.000  F
  F27      1.0000 0.38942  0.03627  0.07146  Biso   1.000  F
  F28      1.0000 0.11058  0.96373  0.57146  Biso   1.000  F
  F29      1.0000 0.11058  0.53627  0.07146  Biso   1.000  F
  F30      1.0000 0.38942  0.46373  0.57146  Biso   1.000  F
  F31      1.0000 0.61058  0.96373  0.92854  Biso   1.000  F
  F32      1.0000 0.88942  0.03627  0.42854  Biso   1.000  F
  B1       1.0000 0.91167  0.55680  0.91345  Biso   1.000  B
  B2       1.0000 0.58833  0.44320  0.41345  Biso   1.000  B
  B3       1.0000 0.41167  0.94320  0.08655  Biso   1.000  B
  B4       1.0000 0.08833  0.05680  0.58655  Biso   1.000  B
  B5       1.0000 0.08833  0.44320  0.08655  Biso   1.000  B
  B6       1.0000 0.41167  0.55680  0.58655  Biso   1.000  B
  B7       1.0000 0.58833  0.05680  0.91345  Biso   1.000  B
  B8       1.0000 0.91167  0.94320  0.41345  Biso   1.000  B
  F33      1.0000 0.78080  0.60050  0.64661  Biso   1.000  F
  F34      1.0000 0.71920  0.39950  0.14661  Biso   1.000  F
  F35      1.0000 0.28080  0.89950  0.35339  Biso   1.000  F
  F36      1.0000 0.21920  0.10050  0.85339  Biso   1.000  F
  F37      1.0000 0.21920  0.39950  0.35339  Biso   1.000  F
  F38      1.0000 0.28080  0.60050  0.85339  Biso   1.000  F
  F39      1.0000 0.71920  0.10050  0.64661  Biso   1.000  F
  F40      1.0000 0.78080  0.89950  0.14661  Biso   1.000  F
  F41      1.0000 0.86387  0.62190  0.62941  Biso   1.000  F
  F42      1.0000 0.63613  0.37810  0.12941  Biso   1.000  F
  F43      1.0000 0.36387  0.87810  0.37059  Biso   1.000  F
  F44      1.0000 0.13613  0.12190  0.87059  Biso   1.000  F
  F45      1.0000 0.13613  0.37810  0.37059  Biso   1.000  F
  F46      1.0000 0.36387  0.62190  0.87059  Biso   1.000  F
  F47      1.0000 0.63613  0.12190  0.62941  Biso   1.000  F
  F48      1.0000 0.86387  0.87810  0.12941  Biso   1.000  F
  F49      1.0000 0.83845  0.47620  0.66343  Biso   1.000  F
  F50      1.0000 0.66155  0.52380  0.16343  Biso   1.000  F
  F51      1.0000 0.33845  0.02380  0.33657  Biso   1.000  F
  F52      1.0000 0.16155  0.97620  0.83657  Biso   1.000  F
  F53      1.0000 0.16155  0.52380  0.33657  Biso   1.000  F
  F54      1.0000 0.33845  0.47620  0.83657  Biso   1.000  F
  F55      1.0000 0.66155  0.97620  0.66343  Biso   1.000  F
  F56      1.0000 0.83845  0.02380  0.16343  Biso   1.000  F
  F57      1.0000 0.84243  0.64210  0.68968  Biso   1.000  F
  F58      1.0000 0.65757  0.35790  0.18968  Biso   1.000  F
  F59      1.0000 0.34243  0.85790  0.31032  Biso   1.000  F
  F60      1.0000 0.15757  0.14210  0.81032  Biso   1.000  F
  F61      1.0000 0.15757  0.35790  0.31032  Biso   1.000  F
  F62      1.0000 0.34243  0.64210  0.81032  Biso   1.000  F
  F63      1.0000 0.65757  0.14210  0.68968  Biso   1.000  F
  F64      1.0000 0.84243  0.85790  0.18968  Biso   1.000  F
  B9       1.0000 0.83045  0.58830  0.65780  Biso   1.000  B
  B10      1.0000 0.66955  0.41170  0.15780  Biso   1.000  B
  B11      1.0000 0.33045  0.91170  0.34220  Biso   1.000  B
  B12      1.0000 0.16955  0.08830  0.84220  Biso   1.000  B
  B13      1.0000 0.16955  0.41170  0.34220  Biso   1.000  B
  B14      1.0000 0.33045  0.58830  0.84220  Biso   1.000  B
  B15      1.0000 0.66955  0.08830  0.65780  Biso   1.000  B
  B16      1.0000 0.83045  0.91170  0.15780  Biso   1.000  B
  C337     1.0000 0.92570  0.22080  0.88180  Biso   1.000  C
  C338     1.0000 0.57430  0.77920  0.38180  Biso   1.000  C
  C339     1.0000 0.42570  0.27920  0.11820  Biso   1.000  C
  C340     1.0000 0.07430  0.72080  0.61820  Biso   1.000  C
  C341     1.0000 0.07430  0.77920  0.11820  Biso   1.000  C
  C342     1.0000 0.42570  0.22080  0.61820  Biso   1.000  C
  C343     1.0000 0.57430  0.72080  0.88180  Biso   1.000  C
  C344     1.0000 0.92570  0.27920  0.38180  Biso   1.000  C
  H433     1.0000 0.92390  0.28650  0.89830  Biso   1.000  H
  H434     1.0000 0.57610  0.71350  0.39830  Biso   1.000  H
  H435     1.0000 0.42390  0.21350  0.10170  Biso   1.000  H
  H436     1.0000 0.07610  0.78650  0.60170  Biso   1.000  H
  H437     1.0000 0.07610  0.71350  0.10170  Biso   1.000  H
  H438     1.0000 0.42390  0.28650  0.60170  Biso   1.000  H
  H439     1.0000 0.57610  0.78650  0.89830  Biso   1.000  H
  H440     1.0000 0.92390  0.21350  0.39830  Biso   1.000  H
  H441     1.0000 0.95050  0.23570  0.86100  Biso   1.000  H
  H442     1.0000 0.54950  0.76430  0.36100  Biso   1.000  H
  H443     1.0000 0.45050  0.26430  0.13900  Biso   1.000  H
  H444     1.0000 0.04950  0.73570  0.63900  Biso   1.000  H
  H445     1.0000 0.04950  0.76430  0.13900  Biso   1.000  H
  H446     1.0000 0.45050  0.23570  0.63900  Biso   1.000  H
  H447     1.0000 0.54950  0.73570  0.86100  Biso   1.000  H
  H448     1.0000 0.95050  0.26430  0.36100  Biso   1.000  H
  O33      1.0000 0.87680  0.19750  0.86670  Biso   1.000  O
  O34      1.0000 0.62320  0.80250  0.36670  Biso   1.000  O
  O35      1.0000 0.37680  0.30250  0.13330  Biso   1.000  O
  O36      1.0000 0.12320  0.69750  0.63330  Biso   1.000  O
  O37      1.0000 0.12320  0.80250  0.13330  Biso   1.000  O
  O38      1.0000 0.37680  0.19750  0.63330  Biso   1.000  O
  O39      1.0000 0.62320  0.69750  0.86670  Biso   1.000  O
  O40      1.0000 0.87680  0.30250  0.36670  Biso   1.000  O
  C345     1.0000 0.94230  0.12720  0.90350  Biso   1.000  C
  C346     1.0000 0.55770  0.87280  0.40350  Biso   1.000  C
  C347     1.0000 0.44230  0.37280  0.09650  Biso   1.000  C
  C348     1.0000 0.05770  0.62720  0.59650  Biso   1.000  C
  C349     1.0000 0.05770  0.87280  0.09650  Biso   1.000  C
  C350     1.0000 0.44230  0.12720  0.59650  Biso   1.000  C
  C351     1.0000 0.55770  0.62720  0.90350  Biso   1.000  C
  C352     1.0000 0.94230  0.37280  0.40350  Biso   1.000  C
  H449     1.0000 0.97650  0.14160  0.91440  Biso   1.000  H
  H450     1.0000 0.52350  0.85840  0.41440  Biso   1.000  H
  H451     1.0000 0.47650  0.35840  0.08560  Biso   1.000  H
  H452     1.0000 0.02350  0.64160  0.58560  Biso   1.000  H
  H453     1.0000 0.02350  0.85840  0.08560  Biso   1.000  H
  H454     1.0000 0.47650  0.14160  0.58560  Biso   1.000  H
  H455     1.0000 0.52350  0.64160  0.91440  Biso   1.000  H
  H456     1.0000 0.97650  0.35840  0.41440  Biso   1.000  H
  H457     1.0000 0.91760  0.11340  0.92410  Biso   1.000  H
  H458     1.0000 0.58240  0.88660  0.42410  Biso   1.000  H
  H459     1.0000 0.41760  0.38660  0.07590  Biso   1.000  H
  H460     1.0000 0.08240  0.61340  0.57590  Biso   1.000  H
  H461     1.0000 0.08240  0.88660  0.07590  Biso   1.000  H
  H462     1.0000 0.41760  0.11340  0.57590  Biso   1.000  H
  H463     1.0000 0.58240  0.61340  0.92410  Biso   1.000  H
  H464     1.0000 0.91760  0.38660  0.42410  Biso   1.000  H
  H465     1.0000 0.94410  0.06270  0.88700  Biso   1.000  H
  H466     1.0000 0.55590  0.93730  0.38700  Biso   1.000  H
  H467     1.0000 0.44410  0.43730  0.11300  Biso   1.000  H
  H468     1.0000 0.05590  0.56270  0.61300  Biso   1.000  H
  H469     1.0000 0.05590  0.93730  0.11300  Biso   1.000  H
  H470     1.0000 0.44410  0.06270  0.61300  Biso   1.000  H
  H471     1.0000 0.55590  0.56270  0.88700  Biso   1.000  H
  H472     1.0000 0.94410  0.43730  0.38700  Biso   1.000  H
  C353     1.0000 0.85850  0.28100  0.83880  Biso   1.000  C
  C354     1.0000 0.64150  0.71900  0.33880  Biso   1.000  C
  C355     1.0000 0.35850  0.21900  0.16120  Biso   1.000  C
  C356     1.0000 0.14150  0.78100  0.66120  Biso   1.000  C
  C357     1.0000 0.14150  0.71900  0.16120  Biso   1.000  C
  C358     1.0000 0.35850  0.28100  0.66120  Biso   1.000  C
  C359     1.0000 0.64150  0.78100  0.83880  Biso   1.000  C
  C360     1.0000 0.85850  0.21900  0.33880  Biso   1.000  C
  H473     1.0000 0.85550  0.35330  0.85130  Biso   1.000  H
  H474     1.0000 0.64450  0.64670  0.35130  Biso   1.000  H
  H475     1.0000 0.35550  0.14670  0.14870  Biso   1.000  H
  H476     1.0000 0.14450  0.85330  0.64870  Biso   1.000  H
  H477     1.0000 0.14450  0.64670  0.14870  Biso   1.000  H
  H478     1.0000 0.35550  0.35330  0.64870  Biso   1.000  H
  H479     1.0000 0.64450  0.85330  0.85130  Biso   1.000  H
  H480     1.0000 0.85550  0.14670  0.35130  Biso   1.000  H
  H481     1.0000 0.88370  0.28740  0.81780  Biso   1.000  H
  H482     1.0000 0.61630  0.71260  0.31780  Biso   1.000  H
  H483     1.0000 0.38370  0.21260  0.18220  Biso   1.000  H
  H484     1.0000 0.11630  0.78740  0.68220  Biso   1.000  H
  H485     1.0000 0.11630  0.71260  0.18220  Biso   1.000  H
  H486     1.0000 0.38370  0.28740  0.68220  Biso   1.000  H
  H487     1.0000 0.61630  0.78740  0.81780  Biso   1.000  H
  H488     1.0000 0.88370  0.21260  0.31780  Biso   1.000  H
  C361     1.0000 0.81360  0.25140  0.82530  Biso   1.000  C
  C362     1.0000 0.68640  0.74860  0.32530  Biso   1.000  C
  C363     1.0000 0.31360  0.24860  0.17470  Biso   1.000  C
  C364     1.0000 0.18640  0.75140  0.67470  Biso   1.000  C
  C365     1.0000 0.18640  0.74860  0.17470  Biso   1.000  C
  C366     1.0000 0.31360  0.25140  0.67470  Biso   1.000  C
  C367     1.0000 0.68640  0.75140  0.82530  Biso   1.000  C
  C368     1.0000 0.81360  0.24860  0.32530  Biso   1.000  C
  H489     1.0000 0.80170  0.30620  0.80690  Biso   1.000  H
  H490     1.0000 0.69830  0.69380  0.30690  Biso   1.000  H
  H491     1.0000 0.30170  0.19380  0.19310  Biso   1.000  H
  H492     1.0000 0.19830  0.80620  0.69310  Biso   1.000  H
  H493     1.0000 0.19830  0.69380  0.19310  Biso   1.000  H
  H494     1.0000 0.30170  0.30620  0.69310  Biso   1.000  H
  H495     1.0000 0.69830  0.80620  0.80690  Biso   1.000  H
  H496     1.0000 0.80170  0.19380  0.30690  Biso   1.000  H
  H497     1.0000 0.81680  0.18000  0.81270  Biso   1.000  H
  H498     1.0000 0.68320  0.82000  0.31270  Biso   1.000  H
  H499     1.0000 0.31680  0.32000  0.18730  Biso   1.000  H
  H500     1.0000 0.18320  0.68000  0.68730  Biso   1.000  H
  H501     1.0000 0.18320  0.82000  0.18730  Biso   1.000  H
  H502     1.0000 0.31680  0.18000  0.68730  Biso   1.000  H
  H503     1.0000 0.68320  0.68000  0.81270  Biso   1.000  H
  H504     1.0000 0.81680  0.32000  0.31270  Biso   1.000  H
  H505     1.0000 0.78870  0.24580  0.84610  Biso   1.000  H
  H506     1.0000 0.71130  0.75420  0.34610  Biso   1.000  H
  H507     1.0000 0.28870  0.25420  0.15390  Biso   1.000  H
  H508     1.0000 0.21130  0.74580  0.65390  Biso   1.000  H
  H509     1.0000 0.21130  0.75420  0.15390  Biso   1.000  H
  H510     1.0000 0.28870  0.24580  0.65390  Biso   1.000  H
  H511     1.0000 0.71130  0.74580  0.84610  Biso   1.000  H
  H512     1.0000 0.78870  0.25420  0.34610  Biso   1.000  H
  C369     1.0000 0.87780  0.28100  0.84820  Biso   1.000  C
  C370     1.0000 0.62220  0.71900  0.34820  Biso   1.000  C
  C371     1.0000 0.37780  0.21900  0.15180  Biso   1.000  C
  C372     1.0000 0.12220  0.78100  0.65180  Biso   1.000  C
  C373     1.0000 0.12220  0.71900  0.15180  Biso   1.000  C
  C374     1.0000 0.37780  0.28100  0.65180  Biso   1.000  C
  C375     1.0000 0.62220  0.78100  0.84820  Biso   1.000  C
  C376     1.0000 0.87780  0.21900  0.34820  Biso   1.000  C
  H513     1.0000 0.85310  0.30130  0.86850  Biso   1.000  H
  H514     1.0000 0.64690  0.69870  0.36850  Biso   1.000  H
  H515     1.0000 0.35310  0.19870  0.13150  Biso   1.000  H
  H516     1.0000 0.14690  0.80130  0.63150  Biso   1.000  H
  H517     1.0000 0.14690  0.69870  0.13150  Biso   1.000  H
  H518     1.0000 0.35310  0.30130  0.63150  Biso   1.000  H
  H519     1.0000 0.64690  0.80130  0.86850  Biso   1.000  H
  H520     1.0000 0.85310  0.19870  0.36850  Biso   1.000  H
  H521     1.0000 0.90730  0.33230  0.85050  Biso   1.000  H
  H522     1.0000 0.59270  0.66770  0.35050  Biso   1.000  H
  H523     1.0000 0.40730  0.16770  0.14950  Biso   1.000  H
  H524     1.0000 0.09270  0.83230  0.64950  Biso   1.000  H
  H525     1.0000 0.09270  0.66770  0.14950  Biso   1.000  H
  H526     1.0000 0.40730  0.33230  0.64950  Biso   1.000  H
  H527     1.0000 0.59270  0.83230  0.85050  Biso   1.000  H
  H528     1.0000 0.90730  0.16770  0.35050  Biso   1.000  H
  C377     1.0000 0.91440  0.13580  0.88800  Biso   1.000  C
  C378     1.0000 0.58560  0.86420  0.38800  Biso   1.000  C
  C379     1.0000 0.41440  0.36420  0.11200  Biso   1.000  C
  C380     1.0000 0.08560  0.63580  0.61200  Biso   1.000  C
  C381     1.0000 0.08560  0.86420  0.11200  Biso   1.000  C
  C382     1.0000 0.41440  0.13580  0.61200  Biso   1.000  C
  C383     1.0000 0.58560  0.63580  0.88800  Biso   1.000  C
  C384     1.0000 0.91440  0.36420  0.38800  Biso   1.000  C
  H529     1.0000 0.92030  0.05610  0.88510  Biso   1.000  H
  H530     1.0000 0.57970  0.94390  0.38510  Biso   1.000  H
  H531     1.0000 0.42030  0.44390  0.11490  Biso   1.000  H
  H532     1.0000 0.07970  0.55610  0.61490  Biso   1.000  H
  H533     1.0000 0.07970  0.94390  0.11490  Biso   1.000  H
  H534     1.0000 0.42030  0.05610  0.61490  Biso   1.000  H
  H535     1.0000 0.57970  0.55610  0.88510  Biso   1.000  H
  H536     1.0000 0.92030  0.44390  0.38510  Biso   1.000  H
  H537     1.0000 0.88770  0.14560  0.90790  Biso   1.000  H
  H538     1.0000 0.61230  0.85440  0.40790  Biso   1.000  H
  H539     1.0000 0.38770  0.35440  0.09210  Biso   1.000  H
  H540     1.0000 0.11230  0.64560  0.59210  Biso   1.000  H
  H541     1.0000 0.11230  0.85440  0.09210  Biso   1.000  H
  H542     1.0000 0.38770  0.14560  0.59210  Biso   1.000  H
  H543     1.0000 0.61230  0.64560  0.90790  Biso   1.000  H
  H544     1.0000 0.88770  0.35440  0.40790  Biso   1.000  H
  C385     1.0000 0.85520  0.30340  0.81600  Biso   1.000  C
  C386     1.0000 0.64480  0.69660  0.31600  Biso   1.000  C
  C387     1.0000 0.35520  0.19660  0.18400  Biso   1.000  C
  C388     1.0000 0.14480  0.80340  0.68400  Biso   1.000  C
  C389     1.0000 0.14480  0.69660  0.18400  Biso   1.000  C
  C390     1.0000 0.35520  0.30340  0.68400  Biso   1.000  C
  C391     1.0000 0.64480  0.80340  0.81600  Biso   1.000  C
  C392     1.0000 0.85520  0.19660  0.31600  Biso   1.000  C
  H545     1.0000 0.84510  0.38090  0.81550  Biso   1.000  H
  H546     1.0000 0.65490  0.61910  0.31550  Biso   1.000  H
  H547     1.0000 0.34510  0.11910  0.18450  Biso   1.000  H
  H548     1.0000 0.15490  0.88090  0.68450  Biso   1.000  H
  H549     1.0000 0.15490  0.61910  0.18450  Biso   1.000  H
  H550     1.0000 0.34510  0.38090  0.68450  Biso   1.000  H
  H551     1.0000 0.65490  0.88090  0.81550  Biso   1.000  H
  H552     1.0000 0.84510  0.11910  0.31550  Biso   1.000  H
  H553     1.0000 0.87910  0.28860  0.79510  Biso   1.000  H
  H554     1.0000 0.62090  0.71140  0.29510  Biso   1.000  H
  H555     1.0000 0.37910  0.21140  0.20490  Biso   1.000  H
  H556     1.0000 0.12090  0.78860  0.70490  Biso   1.000  H
  H557     1.0000 0.12090  0.71140  0.20490  Biso   1.000  H
  H558     1.0000 0.37910  0.28860  0.70490  Biso   1.000  H
  H559     1.0000 0.62090  0.78860  0.79510  Biso   1.000  H
  H560     1.0000 0.87910  0.21140  0.29510  Biso   1.000  H
  H561     1.0000 0.82450  0.25740  0.81320  Biso   1.000  H
  H562     1.0000 0.67550  0.74260  0.31320  Biso   1.000  H
  H563     1.0000 0.32450  0.24260  0.18680  Biso   1.000  H
  H564     1.0000 0.17550  0.75740  0.68680  Biso   1.000  H
  H565     1.0000 0.17550  0.74260  0.18680  Biso   1.000  H
  H566     1.0000 0.32450  0.25740  0.68680  Biso   1.000  H
  H567     1.0000 0.67550  0.75740  0.81320  Biso   1.000  H
  H568     1.0000 0.82450  0.24260  0.31320  Biso   1.000  H
  C393     1.0000 0.97120  0.19600  0.90370  Biso   1.000  C
  C394     1.0000 0.52880  0.80400  0.40370  Biso   1.000  C
  C395     1.0000 0.47120  0.30400  0.09630  Biso   1.000  C
  C396     1.0000 0.02880  0.69600  0.59630  Biso   1.000  C
  C397     1.0000 0.02880  0.80400  0.09630  Biso   1.000  C
  C398     1.0000 0.47120  0.19600  0.59630  Biso   1.000  C
  C399     1.0000 0.52880  0.69600  0.90370  Biso   1.000  C
  C400     1.0000 0.97120  0.30400  0.40370  Biso   1.000  C
  H569     1.0000 0.98180  0.16220  0.92770  Biso   1.000  H
  H570     1.0000 0.51820  0.83780  0.42770  Biso   1.000  H
  H571     1.0000 0.48180  0.33780  0.07230  Biso   1.000  H
  H572     1.0000 0.01820  0.66220  0.57230  Biso   1.000  H
  H573     1.0000 0.01820  0.83780  0.07230  Biso   1.000  H
  H574     1.0000 0.48180  0.16220  0.57230  Biso   1.000  H
  H575     1.0000 0.51820  0.66220  0.92770  Biso   1.000  H
  H576     1.0000 0.98180  0.33780  0.42770  Biso   1.000  H
  H577     1.0000 0.99830  0.18500  0.88460  Biso   1.000  H
  H578     1.0000 0.50170  0.81500  0.38460  Biso   1.000  H
  H579     1.0000 0.49830  0.31500  0.11540  Biso   1.000  H
  H580     1.0000 0.00170  0.68500  0.61540  Biso   1.000  H
  H581     1.0000 0.00170  0.81500  0.11540  Biso   1.000  H
  H582     1.0000 0.49830  0.18500  0.61540  Biso   1.000  H
  H583     1.0000 0.50170  0.68500  0.88460  Biso   1.000  H
  H584     1.0000 0.99830  0.31500  0.38460  Biso   1.000  H
  H585     1.0000 0.96570  0.27470  0.90750  Biso   1.000  H
  H586     1.0000 0.53430  0.72530  0.40750  Biso   1.000  H
  H587     1.0000 0.46570  0.22530  0.09250  Biso   1.000  H
  H588     1.0000 0.03430  0.77470  0.59250  Biso   1.000  H
  H589     1.0000 0.03430  0.72530  0.09250  Biso   1.000  H
  H590     1.0000 0.46570  0.27470  0.59250  Biso   1.000  H
  H591     1.0000 0.53430  0.77470  0.90750  Biso   1.000  H
  H592     1.0000 0.96570  0.22530  0.40750  Biso   1.000  H
  O41      1.0000 0.89700  0.17300  0.85710  Biso   1.000  O
  O42      1.0000 0.60300  0.82700  0.35710  Biso   1.000  O
  O43      1.0000 0.39700  0.32700  0.14290  Biso   1.000  O
  O44      1.0000 0.10300  0.67300  0.64290  Biso   1.000  O
  O45      1.0000 0.10300  0.82700  0.14290  Biso   1.000  O
  O46      1.0000 0.39700  0.17300  0.64290  Biso   1.000  O
  O47      1.0000 0.60300  0.67300  0.85710  Biso   1.000  O
  O48      1.0000 0.89700  0.32700  0.35710  Biso   1.000  O
