data_image0
_cell_length_a       38.2974
_cell_length_b       38.2974
_cell_length_c       22.9596
_cell_angle_alpha    90
_cell_angle_beta     90
_cell_angle_gamma    120

_symmetry_space_group_name_H-M    "P 1"
_symmetry_int_tables_number       1

loop_
  _symmetry_equiv_pos_as_xyz
  'x, y, z'

loop_
  _atom_site_label
  _atom_site_occupancy
  _atom_site_fract_x
  _atom_site_fract_y
  _atom_site_fract_z
  _atom_site_thermal_displace_type
  _atom_site_B_iso_or_equiv
  _atom_site_type_symbol
  Cu1      1.0000 0.38136  0.25843  0.25774  Biso   1.000  Cu
  Cu2      1.0000 0.74157  0.12293  0.25774  Biso   1.000  Cu
  Cu3      1.0000 0.87707  0.61864  0.25774  Biso   1.000  Cu
  Cu4      1.0000 0.04803  0.59176  0.59107  Biso   1.000  Cu
  Cu5      1.0000 0.40824  0.45626  0.59107  Biso   1.000  Cu
  Cu6      1.0000 0.54374  0.95197  0.59107  Biso   1.000  Cu
  Cu7      1.0000 0.71469  0.92510  0.92441  Biso   1.000  Cu
  Cu8      1.0000 0.07490  0.78960  0.92441  Biso   1.000  Cu
  Cu9      1.0000 0.21040  0.28531  0.92441  Biso   1.000  Cu
  Cu10     1.0000 0.61864  0.74157  0.74226  Biso   1.000  Cu
  Cu11     1.0000 0.25843  0.87707  0.74226  Biso   1.000  Cu
  Cu12     1.0000 0.12293  0.38136  0.74226  Biso   1.000  Cu
  Cu13     1.0000 0.28531  0.07490  0.07559  Biso   1.000  Cu
  Cu14     1.0000 0.92510  0.21040  0.07559  Biso   1.000  Cu
  Cu15     1.0000 0.78960  0.71469  0.07559  Biso   1.000  Cu
  Cu16     1.0000 0.95197  0.40824  0.40893  Biso   1.000  Cu
  Cu17     1.0000 0.59176  0.54374  0.40893  Biso   1.000  Cu
  Cu18     1.0000 0.45626  0.04803  0.40893  Biso   1.000  Cu
  Cu19     1.0000 0.41328  0.32080  0.32586  Biso   1.000  Cu
  Cu20     1.0000 0.67920  0.09248  0.32586  Biso   1.000  Cu
  Cu21     1.0000 0.90752  0.58672  0.32586  Biso   1.000  Cu
  Cu22     1.0000 0.07995  0.65413  0.65919  Biso   1.000  Cu
  Cu23     1.0000 0.34587  0.42581  0.65919  Biso   1.000  Cu
  Cu24     1.0000 0.57419  0.92005  0.65919  Biso   1.000  Cu
  Cu25     1.0000 0.74661  0.98747  0.99253  Biso   1.000  Cu
  Cu26     1.0000 0.01253  0.75915  0.99253  Biso   1.000  Cu
  Cu27     1.0000 0.24085  0.25339  0.99253  Biso   1.000  Cu
  Cu28     1.0000 0.58672  0.67920  0.67414  Biso   1.000  Cu
  Cu29     1.0000 0.32080  0.90752  0.67414  Biso   1.000  Cu
  Cu30     1.0000 0.09248  0.41328  0.67414  Biso   1.000  Cu
  Cu31     1.0000 0.25339  0.01253  0.00747  Biso   1.000  Cu
  Cu32     1.0000 0.98747  0.24085  0.00747  Biso   1.000  Cu
  Cu33     1.0000 0.75915  0.74661  0.00747  Biso   1.000  Cu
  Cu34     1.0000 0.92005  0.34587  0.34081  Biso   1.000  Cu
  Cu35     1.0000 0.65413  0.57419  0.34081  Biso   1.000  Cu
  Cu36     1.0000 0.42581  0.07995  0.34081  Biso   1.000  Cu
  O1       1.0000 0.35828  0.20831  0.19790  Biso   1.000  O
  O2       1.0000 0.79169  0.14997  0.19790  Biso   1.000  O
  O3       1.0000 0.85003  0.64172  0.19790  Biso   1.000  O
  O4       1.0000 0.02495  0.54164  0.53123  Biso   1.000  O
  O5       1.0000 0.45836  0.48330  0.53123  Biso   1.000  O
  O6       1.0000 0.51670  0.97505  0.53123  Biso   1.000  O
  O7       1.0000 0.69161  0.87498  0.86457  Biso   1.000  O
  O8       1.0000 0.12502  0.81664  0.86457  Biso   1.000  O
  O9       1.0000 0.18336  0.30839  0.86457  Biso   1.000  O
  O10      1.0000 0.64172  0.79169  0.80210  Biso   1.000  O
  O11      1.0000 0.20831  0.85003  0.80210  Biso   1.000  O
  O12      1.0000 0.14997  0.35828  0.80210  Biso   1.000  O
  O13      1.0000 0.30839  0.12502  0.13543  Biso   1.000  O
  O14      1.0000 0.87498  0.18336  0.13543  Biso   1.000  O
  O15      1.0000 0.81664  0.69161  0.13543  Biso   1.000  O
  O16      1.0000 0.97505  0.45836  0.46877  Biso   1.000  O
  O17      1.0000 0.54164  0.51670  0.46877  Biso   1.000  O
  O18      1.0000 0.48330  0.02495  0.46877  Biso   1.000  O
  O19      1.0000 0.44110  0.36687  0.39430  Biso   1.000  O
  O20      1.0000 0.63313  0.07423  0.39430  Biso   1.000  O
  O21      1.0000 0.92577  0.55890  0.39430  Biso   1.000  O
  O22      1.0000 0.10777  0.70020  0.72763  Biso   1.000  O
  O23      1.0000 0.29980  0.40756  0.72763  Biso   1.000  O
  O24      1.0000 0.59244  0.89223  0.72763  Biso   1.000  O
  O25      1.0000 0.77443  0.03354  0.06097  Biso   1.000  O
  O26      1.0000 0.96646  0.74090  0.06097  Biso   1.000  O
  O27      1.0000 0.25910  0.22557  0.06097  Biso   1.000  O
  O28      1.0000 0.55890  0.63313  0.60570  Biso   1.000  O
  O29      1.0000 0.36687  0.92577  0.60570  Biso   1.000  O
  O30      1.0000 0.07423  0.44110  0.60570  Biso   1.000  O
  O31      1.0000 0.22557  0.96646  0.93903  Biso   1.000  O
  O32      1.0000 0.03354  0.25910  0.93903  Biso   1.000  O
  O33      1.0000 0.74090  0.77443  0.93903  Biso   1.000  O
  O34      1.0000 0.89223  0.29980  0.27237  Biso   1.000  O
  O35      1.0000 0.70020  0.59244  0.27237  Biso   1.000  O
  O36      1.0000 0.40756  0.10777  0.27237  Biso   1.000  O
  O37      1.0000 0.44600  0.43810  0.42940  Biso   1.000  O
  O38      1.0000 0.56190  0.00790  0.42940  Biso   1.000  O
  O39      1.0000 0.99210  0.55400  0.42940  Biso   1.000  O
  O40      1.0000 0.11267  0.77143  0.76273  Biso   1.000  O
  O41      1.0000 0.22857  0.34123  0.76273  Biso   1.000  O
  O42      1.0000 0.65877  0.88733  0.76273  Biso   1.000  O
  O43      1.0000 0.77933  0.10477  0.09607  Biso   1.000  O
  O44      1.0000 0.89523  0.67457  0.09607  Biso   1.000  O
  O45      1.0000 0.32543  0.22067  0.09607  Biso   1.000  O
  O46      1.0000 0.55400  0.56190  0.57060  Biso   1.000  O
  O47      1.0000 0.43810  0.99210  0.57060  Biso   1.000  O
  O48      1.0000 0.00790  0.44600  0.57060  Biso   1.000  O
  O49      1.0000 0.22067  0.89523  0.90393  Biso   1.000  O
  O50      1.0000 0.10477  0.32543  0.90393  Biso   1.000  O
  O51      1.0000 0.67457  0.77933  0.90393  Biso   1.000  O
  O52      1.0000 0.88733  0.22857  0.23727  Biso   1.000  O
  O53      1.0000 0.77143  0.65877  0.23727  Biso   1.000  O
  O54      1.0000 0.34123  0.11267  0.23727  Biso   1.000  O
  C1       1.0000 0.41760  0.36890  0.44240  Biso   1.000  C
  C2       1.0000 0.63110  0.04870  0.44240  Biso   1.000  C
  C3       1.0000 0.95130  0.58240  0.44240  Biso   1.000  C
  C4       1.0000 0.08427  0.70223  0.77573  Biso   1.000  C
  C5       1.0000 0.29777  0.38203  0.77573  Biso   1.000  C
  C6       1.0000 0.61797  0.91573  0.77573  Biso   1.000  C
  C7       1.0000 0.75093  0.03557  0.10907  Biso   1.000  C
  C8       1.0000 0.96443  0.71537  0.10907  Biso   1.000  C
  C9       1.0000 0.28463  0.24907  0.10907  Biso   1.000  C
  C10      1.0000 0.58240  0.63110  0.55760  Biso   1.000  C
  C11      1.0000 0.36890  0.95130  0.55760  Biso   1.000  C
  C12      1.0000 0.04870  0.41760  0.55760  Biso   1.000  C
  C13      1.0000 0.24907  0.96443  0.89093  Biso   1.000  C
  C14      1.0000 0.03557  0.28463  0.89093  Biso   1.000  C
  C15      1.0000 0.71537  0.75093  0.89093  Biso   1.000  C
  C16      1.0000 0.91573  0.29777  0.22427  Biso   1.000  C
  C17      1.0000 0.70223  0.61797  0.22427  Biso   1.000  C
  C18      1.0000 0.38203  0.08427  0.22427  Biso   1.000  C
  H1       1.0000 0.39210  0.34290  0.44610  Biso   1.000  H
  H2       1.0000 0.65710  0.04920  0.44610  Biso   1.000  H
  H3       1.0000 0.95080  0.60790  0.44610  Biso   1.000  H
  H4       1.0000 0.05877  0.67623  0.77943  Biso   1.000  H
  H5       1.0000 0.32377  0.38253  0.77943  Biso   1.000  H
  H6       1.0000 0.61747  0.94123  0.77943  Biso   1.000  H
  H7       1.0000 0.72543  0.00957  0.11277  Biso   1.000  H
  H8       1.0000 0.99043  0.71587  0.11277  Biso   1.000  H
  H9       1.0000 0.28413  0.27457  0.11277  Biso   1.000  H
  H10      1.0000 0.60790  0.65710  0.55390  Biso   1.000  H
  H11      1.0000 0.34290  0.95080  0.55390  Biso   1.000  H
  H12      1.0000 0.04920  0.39210  0.55390  Biso   1.000  H
  H13      1.0000 0.27457  0.99043  0.88723  Biso   1.000  H
  H14      1.0000 0.00957  0.28413  0.88723  Biso   1.000  H
  H15      1.0000 0.71587  0.72543  0.88723  Biso   1.000  H
  H16      1.0000 0.94123  0.32377  0.22057  Biso   1.000  H
  H17      1.0000 0.67623  0.61747  0.22057  Biso   1.000  H
  H18      1.0000 0.38253  0.05877  0.22057  Biso   1.000  H
  H19      1.0000 0.43290  0.37390  0.47920  Biso   1.000  H
  H20      1.0000 0.62610  0.05900  0.47920  Biso   1.000  H
  H21      1.0000 0.94100  0.56710  0.47920  Biso   1.000  H
  H22      1.0000 0.09957  0.70723  0.81253  Biso   1.000  H
  H23      1.0000 0.29277  0.39233  0.81253  Biso   1.000  H
  H24      1.0000 0.60767  0.90043  0.81253  Biso   1.000  H
  H25      1.0000 0.76623  0.04057  0.14587  Biso   1.000  H
  H26      1.0000 0.95943  0.72567  0.14587  Biso   1.000  H
  H27      1.0000 0.27433  0.23377  0.14587  Biso   1.000  H
  H28      1.0000 0.56710  0.62610  0.52080  Biso   1.000  H
  H29      1.0000 0.37390  0.94100  0.52080  Biso   1.000  H
  H30      1.0000 0.05900  0.43290  0.52080  Biso   1.000  H
  H31      1.0000 0.23377  0.95943  0.85413  Biso   1.000  H
  H32      1.0000 0.04057  0.27433  0.85413  Biso   1.000  H
  H33      1.0000 0.72567  0.76623  0.85413  Biso   1.000  H
  H34      1.0000 0.90043  0.29277  0.18747  Biso   1.000  H
  H35      1.0000 0.70723  0.60767  0.18747  Biso   1.000  H
  H36      1.0000 0.39233  0.09957  0.18747  Biso   1.000  H
  C19      1.0000 0.40890  0.40100  0.43240  Biso   1.000  C
  C20      1.0000 0.59900  0.00790  0.43240  Biso   1.000  C
  C21      1.0000 0.99210  0.59110  0.43240  Biso   1.000  C
  C22      1.0000 0.07557  0.73433  0.76573  Biso   1.000  C
  C23      1.0000 0.26567  0.34123  0.76573  Biso   1.000  C
  C24      1.0000 0.65877  0.92443  0.76573  Biso   1.000  C
  C25      1.0000 0.74223  0.06767  0.09907  Biso   1.000  C
  C26      1.0000 0.93233  0.67457  0.09907  Biso   1.000  C
  C27      1.0000 0.32543  0.25777  0.09907  Biso   1.000  C
  C28      1.0000 0.59110  0.59900  0.56760  Biso   1.000  C
  C29      1.0000 0.40100  0.99210  0.56760  Biso   1.000  C
  C30      1.0000 0.00790  0.40890  0.56760  Biso   1.000  C
  C31      1.0000 0.25777  0.93233  0.90093  Biso   1.000  C
  C32      1.0000 0.06767  0.32543  0.90093  Biso   1.000  C
  C33      1.0000 0.67457  0.74223  0.90093  Biso   1.000  C
  C34      1.0000 0.92443  0.26567  0.23427  Biso   1.000  C
  C35      1.0000 0.73433  0.65877  0.23427  Biso   1.000  C
  C36      1.0000 0.34123  0.07557  0.23427  Biso   1.000  C
  H37      1.0000 0.39380  0.39620  0.39550  Biso   1.000  H
  H38      1.0000 0.60380  0.99760  0.39550  Biso   1.000  H
  H39      1.0000 0.00240  0.60620  0.39550  Biso   1.000  H
  H40      1.0000 0.06047  0.72953  0.72883  Biso   1.000  H
  H41      1.0000 0.27047  0.33093  0.72883  Biso   1.000  H
  H42      1.0000 0.66907  0.93953  0.72883  Biso   1.000  H
  H43      1.0000 0.72713  0.06287  0.06217  Biso   1.000  H
  H44      1.0000 0.93713  0.66427  0.06217  Biso   1.000  H
  H45      1.0000 0.33573  0.27287  0.06217  Biso   1.000  H
  H46      1.0000 0.60620  0.60380  0.60450  Biso   1.000  H
  H47      1.0000 0.39620  0.00240  0.60450  Biso   1.000  H
  H48      1.0000 0.99760  0.39380  0.60450  Biso   1.000  H
  H49      1.0000 0.27287  0.93713  0.93783  Biso   1.000  H
  H50      1.0000 0.06287  0.33573  0.93783  Biso   1.000  H
  H51      1.0000 0.66427  0.72713  0.93783  Biso   1.000  H
  H52      1.0000 0.93953  0.27047  0.27117  Biso   1.000  H
  H53      1.0000 0.72953  0.66907  0.27117  Biso   1.000  H
  H54      1.0000 0.33093  0.06047  0.27117  Biso   1.000  H
  H55      1.0000 0.39210  0.40190  0.46450  Biso   1.000  H
  H56      1.0000 0.59810  0.99020  0.46450  Biso   1.000  H
  H57      1.0000 0.00980  0.60790  0.46450  Biso   1.000  H
  H58      1.0000 0.05877  0.73523  0.79783  Biso   1.000  H
  H59      1.0000 0.26477  0.32353  0.79783  Biso   1.000  H
  H60      1.0000 0.67647  0.94123  0.79783  Biso   1.000  H
  H61      1.0000 0.72543  0.06857  0.13117  Biso   1.000  H
  H62      1.0000 0.93143  0.65687  0.13117  Biso   1.000  H
  H63      1.0000 0.34313  0.27457  0.13117  Biso   1.000  H
  H64      1.0000 0.60790  0.59810  0.53550  Biso   1.000  H
  H65      1.0000 0.40190  0.00980  0.53550  Biso   1.000  H
  H66      1.0000 0.99020  0.39210  0.53550  Biso   1.000  H
  H67      1.0000 0.27457  0.93143  0.86883  Biso   1.000  H
  H68      1.0000 0.06857  0.34313  0.86883  Biso   1.000  H
  H69      1.0000 0.65687  0.72543  0.86883  Biso   1.000  H
  H70      1.0000 0.94123  0.26477  0.20217  Biso   1.000  H
  H71      1.0000 0.73523  0.67647  0.20217  Biso   1.000  H
  H72      1.0000 0.32353  0.05877  0.20217  Biso   1.000  H
  C37      1.0000 0.47030  0.43760  0.38090  Biso   1.000  C
  C38      1.0000 0.56240  0.03270  0.38090  Biso   1.000  C
  C39      1.0000 0.96730  0.52970  0.38090  Biso   1.000  C
  C40      1.0000 0.13697  0.77093  0.71423  Biso   1.000  C
  C41      1.0000 0.22907  0.36603  0.71423  Biso   1.000  C
  C42      1.0000 0.63397  0.86303  0.71423  Biso   1.000  C
  C43      1.0000 0.80363  0.10427  0.04757  Biso   1.000  C
  C44      1.0000 0.89573  0.69937  0.04757  Biso   1.000  C
  C45      1.0000 0.30063  0.19637  0.04757  Biso   1.000  C
  C46      1.0000 0.52970  0.56240  0.61910  Biso   1.000  C
  C47      1.0000 0.43760  0.96730  0.61910  Biso   1.000  C
  C48      1.0000 0.03270  0.47030  0.61910  Biso   1.000  C
  C49      1.0000 0.19637  0.89573  0.95243  Biso   1.000  C
  C50      1.0000 0.10427  0.30063  0.95243  Biso   1.000  C
  C51      1.0000 0.69937  0.80363  0.95243  Biso   1.000  C
  C52      1.0000 0.86303  0.22907  0.28577  Biso   1.000  C
  C53      1.0000 0.77093  0.63397  0.28577  Biso   1.000  C
  C54      1.0000 0.36603  0.13697  0.28577  Biso   1.000  C
  H73      1.0000 0.49590  0.46370  0.37900  Biso   1.000  H
  H74      1.0000 0.53630  0.03220  0.37900  Biso   1.000  H
  H75      1.0000 0.96780  0.50410  0.37900  Biso   1.000  H
  H76      1.0000 0.16257  0.79703  0.71233  Biso   1.000  H
  H77      1.0000 0.20297  0.36553  0.71233  Biso   1.000  H
  H78      1.0000 0.63447  0.83743  0.71233  Biso   1.000  H
  H79      1.0000 0.82923  0.13037  0.04567  Biso   1.000  H
  H80      1.0000 0.86963  0.69887  0.04567  Biso   1.000  H
  H81      1.0000 0.30113  0.17077  0.04567  Biso   1.000  H
  H82      1.0000 0.50410  0.53630  0.62100  Biso   1.000  H
  H83      1.0000 0.46370  0.96780  0.62100  Biso   1.000  H
  H84      1.0000 0.03220  0.49590  0.62100  Biso   1.000  H
  H85      1.0000 0.17077  0.86963  0.95433  Biso   1.000  H
  H86      1.0000 0.13037  0.30113  0.95433  Biso   1.000  H
  H87      1.0000 0.69887  0.82923  0.95433  Biso   1.000  H
  H88      1.0000 0.83743  0.20297  0.28767  Biso   1.000  H
  H89      1.0000 0.79703  0.63447  0.28767  Biso   1.000  H
  H90      1.0000 0.36553  0.16257  0.28767  Biso   1.000  H
  H91      1.0000 0.45560  0.43380  0.34390  Biso   1.000  H
  H92      1.0000 0.56620  0.02180  0.34390  Biso   1.000  H
  H93      1.0000 0.97820  0.54440  0.34390  Biso   1.000  H
  H94      1.0000 0.12227  0.76713  0.67723  Biso   1.000  H
  H95      1.0000 0.23287  0.35513  0.67723  Biso   1.000  H
  H96      1.0000 0.64487  0.87773  0.67723  Biso   1.000  H
  H97      1.0000 0.78893  0.10047  0.01057  Biso   1.000  H
  H98      1.0000 0.89953  0.68847  0.01057  Biso   1.000  H
  H99      1.0000 0.31153  0.21107  0.01057  Biso   1.000  H
  H100     1.0000 0.54440  0.56620  0.65610  Biso   1.000  H
  H101     1.0000 0.43380  0.97820  0.65610  Biso   1.000  H
  H102     1.0000 0.02180  0.45560  0.65610  Biso   1.000  H
  H103     1.0000 0.21107  0.89953  0.98943  Biso   1.000  H
  H104     1.0000 0.10047  0.31153  0.98943  Biso   1.000  H
  H105     1.0000 0.68847  0.78893  0.98943  Biso   1.000  H
  H106     1.0000 0.87773  0.23287  0.32277  Biso   1.000  H
  H107     1.0000 0.76713  0.64487  0.32277  Biso   1.000  H
  H108     1.0000 0.35513  0.12227  0.32277  Biso   1.000  H
  C55      1.0000 0.47890  0.40400  0.38930  Biso   1.000  C
  C56      1.0000 0.59600  0.07490  0.38930  Biso   1.000  C
  C57      1.0000 0.92510  0.52110  0.38930  Biso   1.000  C
  C58      1.0000 0.14557  0.73733  0.72263  Biso   1.000  C
  C59      1.0000 0.26267  0.40823  0.72263  Biso   1.000  C
  C60      1.0000 0.59177  0.85443  0.72263  Biso   1.000  C
  C61      1.0000 0.81223  0.07067  0.05597  Biso   1.000  C
  C62      1.0000 0.92933  0.74157  0.05597  Biso   1.000  C
  C63      1.0000 0.25843  0.18777  0.05597  Biso   1.000  C
  C64      1.0000 0.52110  0.59600  0.61070  Biso   1.000  C
  C65      1.0000 0.40400  0.92510  0.61070  Biso   1.000  C
  C66      1.0000 0.07490  0.47890  0.61070  Biso   1.000  C
  C67      1.0000 0.18777  0.92933  0.94403  Biso   1.000  C
  C68      1.0000 0.07067  0.25843  0.94403  Biso   1.000  C
  C69      1.0000 0.74157  0.81223  0.94403  Biso   1.000  C
  C70      1.0000 0.85443  0.26267  0.27737  Biso   1.000  C
  C71      1.0000 0.73733  0.59177  0.27737  Biso   1.000  C
  C72      1.0000 0.40823  0.14557  0.27737  Biso   1.000  C
  H109     1.0000 0.49440  0.40260  0.35580  Biso   1.000  H
  H110     1.0000 0.59740  0.09180  0.35580  Biso   1.000  H
  H111     1.0000 0.90820  0.50560  0.35580  Biso   1.000  H
  H112     1.0000 0.16107  0.73593  0.68913  Biso   1.000  H
  H113     1.0000 0.26407  0.42513  0.68913  Biso   1.000  H
  H114     1.0000 0.57487  0.83893  0.68913  Biso   1.000  H
  H115     1.0000 0.82773  0.06927  0.02247  Biso   1.000  H
  H116     1.0000 0.93073  0.75847  0.02247  Biso   1.000  H
  H117     1.0000 0.24153  0.17227  0.02247  Biso   1.000  H
  H118     1.0000 0.50560  0.59740  0.64420  Biso   1.000  H
  H119     1.0000 0.40260  0.90820  0.64420  Biso   1.000  H
  H120     1.0000 0.09180  0.49440  0.64420  Biso   1.000  H
  H121     1.0000 0.17227  0.93073  0.97753  Biso   1.000  H
  H122     1.0000 0.06927  0.24153  0.97753  Biso   1.000  H
  H123     1.0000 0.75847  0.82773  0.97753  Biso   1.000  H
  H124     1.0000 0.83893  0.26407  0.31087  Biso   1.000  H
  H125     1.0000 0.73593  0.57487  0.31087  Biso   1.000  H
  H126     1.0000 0.42513  0.16107  0.31087  Biso   1.000  H
  H127     1.0000 0.49520  0.40860  0.42500  Biso   1.000  H
  H128     1.0000 0.59140  0.08660  0.42500  Biso   1.000  H
  H129     1.0000 0.91340  0.50480  0.42500  Biso   1.000  H
  H130     1.0000 0.16187  0.74193  0.75833  Biso   1.000  H
  H131     1.0000 0.25807  0.41993  0.75833  Biso   1.000  H
  H132     1.0000 0.58007  0.83813  0.75833  Biso   1.000  H
  H133     1.0000 0.82853  0.07527  0.09167  Biso   1.000  H
  H134     1.0000 0.92473  0.75327  0.09167  Biso   1.000  H
  H135     1.0000 0.24673  0.17147  0.09167  Biso   1.000  H
  H136     1.0000 0.50480  0.59140  0.57500  Biso   1.000  H
  H137     1.0000 0.40860  0.91340  0.57500  Biso   1.000  H
  H138     1.0000 0.08660  0.49520  0.57500  Biso   1.000  H
  H139     1.0000 0.17147  0.92473  0.90833  Biso   1.000  H
  H140     1.0000 0.07527  0.24673  0.90833  Biso   1.000  H
  H141     1.0000 0.75327  0.82853  0.90833  Biso   1.000  H
  H142     1.0000 0.83813  0.25807  0.24167  Biso   1.000  H
  H143     1.0000 0.74193  0.58007  0.24167  Biso   1.000  H
  H144     1.0000 0.41993  0.16187  0.24167  Biso   1.000  H
  O55      1.0000 0.43487  0.26216  0.26170  Biso   1.000  O
  O56      1.0000 0.73784  0.17271  0.26170  Biso   1.000  O
  O57      1.0000 0.82729  0.56513  0.26170  Biso   1.000  O
  O58      1.0000 0.10154  0.59549  0.59503  Biso   1.000  O
  O59      1.0000 0.40451  0.50604  0.59503  Biso   1.000  O
  O60      1.0000 0.49396  0.89846  0.59503  Biso   1.000  O
  O61      1.0000 0.76820  0.92883  0.92837  Biso   1.000  O
  O62      1.0000 0.07117  0.83938  0.92837  Biso   1.000  O
  O63      1.0000 0.16062  0.23180  0.92837  Biso   1.000  O
  O64      1.0000 0.56513  0.73784  0.73830  Biso   1.000  O
  O65      1.0000 0.26216  0.82729  0.73830  Biso   1.000  O
  O66      1.0000 0.17271  0.43487  0.73830  Biso   1.000  O
  O67      1.0000 0.23180  0.07117  0.07163  Biso   1.000  O
  O68      1.0000 0.92883  0.16062  0.07163  Biso   1.000  O
  O69      1.0000 0.83938  0.76820  0.07163  Biso   1.000  O
  O70      1.0000 0.89846  0.40451  0.40497  Biso   1.000  O
  O71      1.0000 0.59549  0.49396  0.40497  Biso   1.000  O
  O72      1.0000 0.50604  0.10154  0.40497  Biso   1.000  O
  O73      1.0000 0.46081  0.31573  0.32000  Biso   1.000  O
  O74      1.0000 0.68427  0.14508  0.32000  Biso   1.000  O
  O75      1.0000 0.85492  0.53919  0.32000  Biso   1.000  O
  O76      1.0000 0.12748  0.64906  0.65333  Biso   1.000  O
  O77      1.0000 0.35094  0.47841  0.65333  Biso   1.000  O
  O78      1.0000 0.52159  0.87252  0.65333  Biso   1.000  O
  O79      1.0000 0.79414  0.98240  0.98667  Biso   1.000  O
  O80      1.0000 0.01760  0.81175  0.98667  Biso   1.000  O
  O81      1.0000 0.18825  0.20586  0.98667  Biso   1.000  O
  O82      1.0000 0.53919  0.68427  0.68000  Biso   1.000  O
  O83      1.0000 0.31573  0.85492  0.68000  Biso   1.000  O
  O84      1.0000 0.14508  0.46081  0.68000  Biso   1.000  O
  O85      1.0000 0.20586  0.01760  0.01333  Biso   1.000  O
  O86      1.0000 0.98240  0.18825  0.01333  Biso   1.000  O
  O87      1.0000 0.81175  0.79414  0.01333  Biso   1.000  O
  O88      1.0000 0.87252  0.35094  0.34667  Biso   1.000  O
  O89      1.0000 0.64906  0.52159  0.34667  Biso   1.000  O
  O90      1.0000 0.47841  0.12748  0.34667  Biso   1.000  O
  C73      1.0000 0.46382  0.29090  0.28750  Biso   1.000  C
  C74      1.0000 0.70910  0.17292  0.28750  Biso   1.000  C
  C75      1.0000 0.82708  0.53618  0.28750  Biso   1.000  C
  C76      1.0000 0.13049  0.62423  0.62083  Biso   1.000  C
  C77      1.0000 0.37577  0.50625  0.62083  Biso   1.000  C
  C78      1.0000 0.49375  0.86951  0.62083  Biso   1.000  C
  C79      1.0000 0.79715  0.95757  0.95417  Biso   1.000  C
  C80      1.0000 0.04243  0.83959  0.95417  Biso   1.000  C
  C81      1.0000 0.16041  0.20285  0.95417  Biso   1.000  C
  C82      1.0000 0.53618  0.70910  0.71250  Biso   1.000  C
  C83      1.0000 0.29090  0.82708  0.71250  Biso   1.000  C
  C84      1.0000 0.17292  0.46382  0.71250  Biso   1.000  C
  C85      1.0000 0.20285  0.04243  0.04583  Biso   1.000  C
  C86      1.0000 0.95757  0.16041  0.04583  Biso   1.000  C
  C87      1.0000 0.83959  0.79715  0.04583  Biso   1.000  C
  C88      1.0000 0.86951  0.37577  0.37917  Biso   1.000  C
  C89      1.0000 0.62423  0.49375  0.37917  Biso   1.000  C
  C90      1.0000 0.50625  0.13049  0.37917  Biso   1.000  C
  C91      1.0000 0.50557  0.29910  0.27690  Biso   1.000  C
  C92      1.0000 0.70090  0.20647  0.27690  Biso   1.000  C
  C93      1.0000 0.79353  0.49443  0.27690  Biso   1.000  C
  C94      1.0000 0.17224  0.63243  0.61023  Biso   1.000  C
  C95      1.0000 0.36757  0.53980  0.61023  Biso   1.000  C
  C96      1.0000 0.46020  0.82776  0.61023  Biso   1.000  C
  C97      1.0000 0.83890  0.96577  0.94357  Biso   1.000  C
  C98      1.0000 0.03423  0.87314  0.94357  Biso   1.000  C
  C99      1.0000 0.12686  0.16110  0.94357  Biso   1.000  C
  C100     1.0000 0.49443  0.70090  0.72310  Biso   1.000  C
  C101     1.0000 0.29910  0.79353  0.72310  Biso   1.000  C
  C102     1.0000 0.20647  0.50557  0.72310  Biso   1.000  C
  C103     1.0000 0.16110  0.03423  0.05643  Biso   1.000  C
  C104     1.0000 0.96577  0.12686  0.05643  Biso   1.000  C
  C105     1.0000 0.87314  0.83890  0.05643  Biso   1.000  C
  C106     1.0000 0.82776  0.36757  0.38977  Biso   1.000  C
  C107     1.0000 0.63243  0.46020  0.38977  Biso   1.000  C
  C108     1.0000 0.53980  0.17224  0.38977  Biso   1.000  C
  C109     1.0000 0.51280  0.27210  0.24570  Biso   1.000  C
  C110     1.0000 0.72790  0.24070  0.24570  Biso   1.000  C
  C111     1.0000 0.75930  0.48720  0.24570  Biso   1.000  C
  C112     1.0000 0.17947  0.60543  0.57903  Biso   1.000  C
  C113     1.0000 0.39457  0.57403  0.57903  Biso   1.000  C
  C114     1.0000 0.42597  0.82053  0.57903  Biso   1.000  C
  C115     1.0000 0.84613  0.93877  0.91237  Biso   1.000  C
  C116     1.0000 0.06123  0.90737  0.91237  Biso   1.000  C
  C117     1.0000 0.09263  0.15387  0.91237  Biso   1.000  C
  C118     1.0000 0.48720  0.72790  0.75430  Biso   1.000  C
  C119     1.0000 0.27210  0.75930  0.75430  Biso   1.000  C
  C120     1.0000 0.24070  0.51280  0.75430  Biso   1.000  C
  C121     1.0000 0.15387  0.06123  0.08763  Biso   1.000  C
  C122     1.0000 0.93877  0.09263  0.08763  Biso   1.000  C
  C123     1.0000 0.90737  0.84613  0.08763  Biso   1.000  C
  C124     1.0000 0.82053  0.39457  0.42097  Biso   1.000  C
  C125     1.0000 0.60543  0.42597  0.42097  Biso   1.000  C
  C126     1.0000 0.57403  0.17947  0.42097  Biso   1.000  C
  H145     1.0000 0.49080  0.24770  0.23130  Biso   1.000  H
  H146     1.0000 0.75230  0.24310  0.23130  Biso   1.000  H
  H147     1.0000 0.75690  0.50920  0.23130  Biso   1.000  H
  H148     1.0000 0.15747  0.58103  0.56463  Biso   1.000  H
  H149     1.0000 0.41897  0.57643  0.56463  Biso   1.000  H
  H150     1.0000 0.42357  0.84253  0.56463  Biso   1.000  H
  H151     1.0000 0.82413  0.91437  0.89797  Biso   1.000  H
  H152     1.0000 0.08563  0.90977  0.89797  Biso   1.000  H
  H153     1.0000 0.09023  0.17587  0.89797  Biso   1.000  H
  H154     1.0000 0.50920  0.75230  0.76870  Biso   1.000  H
  H155     1.0000 0.24770  0.75690  0.76870  Biso   1.000  H
  H156     1.0000 0.24310  0.49080  0.76870  Biso   1.000  H
  H157     1.0000 0.17587  0.08563  0.10203  Biso   1.000  H
  H158     1.0000 0.91437  0.09023  0.10203  Biso   1.000  H
  H159     1.0000 0.90977  0.82413  0.10203  Biso   1.000  H
  H160     1.0000 0.84253  0.41897  0.43537  Biso   1.000  H
  H161     1.0000 0.58103  0.42357  0.43537  Biso   1.000  H
  H162     1.0000 0.57643  0.15747  0.43537  Biso   1.000  H
  C127     1.0000 0.55180  0.28080  0.23600  Biso   1.000  C
  C128     1.0000 0.71920  0.27100  0.23600  Biso   1.000  C
  C129     1.0000 0.72900  0.44820  0.23600  Biso   1.000  C
  C130     1.0000 0.21847  0.61413  0.56933  Biso   1.000  C
  C131     1.0000 0.38587  0.60433  0.56933  Biso   1.000  C
  C132     1.0000 0.39567  0.78153  0.56933  Biso   1.000  C
  C133     1.0000 0.88513  0.94747  0.90267  Biso   1.000  C
  C134     1.0000 0.05253  0.93767  0.90267  Biso   1.000  C
  C135     1.0000 0.06233  0.11487  0.90267  Biso   1.000  C
  C136     1.0000 0.44820  0.71920  0.76400  Biso   1.000  C
  C137     1.0000 0.28080  0.72900  0.76400  Biso   1.000  C
  C138     1.0000 0.27100  0.55180  0.76400  Biso   1.000  C
  C139     1.0000 0.11487  0.05253  0.09733  Biso   1.000  C
  C140     1.0000 0.94747  0.06233  0.09733  Biso   1.000  C
  C141     1.0000 0.93767  0.88513  0.09733  Biso   1.000  C
  C142     1.0000 0.78153  0.38587  0.43067  Biso   1.000  C
  C143     1.0000 0.61413  0.39567  0.43067  Biso   1.000  C
  C144     1.0000 0.60433  0.21847  0.43067  Biso   1.000  C
  H163     1.0000 0.55640  0.26250  0.21400  Biso   1.000  H
  H164     1.0000 0.73750  0.29390  0.21400  Biso   1.000  H
  H165     1.0000 0.70610  0.44360  0.21400  Biso   1.000  H
  H166     1.0000 0.22307  0.59583  0.54733  Biso   1.000  H
  H167     1.0000 0.40417  0.62723  0.54733  Biso   1.000  H
  H168     1.0000 0.37277  0.77693  0.54733  Biso   1.000  H
  H169     1.0000 0.88973  0.92917  0.88067  Biso   1.000  H
  H170     1.0000 0.07083  0.96057  0.88067  Biso   1.000  H
  H171     1.0000 0.03943  0.11027  0.88067  Biso   1.000  H
  H172     1.0000 0.44360  0.73750  0.78600  Biso   1.000  H
  H173     1.0000 0.26250  0.70610  0.78600  Biso   1.000  H
  H174     1.0000 0.29390  0.55640  0.78600  Biso   1.000  H
  H175     1.0000 0.11027  0.07083  0.11933  Biso   1.000  H
  H176     1.0000 0.92917  0.03943  0.11933  Biso   1.000  H
  H177     1.0000 0.96057  0.88973  0.11933  Biso   1.000  H
  H178     1.0000 0.77693  0.40417  0.45267  Biso   1.000  H
  H179     1.0000 0.59583  0.37277  0.45267  Biso   1.000  H
  H180     1.0000 0.62723  0.22307  0.45267  Biso   1.000  H
  C145     1.0000 0.58470  0.31610  0.25760  Biso   1.000  C
  C146     1.0000 0.68390  0.26860  0.25760  Biso   1.000  C
  C147     1.0000 0.73140  0.41530  0.25760  Biso   1.000  C
  C148     1.0000 0.25137  0.64943  0.59093  Biso   1.000  C
  C149     1.0000 0.35057  0.60193  0.59093  Biso   1.000  C
  C150     1.0000 0.39807  0.74863  0.59093  Biso   1.000  C
  C151     1.0000 0.91803  0.98277  0.92427  Biso   1.000  C
  C152     1.0000 0.01723  0.93527  0.92427  Biso   1.000  C
  C153     1.0000 0.06473  0.08197  0.92427  Biso   1.000  C
  C154     1.0000 0.41530  0.68390  0.74240  Biso   1.000  C
  C155     1.0000 0.31610  0.73140  0.74240  Biso   1.000  C
  C156     1.0000 0.26860  0.58470  0.74240  Biso   1.000  C
  C157     1.0000 0.08197  0.01723  0.07573  Biso   1.000  C
  C158     1.0000 0.98277  0.06473  0.07573  Biso   1.000  C
  C159     1.0000 0.93527  0.91803  0.07573  Biso   1.000  C
  C160     1.0000 0.74863  0.35057  0.40907  Biso   1.000  C
  C161     1.0000 0.64943  0.39807  0.40907  Biso   1.000  C
  C162     1.0000 0.60193  0.25137  0.40907  Biso   1.000  C
  C163     1.0000 0.57680  0.34340  0.28860  Biso   1.000  C
  C164     1.0000 0.65660  0.23340  0.28860  Biso   1.000  C
  C165     1.0000 0.76660  0.42320  0.28860  Biso   1.000  C
  C166     1.0000 0.24347  0.67673  0.62193  Biso   1.000  C
  C167     1.0000 0.32327  0.56673  0.62193  Biso   1.000  C
  C168     1.0000 0.43327  0.75653  0.62193  Biso   1.000  C
  C169     1.0000 0.91013  0.01007  0.95527  Biso   1.000  C
  C170     1.0000 0.98993  0.90007  0.95527  Biso   1.000  C
  C171     1.0000 0.09993  0.08987  0.95527  Biso   1.000  C
  C172     1.0000 0.42320  0.65660  0.71140  Biso   1.000  C
  C173     1.0000 0.34340  0.76660  0.71140  Biso   1.000  C
  C174     1.0000 0.23340  0.57680  0.71140  Biso   1.000  C
  C175     1.0000 0.08987  0.98993  0.04473  Biso   1.000  C
  C176     1.0000 0.01007  0.09993  0.04473  Biso   1.000  C
  C177     1.0000 0.90007  0.91013  0.04473  Biso   1.000  C
  C178     1.0000 0.75653  0.32327  0.37807  Biso   1.000  C
  C179     1.0000 0.67673  0.43327  0.37807  Biso   1.000  C
  C180     1.0000 0.56673  0.24347  0.37807  Biso   1.000  C
  H181     1.0000 0.59850  0.36820  0.30240  Biso   1.000  H
  H182     1.0000 0.63180  0.23030  0.30240  Biso   1.000  H
  H183     1.0000 0.76970  0.40150  0.30240  Biso   1.000  H
  H184     1.0000 0.26517  0.70153  0.63573  Biso   1.000  H
  H185     1.0000 0.29847  0.56363  0.63573  Biso   1.000  H
  H186     1.0000 0.43637  0.73483  0.63573  Biso   1.000  H
  H187     1.0000 0.93183  0.03487  0.96907  Biso   1.000  H
  H188     1.0000 0.96513  0.89697  0.96907  Biso   1.000  H
  H189     1.0000 0.10303  0.06817  0.96907  Biso   1.000  H
  H190     1.0000 0.40150  0.63180  0.69760  Biso   1.000  H
  H191     1.0000 0.36820  0.76970  0.69760  Biso   1.000  H
  H192     1.0000 0.23030  0.59850  0.69760  Biso   1.000  H
  H193     1.0000 0.06817  0.96513  0.03093  Biso   1.000  H
  H194     1.0000 0.03487  0.10303  0.03093  Biso   1.000  H
  H195     1.0000 0.89697  0.93183  0.03093  Biso   1.000  H
  H196     1.0000 0.73483  0.29847  0.36427  Biso   1.000  H
  H197     1.0000 0.70153  0.43637  0.36427  Biso   1.000  H
  H198     1.0000 0.56363  0.26517  0.36427  Biso   1.000  H
  C181     1.0000 0.53790  0.33410  0.29870  Biso   1.000  C
  C182     1.0000 0.66590  0.20380  0.29870  Biso   1.000  C
  C183     1.0000 0.79620  0.46210  0.29870  Biso   1.000  C
  C184     1.0000 0.20457  0.66743  0.63203  Biso   1.000  C
  C185     1.0000 0.33257  0.53713  0.63203  Biso   1.000  C
  C186     1.0000 0.46287  0.79543  0.63203  Biso   1.000  C
  C187     1.0000 0.87123  0.00077  0.96537  Biso   1.000  C
  C188     1.0000 0.99923  0.87047  0.96537  Biso   1.000  C
  C189     1.0000 0.12953  0.12877  0.96537  Biso   1.000  C
  C190     1.0000 0.46210  0.66590  0.70130  Biso   1.000  C
  C191     1.0000 0.33410  0.79620  0.70130  Biso   1.000  C
  C192     1.0000 0.20380  0.53790  0.70130  Biso   1.000  C
  C193     1.0000 0.12877  0.99923  0.03463  Biso   1.000  C
  C194     1.0000 0.00077  0.12953  0.03463  Biso   1.000  C
  C195     1.0000 0.87047  0.87123  0.03463  Biso   1.000  C
  C196     1.0000 0.79543  0.33257  0.36797  Biso   1.000  C
  C197     1.0000 0.66743  0.46287  0.36797  Biso   1.000  C
  C198     1.0000 0.53713  0.20457  0.36797  Biso   1.000  C
  H199     1.0000 0.53290  0.35200  0.32110  Biso   1.000  H
  H200     1.0000 0.64800  0.18090  0.32110  Biso   1.000  H
  H201     1.0000 0.81910  0.46710  0.32110  Biso   1.000  H
  H202     1.0000 0.19957  0.68533  0.65443  Biso   1.000  H
  H203     1.0000 0.31467  0.51423  0.65443  Biso   1.000  H
  H204     1.0000 0.48577  0.80043  0.65443  Biso   1.000  H
  H205     1.0000 0.86623  0.01867  0.98777  Biso   1.000  H
  H206     1.0000 0.98133  0.84757  0.98777  Biso   1.000  H
  H207     1.0000 0.15243  0.13377  0.98777  Biso   1.000  H
  H208     1.0000 0.46710  0.64800  0.67890  Biso   1.000  H
  H209     1.0000 0.35200  0.81910  0.67890  Biso   1.000  H
  H210     1.0000 0.18090  0.53290  0.67890  Biso   1.000  H
  H211     1.0000 0.13377  0.98133  0.01223  Biso   1.000  H
  H212     1.0000 0.01867  0.15243  0.01223  Biso   1.000  H
  H213     1.0000 0.84757  0.86623  0.01223  Biso   1.000  H
  H214     1.0000 0.80043  0.31467  0.34557  Biso   1.000  H
  H215     1.0000 0.68533  0.48577  0.34557  Biso   1.000  H
  H216     1.0000 0.51423  0.19957  0.34557  Biso   1.000  H
  C199     1.0000 0.62656  0.32490  0.25080  Biso   1.000  C
  C200     1.0000 0.67510  0.30166  0.25080  Biso   1.000  C
  C201     1.0000 0.69834  0.37344  0.25080  Biso   1.000  C
  C202     1.0000 0.29323  0.65823  0.58413  Biso   1.000  C
  C203     1.0000 0.34177  0.63499  0.58413  Biso   1.000  C
  C204     1.0000 0.36501  0.70677  0.58413  Biso   1.000  C
  C205     1.0000 0.95989  0.99157  0.91747  Biso   1.000  C
  C206     1.0000 0.00843  0.96833  0.91747  Biso   1.000  C
  C207     1.0000 0.03167  0.04011  0.91747  Biso   1.000  C
  C208     1.0000 0.37344  0.67510  0.74920  Biso   1.000  C
  C209     1.0000 0.32490  0.69834  0.74920  Biso   1.000  C
  C210     1.0000 0.30166  0.62656  0.74920  Biso   1.000  C
  C211     1.0000 0.04011  0.00843  0.08253  Biso   1.000  C
  C212     1.0000 0.99157  0.03167  0.08253  Biso   1.000  C
  C213     1.0000 0.96833  0.95989  0.08253  Biso   1.000  C
  C214     1.0000 0.70677  0.34177  0.41587  Biso   1.000  C
  C215     1.0000 0.65823  0.36501  0.41587  Biso   1.000  C
  C216     1.0000 0.63499  0.29323  0.41587  Biso   1.000  C
  C217     1.0000 0.63550  0.29380  0.25020  Biso   1.000  C
  C218     1.0000 0.70620  0.34170  0.25020  Biso   1.000  C
  C219     1.0000 0.65830  0.36450  0.25020  Biso   1.000  C
  C220     1.0000 0.30217  0.62713  0.58353  Biso   1.000  C
  C221     1.0000 0.37287  0.67503  0.58353  Biso   1.000  C
  C222     1.0000 0.32497  0.69783  0.58353  Biso   1.000  C
  C223     1.0000 0.96883  0.96047  0.91687  Biso   1.000  C
  C224     1.0000 0.03953  0.00837  0.91687  Biso   1.000  C
  C225     1.0000 0.99163  0.03117  0.91687  Biso   1.000  C
  C226     1.0000 0.36450  0.70620  0.74980  Biso   1.000  C
  C227     1.0000 0.29380  0.65830  0.74980  Biso   1.000  C
  C228     1.0000 0.34170  0.63550  0.74980  Biso   1.000  C
  C229     1.0000 0.03117  0.03953  0.08313  Biso   1.000  C
  C230     1.0000 0.96047  0.99163  0.08313  Biso   1.000  C
  C231     1.0000 0.00837  0.96883  0.08313  Biso   1.000  C
  C232     1.0000 0.69783  0.37287  0.41647  Biso   1.000  C
  C233     1.0000 0.62713  0.32497  0.41647  Biso   1.000  C
  C234     1.0000 0.67503  0.30217  0.41647  Biso   1.000  C
  H217     1.0000 0.61410  0.26660  0.24940  Biso   1.000  H
  H218     1.0000 0.73340  0.34750  0.24940  Biso   1.000  H
  H219     1.0000 0.65250  0.38590  0.24940  Biso   1.000  H
  H220     1.0000 0.28077  0.59993  0.58273  Biso   1.000  H
  H221     1.0000 0.40007  0.68083  0.58273  Biso   1.000  H
  H222     1.0000 0.31917  0.71923  0.58273  Biso   1.000  H
  H223     1.0000 0.94743  0.93327  0.91607  Biso   1.000  H
  H224     1.0000 0.06673  0.01417  0.91607  Biso   1.000  H
  H225     1.0000 0.98583  0.05257  0.91607  Biso   1.000  H
  H226     1.0000 0.38590  0.73340  0.75060  Biso   1.000  H
  H227     1.0000 0.26660  0.65250  0.75060  Biso   1.000  H
  H228     1.0000 0.34750  0.61410  0.75060  Biso   1.000  H
  H229     1.0000 0.05257  0.06673  0.08393  Biso   1.000  H
  H230     1.0000 0.93327  0.98583  0.08393  Biso   1.000  H
  H231     1.0000 0.01417  0.94743  0.08393  Biso   1.000  H
  H232     1.0000 0.71923  0.40007  0.41727  Biso   1.000  H
  H233     1.0000 0.59993  0.31917  0.41727  Biso   1.000  H
  H234     1.0000 0.68083  0.28077  0.41727  Biso   1.000  H
  O91      1.0000 0.33282  0.26403  0.26390  Biso   1.000  O
  O92      1.0000 0.73597  0.06879  0.26390  Biso   1.000  O
  O93      1.0000 0.93121  0.66718  0.26390  Biso   1.000  O
  O94      1.0000 0.99949  0.59736  0.59723  Biso   1.000  O
  O95      1.0000 0.40264  0.40212  0.59723  Biso   1.000  O
  O96      1.0000 0.59788  0.00051  0.59723  Biso   1.000  O
  O97      1.0000 0.66615  0.93070  0.93057  Biso   1.000  O
  O98      1.0000 0.06930  0.73546  0.93057  Biso   1.000  O
  O99      1.0000 0.26454  0.33385  0.93057  Biso   1.000  O
  O100     1.0000 0.66718  0.73597  0.73610  Biso   1.000  O
  O101     1.0000 0.26403  0.93121  0.73610  Biso   1.000  O
  O102     1.0000 0.06879  0.33282  0.73610  Biso   1.000  O
  O103     1.0000 0.33385  0.06930  0.06943  Biso   1.000  O
  O104     1.0000 0.93070  0.26454  0.06943  Biso   1.000  O
  O105     1.0000 0.73546  0.66615  0.06943  Biso   1.000  O
  O106     1.0000 0.00051  0.40264  0.40277  Biso   1.000  O
  O107     1.0000 0.59736  0.59788  0.40277  Biso   1.000  O
  O108     1.0000 0.40212  0.99949  0.40277  Biso   1.000  O
  O109     1.0000 0.36125  0.31798  0.32220  Biso   1.000  O
  O110     1.0000 0.68202  0.04327  0.32220  Biso   1.000  O
  O111     1.0000 0.95673  0.63875  0.32220  Biso   1.000  O
  O112     1.0000 0.02792  0.65131  0.65553  Biso   1.000  O
  O113     1.0000 0.34869  0.37660  0.65553  Biso   1.000  O
  O114     1.0000 0.62340  0.97208  0.65553  Biso   1.000  O
  O115     1.0000 0.69458  0.98465  0.98887  Biso   1.000  O
  O116     1.0000 0.01535  0.70994  0.98887  Biso   1.000  O
  O117     1.0000 0.29006  0.30542  0.98887  Biso   1.000  O
  O118     1.0000 0.63875  0.68202  0.67780  Biso   1.000  O
  O119     1.0000 0.31798  0.95673  0.67780  Biso   1.000  O
  O120     1.0000 0.04327  0.36125  0.67780  Biso   1.000  O
  O121     1.0000 0.30542  0.01535  0.01113  Biso   1.000  O
  O122     1.0000 0.98465  0.29006  0.01113  Biso   1.000  O
  O123     1.0000 0.70994  0.69458  0.01113  Biso   1.000  O
  O124     1.0000 0.97208  0.34869  0.34447  Biso   1.000  O
  O125     1.0000 0.65131  0.62340  0.34447  Biso   1.000  O
  O126     1.0000 0.37660  0.02792  0.34447  Biso   1.000  O
  O127     1.0000 0.13700  0.36324  0.67022  Biso   1.000  O
  O128     1.0000 0.63676  0.77376  0.67022  Biso   1.000  O
  O129     1.0000 0.22624  0.86300  0.67022  Biso   1.000  O
  O130     1.0000 0.80367  0.69657  0.00355  Biso   1.000  O
  O131     1.0000 0.30343  0.10709  0.00355  Biso   1.000  O
  O132     1.0000 0.89291  0.19633  0.00355  Biso   1.000  O
  O133     1.0000 0.47033  0.02991  0.33689  Biso   1.000  O
  O134     1.0000 0.97009  0.44043  0.33689  Biso   1.000  O
  O135     1.0000 0.55957  0.52967  0.33689  Biso   1.000  O
  O136     1.0000 0.86300  0.63676  0.32978  Biso   1.000  O
  O137     1.0000 0.36324  0.22624  0.32978  Biso   1.000  O
  O138     1.0000 0.77376  0.13700  0.32978  Biso   1.000  O
  O139     1.0000 0.52967  0.97009  0.66311  Biso   1.000  O
  O140     1.0000 0.02991  0.55957  0.66311  Biso   1.000  O
  O141     1.0000 0.44043  0.47033  0.66311  Biso   1.000  O
  O142     1.0000 0.19633  0.30343  0.99645  Biso   1.000  O
  O143     1.0000 0.69657  0.89291  0.99645  Biso   1.000  O
  O144     1.0000 0.10709  0.80367  0.99645  Biso   1.000  O
  O145     1.0000 0.11054  0.39157  0.61320  Biso   1.000  O
  O146     1.0000 0.60843  0.71897  0.61320  Biso   1.000  O
  O147     1.0000 0.28103  0.88946  0.61320  Biso   1.000  O
  O148     1.0000 0.77721  0.72490  0.94653  Biso   1.000  O
  O149     1.0000 0.27510  0.05230  0.94653  Biso   1.000  O
  O150     1.0000 0.94770  0.22279  0.94653  Biso   1.000  O
  O151     1.0000 0.44387  0.05824  0.27987  Biso   1.000  O
  O152     1.0000 0.94176  0.38564  0.27987  Biso   1.000  O
  O153     1.0000 0.61436  0.55613  0.27987  Biso   1.000  O
  O154     1.0000 0.88946  0.60843  0.38680  Biso   1.000  O
  O155     1.0000 0.39157  0.28103  0.38680  Biso   1.000  O
  O156     1.0000 0.71897  0.11054  0.38680  Biso   1.000  O
  O157     1.0000 0.55613  0.94176  0.72013  Biso   1.000  O
  O158     1.0000 0.05824  0.61436  0.72013  Biso   1.000  O
  O159     1.0000 0.38564  0.44387  0.72013  Biso   1.000  O
  O160     1.0000 0.22279  0.27510  0.05347  Biso   1.000  O
  O161     1.0000 0.72490  0.94770  0.05347  Biso   1.000  O
  O162     1.0000 0.05230  0.77721  0.05347  Biso   1.000  O
  O163     1.0000 0.96798  0.23020  0.13610  Biso   1.000  O
  O164     1.0000 0.76980  0.73778  0.13610  Biso   1.000  O
  O165     1.0000 0.26222  0.03202  0.13610  Biso   1.000  O
  O166     1.0000 0.63465  0.56353  0.46943  Biso   1.000  O
  O167     1.0000 0.43647  0.07111  0.46943  Biso   1.000  O
  O168     1.0000 0.92889  0.36535  0.46943  Biso   1.000  O
  O169     1.0000 0.30131  0.89687  0.80277  Biso   1.000  O
  O170     1.0000 0.10313  0.40445  0.80277  Biso   1.000  O
  O171     1.0000 0.59555  0.69869  0.80277  Biso   1.000  O
  O172     1.0000 0.03202  0.76980  0.86390  Biso   1.000  O
  O173     1.0000 0.23020  0.26222  0.86390  Biso   1.000  O
  O174     1.0000 0.73778  0.96798  0.86390  Biso   1.000  O
  O175     1.0000 0.69869  0.10313  0.19723  Biso   1.000  O
  O176     1.0000 0.89687  0.59555  0.19723  Biso   1.000  O
  O177     1.0000 0.40445  0.30131  0.19723  Biso   1.000  O
  O178     1.0000 0.36535  0.43647  0.53057  Biso   1.000  O
  O179     1.0000 0.56353  0.92889  0.53057  Biso   1.000  O
  O180     1.0000 0.07111  0.63465  0.53057  Biso   1.000  O
  O181     1.0000 0.02090  0.25682  0.07560  Biso   1.000  O
  O182     1.0000 0.74318  0.76408  0.07560  Biso   1.000  O
  O183     1.0000 0.23592  0.97910  0.07560  Biso   1.000  O
  O184     1.0000 0.68757  0.59015  0.40893  Biso   1.000  O
  O185     1.0000 0.40985  0.09741  0.40893  Biso   1.000  O
  O186     1.0000 0.90259  0.31243  0.40893  Biso   1.000  O
  O187     1.0000 0.35423  0.92349  0.74227  Biso   1.000  O
  O188     1.0000 0.07651  0.43075  0.74227  Biso   1.000  O
  O189     1.0000 0.56925  0.64577  0.74227  Biso   1.000  O
  O190     1.0000 0.97910  0.74318  0.92440  Biso   1.000  O
  O191     1.0000 0.25682  0.23592  0.92440  Biso   1.000  O
  O192     1.0000 0.76408  0.02090  0.92440  Biso   1.000  O
  O193     1.0000 0.64577  0.07651  0.25773  Biso   1.000  O
  O194     1.0000 0.92349  0.56925  0.25773  Biso   1.000  O
  O195     1.0000 0.43075  0.35423  0.25773  Biso   1.000  O
  O196     1.0000 0.31243  0.40985  0.59107  Biso   1.000  O
  O197     1.0000 0.59015  0.90259  0.59107  Biso   1.000  O
  O198     1.0000 0.09741  0.68757  0.59107  Biso   1.000  O
  C235     1.0000 0.33160  0.28940  0.29620  Biso   1.000  C
  C236     1.0000 0.71060  0.04220  0.29620  Biso   1.000  C
  C237     1.0000 0.95780  0.66840  0.29620  Biso   1.000  C
  C238     1.0000 0.99827  0.62273  0.62953  Biso   1.000  C
  C239     1.0000 0.37727  0.37553  0.62953  Biso   1.000  C
  C240     1.0000 0.62447  0.00173  0.62953  Biso   1.000  C
  C241     1.0000 0.66493  0.95607  0.96287  Biso   1.000  C
  C242     1.0000 0.04393  0.70887  0.96287  Biso   1.000  C
  C243     1.0000 0.29113  0.33507  0.96287  Biso   1.000  C
  C244     1.0000 0.66840  0.71060  0.70380  Biso   1.000  C
  C245     1.0000 0.28940  0.95780  0.70380  Biso   1.000  C
  C246     1.0000 0.04220  0.33160  0.70380  Biso   1.000  C
  C247     1.0000 0.33507  0.04393  0.03713  Biso   1.000  C
  C248     1.0000 0.95607  0.29113  0.03713  Biso   1.000  C
  C249     1.0000 0.70887  0.66493  0.03713  Biso   1.000  C
  C250     1.0000 0.00173  0.37727  0.37047  Biso   1.000  C
  C251     1.0000 0.62273  0.62447  0.37047  Biso   1.000  C
  C252     1.0000 0.37553  0.99827  0.37047  Biso   1.000  C
  C253     1.0000 0.29220  0.28700  0.30830  Biso   1.000  C
  C254     1.0000 0.71300  0.00520  0.30830  Biso   1.000  C
  C255     1.0000 0.99480  0.70780  0.30830  Biso   1.000  C
  C256     1.0000 0.95887  0.62033  0.64163  Biso   1.000  C
  C257     1.0000 0.37967  0.33853  0.64163  Biso   1.000  C
  C258     1.0000 0.66147  0.04113  0.64163  Biso   1.000  C
  C259     1.0000 0.62553  0.95367  0.97497  Biso   1.000  C
  C260     1.0000 0.04633  0.67187  0.97497  Biso   1.000  C
  C261     1.0000 0.32813  0.37447  0.97497  Biso   1.000  C
  C262     1.0000 0.70780  0.71300  0.69170  Biso   1.000  C
  C263     1.0000 0.28700  0.99480  0.69170  Biso   1.000  C
  C264     1.0000 0.00520  0.29220  0.69170  Biso   1.000  C
  C265     1.0000 0.37447  0.04633  0.02503  Biso   1.000  C
  C266     1.0000 0.95367  0.32813  0.02503  Biso   1.000  C
  C267     1.0000 0.67187  0.62553  0.02503  Biso   1.000  C
  C268     1.0000 0.04113  0.37967  0.35837  Biso   1.000  C
  C269     1.0000 0.62033  0.66147  0.35837  Biso   1.000  C
  C270     1.0000 0.33853  0.95887  0.35837  Biso   1.000  C
  C271     1.0000 0.25650  0.25670  0.28210  Biso   1.000  C
  C272     1.0000 0.74330  0.99980  0.28210  Biso   1.000  C
  C273     1.0000 0.00020  0.74350  0.28210  Biso   1.000  C
  C274     1.0000 0.92317  0.59003  0.61543  Biso   1.000  C
  C275     1.0000 0.40997  0.33313  0.61543  Biso   1.000  C
  C276     1.0000 0.66687  0.07683  0.61543  Biso   1.000  C
  C277     1.0000 0.58983  0.92337  0.94877  Biso   1.000  C
  C278     1.0000 0.07663  0.66647  0.94877  Biso   1.000  C
  C279     1.0000 0.33353  0.41017  0.94877  Biso   1.000  C
  C280     1.0000 0.74350  0.74330  0.71790  Biso   1.000  C
  C281     1.0000 0.25670  0.00020  0.71790  Biso   1.000  C
  C282     1.0000 0.99980  0.25650  0.71790  Biso   1.000  C
  C283     1.0000 0.41017  0.07663  0.05123  Biso   1.000  C
  C284     1.0000 0.92337  0.33353  0.05123  Biso   1.000  C
  C285     1.0000 0.66647  0.58983  0.05123  Biso   1.000  C
  C286     1.0000 0.07683  0.40997  0.38457  Biso   1.000  C
  C287     1.0000 0.59003  0.66687  0.38457  Biso   1.000  C
  C288     1.0000 0.33313  0.92317  0.38457  Biso   1.000  C
  H235     1.0000 0.25770  0.23830  0.25560  Biso   1.000  H
  H236     1.0000 0.76170  0.01940  0.25560  Biso   1.000  H
  H237     1.0000 0.98060  0.74230  0.25560  Biso   1.000  H
  H238     1.0000 0.92437  0.57163  0.58893  Biso   1.000  H
  H239     1.0000 0.42837  0.35273  0.58893  Biso   1.000  H
  H240     1.0000 0.64727  0.07563  0.58893  Biso   1.000  H
  H241     1.0000 0.59103  0.90497  0.92227  Biso   1.000  H
  H242     1.0000 0.09503  0.68607  0.92227  Biso   1.000  H
  H243     1.0000 0.31393  0.40897  0.92227  Biso   1.000  H
  H244     1.0000 0.74230  0.76170  0.74440  Biso   1.000  H
  H245     1.0000 0.23830  0.98060  0.74440  Biso   1.000  H
  H246     1.0000 0.01940  0.25770  0.74440  Biso   1.000  H
  H247     1.0000 0.40897  0.09503  0.07773  Biso   1.000  H
  H248     1.0000 0.90497  0.31393  0.07773  Biso   1.000  H
  H249     1.0000 0.68607  0.59103  0.07773  Biso   1.000  H
  H250     1.0000 0.07563  0.42837  0.41107  Biso   1.000  H
  H251     1.0000 0.57163  0.64727  0.41107  Biso   1.000  H
  H252     1.0000 0.35273  0.92437  0.41107  Biso   1.000  H
  C289     1.0000 0.21970  0.25360  0.29490  Biso   1.000  C
  C290     1.0000 0.74640  0.96610  0.29490  Biso   1.000  C
  C291     1.0000 0.03390  0.78030  0.29490  Biso   1.000  C
  C292     1.0000 0.88637  0.58693  0.62823  Biso   1.000  C
  C293     1.0000 0.41307  0.29943  0.62823  Biso   1.000  C
  C294     1.0000 0.70057  0.11363  0.62823  Biso   1.000  C
  C295     1.0000 0.55303  0.92027  0.96157  Biso   1.000  C
  C296     1.0000 0.07973  0.63277  0.96157  Biso   1.000  C
  C297     1.0000 0.36723  0.44697  0.96157  Biso   1.000  C
  C298     1.0000 0.78030  0.74640  0.70510  Biso   1.000  C
  C299     1.0000 0.25360  0.03390  0.70510  Biso   1.000  C
  C300     1.0000 0.96610  0.21970  0.70510  Biso   1.000  C
  C301     1.0000 0.44697  0.07973  0.03843  Biso   1.000  C
  C302     1.0000 0.92027  0.36723  0.03843  Biso   1.000  C
  C303     1.0000 0.63277  0.55303  0.03843  Biso   1.000  C
  C304     1.0000 0.11363  0.41307  0.37177  Biso   1.000  C
  C305     1.0000 0.58693  0.70057  0.37177  Biso   1.000  C
  C306     1.0000 0.29943  0.88637  0.37177  Biso   1.000  C
  H253     1.0000 0.19590  0.23360  0.27610  Biso   1.000  H
  H254     1.0000 0.76640  0.96230  0.27610  Biso   1.000  H
  H255     1.0000 0.03770  0.80410  0.27610  Biso   1.000  H
  H256     1.0000 0.86257  0.56693  0.60943  Biso   1.000  H
  H257     1.0000 0.43307  0.29563  0.60943  Biso   1.000  H
  H258     1.0000 0.70437  0.13743  0.60943  Biso   1.000  H
  H259     1.0000 0.52923  0.90027  0.94277  Biso   1.000  H
  H260     1.0000 0.09973  0.62897  0.94277  Biso   1.000  H
  H261     1.0000 0.37103  0.47077  0.94277  Biso   1.000  H
  H262     1.0000 0.80410  0.76640  0.72390  Biso   1.000  H
  H263     1.0000 0.23360  0.03770  0.72390  Biso   1.000  H
  H264     1.0000 0.96230  0.19590  0.72390  Biso   1.000  H
  H265     1.0000 0.47077  0.09973  0.05723  Biso   1.000  H
  H266     1.0000 0.90027  0.37103  0.05723  Biso   1.000  H
  H267     1.0000 0.62897  0.52923  0.05723  Biso   1.000  H
  H268     1.0000 0.13743  0.43307  0.39057  Biso   1.000  H
  H269     1.0000 0.56693  0.70437  0.39057  Biso   1.000  H
  H270     1.0000 0.29563  0.86257  0.39057  Biso   1.000  H
  C307     1.0000 0.21720  0.27950  0.33470  Biso   1.000  C
  C308     1.0000 0.72050  0.93770  0.33470  Biso   1.000  C
  C309     1.0000 0.06230  0.78280  0.33470  Biso   1.000  C
  C310     1.0000 0.88387  0.61283  0.66803  Biso   1.000  C
  C311     1.0000 0.38717  0.27103  0.66803  Biso   1.000  C
  C312     1.0000 0.72897  0.11613  0.66803  Biso   1.000  C
  C313     1.0000 0.55053  0.94617  0.00137  Biso   1.000  C
  C314     1.0000 0.05383  0.60437  0.00137  Biso   1.000  C
  C315     1.0000 0.39563  0.44947  0.00137  Biso   1.000  C
  C316     1.0000 0.78280  0.72050  0.66530  Biso   1.000  C
  C317     1.0000 0.27950  0.06230  0.66530  Biso   1.000  C
  C318     1.0000 0.93770  0.21720  0.66530  Biso   1.000  C
  C319     1.0000 0.44947  0.05383  0.99863  Biso   1.000  C
  C320     1.0000 0.94617  0.39563  0.99863  Biso   1.000  C
  C321     1.0000 0.60437  0.55053  0.99863  Biso   1.000  C
  C322     1.0000 0.11613  0.38717  0.33197  Biso   1.000  C
  C323     1.0000 0.61283  0.72897  0.33197  Biso   1.000  C
  C324     1.0000 0.27103  0.88387  0.33197  Biso   1.000  C
  C325     1.0000 0.25220  0.30910  0.36120  Biso   1.000  C
  C326     1.0000 0.69090  0.94310  0.36120  Biso   1.000  C
  C327     1.0000 0.05690  0.74780  0.36120  Biso   1.000  C
  C328     1.0000 0.91887  0.64243  0.69453  Biso   1.000  C
  C329     1.0000 0.35757  0.27643  0.69453  Biso   1.000  C
  C330     1.0000 0.72357  0.08113  0.69453  Biso   1.000  C
  C331     1.0000 0.58553  0.97577  0.02787  Biso   1.000  C
  C332     1.0000 0.02423  0.60977  0.02787  Biso   1.000  C
  C333     1.0000 0.39023  0.41447  0.02787  Biso   1.000  C
  C334     1.0000 0.74780  0.69090  0.63880  Biso   1.000  C
  C335     1.0000 0.30910  0.05690  0.63880  Biso   1.000  C
  C336     1.0000 0.94310  0.25220  0.63880  Biso   1.000  C
  C337     1.0000 0.41447  0.02423  0.97213  Biso   1.000  C
  C338     1.0000 0.97577  0.39023  0.97213  Biso   1.000  C
  C339     1.0000 0.60977  0.58553  0.97213  Biso   1.000  C
  C340     1.0000 0.08113  0.35757  0.30547  Biso   1.000  C
  C341     1.0000 0.64243  0.72357  0.30547  Biso   1.000  C
  C342     1.0000 0.27643  0.91887  0.30547  Biso   1.000  C
  H271     1.0000 0.25080  0.32720  0.38830  Biso   1.000  H
  H272     1.0000 0.67280  0.92360  0.38830  Biso   1.000  H
  H273     1.0000 0.07640  0.74920  0.38830  Biso   1.000  H
  H274     1.0000 0.91747  0.66053  0.72163  Biso   1.000  H
  H275     1.0000 0.33947  0.25693  0.72163  Biso   1.000  H
  H276     1.0000 0.74307  0.08253  0.72163  Biso   1.000  H
  H277     1.0000 0.58413  0.99387  0.05497  Biso   1.000  H
  H278     1.0000 0.00613  0.59027  0.05497  Biso   1.000  H
  H279     1.0000 0.40973  0.41587  0.05497  Biso   1.000  H
  H280     1.0000 0.74920  0.67280  0.61170  Biso   1.000  H
  H281     1.0000 0.32720  0.07640  0.61170  Biso   1.000  H
  H282     1.0000 0.92360  0.25080  0.61170  Biso   1.000  H
  H283     1.0000 0.41587  0.00613  0.94503  Biso   1.000  H
  H284     1.0000 0.99387  0.40973  0.94503  Biso   1.000  H
  H285     1.0000 0.59027  0.58413  0.94503  Biso   1.000  H
  H286     1.0000 0.08253  0.33947  0.27837  Biso   1.000  H
  H287     1.0000 0.66053  0.74307  0.27837  Biso   1.000  H
  H288     1.0000 0.25693  0.91747  0.27837  Biso   1.000  H
  C343     1.0000 0.28920  0.31240  0.34820  Biso   1.000  C
  C344     1.0000 0.68760  0.97680  0.34820  Biso   1.000  C
  C345     1.0000 0.02320  0.71080  0.34820  Biso   1.000  C
  C346     1.0000 0.95587  0.64573  0.68153  Biso   1.000  C
  C347     1.0000 0.35427  0.31013  0.68153  Biso   1.000  C
  C348     1.0000 0.68987  0.04413  0.68153  Biso   1.000  C
  C349     1.0000 0.62253  0.97907  0.01487  Biso   1.000  C
  C350     1.0000 0.02093  0.64347  0.01487  Biso   1.000  C
  C351     1.0000 0.35653  0.37747  0.01487  Biso   1.000  C
  C352     1.0000 0.71080  0.68760  0.65180  Biso   1.000  C
  C353     1.0000 0.31240  0.02320  0.65180  Biso   1.000  C
  C354     1.0000 0.97680  0.28920  0.65180  Biso   1.000  C
  C355     1.0000 0.37747  0.02093  0.98513  Biso   1.000  C
  C356     1.0000 0.97907  0.35653  0.98513  Biso   1.000  C
  C357     1.0000 0.64347  0.62253  0.98513  Biso   1.000  C
  C358     1.0000 0.04413  0.35427  0.31847  Biso   1.000  C
  C359     1.0000 0.64573  0.68987  0.31847  Biso   1.000  C
  C360     1.0000 0.31013  0.95587  0.31847  Biso   1.000  C
  H289     1.0000 0.31290  0.33250  0.36700  Biso   1.000  H
  H290     1.0000 0.66750  0.98040  0.36700  Biso   1.000  H
  H291     1.0000 0.01960  0.68710  0.36700  Biso   1.000  H
  H292     1.0000 0.97957  0.66583  0.70033  Biso   1.000  H
  H293     1.0000 0.33417  0.31373  0.70033  Biso   1.000  H
  H294     1.0000 0.68627  0.02043  0.70033  Biso   1.000  H
  H295     1.0000 0.64623  0.99917  0.03367  Biso   1.000  H
  H296     1.0000 0.00083  0.64707  0.03367  Biso   1.000  H
  H297     1.0000 0.35293  0.35377  0.03367  Biso   1.000  H
  H298     1.0000 0.68710  0.66750  0.63300  Biso   1.000  H
  H299     1.0000 0.33250  0.01960  0.63300  Biso   1.000  H
  H300     1.0000 0.98040  0.31290  0.63300  Biso   1.000  H
  H301     1.0000 0.35377  0.00083  0.96633  Biso   1.000  H
  H302     1.0000 0.99917  0.35293  0.96633  Biso   1.000  H
  H303     1.0000 0.64707  0.64623  0.96633  Biso   1.000  H
  H304     1.0000 0.02043  0.33417  0.29967  Biso   1.000  H
  H305     1.0000 0.66583  0.68627  0.29967  Biso   1.000  H
  H306     1.0000 0.31373  0.97957  0.29967  Biso   1.000  H
  C361     1.0000 0.17800  0.27770  0.34760  Biso   1.000  C
  C362     1.0000 0.72230  0.90030  0.34760  Biso   1.000  C
  C363     1.0000 0.09970  0.82200  0.34760  Biso   1.000  C
  C364     1.0000 0.84467  0.61103  0.68093  Biso   1.000  C
  C365     1.0000 0.38897  0.23363  0.68093  Biso   1.000  C
  C366     1.0000 0.76637  0.15533  0.68093  Biso   1.000  C
  C367     1.0000 0.51133  0.94437  0.01427  Biso   1.000  C
  C368     1.0000 0.05563  0.56697  0.01427  Biso   1.000  C
  C369     1.0000 0.43303  0.48867  0.01427  Biso   1.000  C
  C370     1.0000 0.82200  0.72230  0.65240  Biso   1.000  C
  C371     1.0000 0.27770  0.09970  0.65240  Biso   1.000  C
  C372     1.0000 0.90030  0.17800  0.65240  Biso   1.000  C
  C373     1.0000 0.48867  0.05563  0.98573  Biso   1.000  C
  C374     1.0000 0.94437  0.43303  0.98573  Biso   1.000  C
  C375     1.0000 0.56697  0.51133  0.98573  Biso   1.000  C
  C376     1.0000 0.15533  0.38897  0.31907  Biso   1.000  C
  C377     1.0000 0.61103  0.76637  0.31907  Biso   1.000  C
  C378     1.0000 0.23363  0.84467  0.31907  Biso   1.000  C
  C379     1.0000 0.14860  0.26600  0.30440  Biso   1.000  C
  C380     1.0000 0.73400  0.88260  0.30440  Biso   1.000  C
  C381     1.0000 0.11740  0.85140  0.30440  Biso   1.000  C
  C382     1.0000 0.81527  0.59933  0.63773  Biso   1.000  C
  C383     1.0000 0.40067  0.21593  0.63773  Biso   1.000  C
  C384     1.0000 0.78407  0.18473  0.63773  Biso   1.000  C
  C385     1.0000 0.48193  0.93267  0.97107  Biso   1.000  C
  C386     1.0000 0.06733  0.54927  0.97107  Biso   1.000  C
  C387     1.0000 0.45073  0.51807  0.97107  Biso   1.000  C
  C388     1.0000 0.85140  0.73400  0.69560  Biso   1.000  C
  C389     1.0000 0.26600  0.11740  0.69560  Biso   1.000  C
  C390     1.0000 0.88260  0.14860  0.69560  Biso   1.000  C
  C391     1.0000 0.51807  0.06733  0.02893  Biso   1.000  C
  C392     1.0000 0.93267  0.45073  0.02893  Biso   1.000  C
  C393     1.0000 0.54927  0.48193  0.02893  Biso   1.000  C
  C394     1.0000 0.18473  0.40067  0.36227  Biso   1.000  C
  C395     1.0000 0.59933  0.78407  0.36227  Biso   1.000  C
  C396     1.0000 0.21593  0.81527  0.36227  Biso   1.000  C
  H307     1.0000 0.15220  0.25620  0.26820  Biso   1.000  H
  H308     1.0000 0.74380  0.89600  0.26820  Biso   1.000  H
  H309     1.0000 0.10400  0.84780  0.26820  Biso   1.000  H
  H310     1.0000 0.81887  0.58953  0.60153  Biso   1.000  H
  H311     1.0000 0.41047  0.22933  0.60153  Biso   1.000  H
  H312     1.0000 0.77067  0.18113  0.60153  Biso   1.000  H
  H313     1.0000 0.48553  0.92287  0.93487  Biso   1.000  H
  H314     1.0000 0.07713  0.56267  0.93487  Biso   1.000  H
  H315     1.0000 0.43733  0.51447  0.93487  Biso   1.000  H
  H316     1.0000 0.84780  0.74380  0.73180  Biso   1.000  H
  H317     1.0000 0.25620  0.10400  0.73180  Biso   1.000  H
  H318     1.0000 0.89600  0.15220  0.73180  Biso   1.000  H
  H319     1.0000 0.51447  0.07713  0.06513  Biso   1.000  H
  H320     1.0000 0.92287  0.43733  0.06513  Biso   1.000  H
  H321     1.0000 0.56267  0.48553  0.06513  Biso   1.000  H
  H322     1.0000 0.18113  0.41047  0.39847  Biso   1.000  H
  H323     1.0000 0.58953  0.77067  0.39847  Biso   1.000  H
  H324     1.0000 0.22933  0.81887  0.39847  Biso   1.000  H
  C397     1.0000 0.11410  0.26870  0.31410  Biso   1.000  C
  C398     1.0000 0.73130  0.84540  0.31410  Biso   1.000  C
  C399     1.0000 0.15460  0.88590  0.31410  Biso   1.000  C
  C400     1.0000 0.78077  0.60203  0.64743  Biso   1.000  C
  C401     1.0000 0.39797  0.17873  0.64743  Biso   1.000  C
  C402     1.0000 0.82127  0.21923  0.64743  Biso   1.000  C
  C403     1.0000 0.44743  0.93537  0.98077  Biso   1.000  C
  C404     1.0000 0.06463  0.51207  0.98077  Biso   1.000  C
  C405     1.0000 0.48793  0.55257  0.98077  Biso   1.000  C
  C406     1.0000 0.88590  0.73130  0.68590  Biso   1.000  C
  C407     1.0000 0.26870  0.15460  0.68590  Biso   1.000  C
  C408     1.0000 0.84540  0.11410  0.68590  Biso   1.000  C
  C409     1.0000 0.55257  0.06463  0.01923  Biso   1.000  C
  C410     1.0000 0.93537  0.48793  0.01923  Biso   1.000  C
  C411     1.0000 0.51207  0.44743  0.01923  Biso   1.000  C
  C412     1.0000 0.21923  0.39797  0.35257  Biso   1.000  C
  C413     1.0000 0.60203  0.82127  0.35257  Biso   1.000  C
  C414     1.0000 0.17873  0.78077  0.35257  Biso   1.000  C
  C415     1.0000 0.10760  0.28040  0.36780  Biso   1.000  C
  C416     1.0000 0.71960  0.82720  0.36780  Biso   1.000  C
  C417     1.0000 0.17280  0.89240  0.36780  Biso   1.000  C
  C418     1.0000 0.77427  0.61373  0.70113  Biso   1.000  C
  C419     1.0000 0.38627  0.16053  0.70113  Biso   1.000  C
  C420     1.0000 0.83947  0.22573  0.70113  Biso   1.000  C
  C421     1.0000 0.44093  0.94707  0.03447  Biso   1.000  C
  C422     1.0000 0.05293  0.49387  0.03447  Biso   1.000  C
  C423     1.0000 0.50613  0.55907  0.03447  Biso   1.000  C
  C424     1.0000 0.89240  0.71960  0.63220  Biso   1.000  C
  C425     1.0000 0.28040  0.17280  0.63220  Biso   1.000  C
  C426     1.0000 0.82720  0.10760  0.63220  Biso   1.000  C
  C427     1.0000 0.55907  0.05293  0.96553  Biso   1.000  C
  C428     1.0000 0.94707  0.50613  0.96553  Biso   1.000  C
  C429     1.0000 0.49387  0.44093  0.96553  Biso   1.000  C
  C430     1.0000 0.22573  0.38627  0.29887  Biso   1.000  C
  C431     1.0000 0.61373  0.83947  0.29887  Biso   1.000  C
  C432     1.0000 0.16053  0.77427  0.29887  Biso   1.000  C
  H325     1.0000 0.08320  0.28060  0.37510  Biso   1.000  H
  H326     1.0000 0.71940  0.80260  0.37510  Biso   1.000  H
  H327     1.0000 0.19740  0.91680  0.37510  Biso   1.000  H
  H328     1.0000 0.74987  0.61393  0.70843  Biso   1.000  H
  H329     1.0000 0.38607  0.13593  0.70843  Biso   1.000  H
  H330     1.0000 0.86407  0.25013  0.70843  Biso   1.000  H
  H331     1.0000 0.41653  0.94727  0.04177  Biso   1.000  H
  H332     1.0000 0.05273  0.46927  0.04177  Biso   1.000  H
  H333     1.0000 0.53073  0.58347  0.04177  Biso   1.000  H
  H334     1.0000 0.91680  0.71940  0.62490  Biso   1.000  H
  H335     1.0000 0.28060  0.19740  0.62490  Biso   1.000  H
  H336     1.0000 0.80260  0.08320  0.62490  Biso   1.000  H
  H337     1.0000 0.58347  0.05273  0.95823  Biso   1.000  H
  H338     1.0000 0.94727  0.53073  0.95823  Biso   1.000  H
  H339     1.0000 0.46927  0.41653  0.95823  Biso   1.000  H
  H340     1.0000 0.25013  0.38607  0.29157  Biso   1.000  H
  H341     1.0000 0.61393  0.86407  0.29157  Biso   1.000  H
  H342     1.0000 0.13593  0.74987  0.29157  Biso   1.000  H
  C433     1.0000 0.13730  0.29220  0.41270  Biso   1.000  C
  C434     1.0000 0.70780  0.84510  0.41270  Biso   1.000  C
  C435     1.0000 0.15490  0.86270  0.41270  Biso   1.000  C
  C436     1.0000 0.80397  0.62553  0.74603  Biso   1.000  C
  C437     1.0000 0.37447  0.17843  0.74603  Biso   1.000  C
  C438     1.0000 0.82157  0.19603  0.74603  Biso   1.000  C
  C439     1.0000 0.47063  0.95887  0.07937  Biso   1.000  C
  C440     1.0000 0.04113  0.51177  0.07937  Biso   1.000  C
  C441     1.0000 0.48823  0.52937  0.07937  Biso   1.000  C
  C442     1.0000 0.86270  0.70780  0.58730  Biso   1.000  C
  C443     1.0000 0.29220  0.15490  0.58730  Biso   1.000  C
  C444     1.0000 0.84510  0.13730  0.58730  Biso   1.000  C
  C445     1.0000 0.52937  0.04113  0.92063  Biso   1.000  C
  C446     1.0000 0.95887  0.48823  0.92063  Biso   1.000  C
  C447     1.0000 0.51177  0.47063  0.92063  Biso   1.000  C
  C448     1.0000 0.19603  0.37447  0.25397  Biso   1.000  C
  C449     1.0000 0.62553  0.82157  0.25397  Biso   1.000  C
  C450     1.0000 0.17843  0.80397  0.25397  Biso   1.000  C
  C451     1.0000 0.17130  0.28960  0.40240  Biso   1.000  C
  C452     1.0000 0.71040  0.88170  0.40240  Biso   1.000  C
  C453     1.0000 0.11830  0.82870  0.40240  Biso   1.000  C
  C454     1.0000 0.83797  0.62293  0.73573  Biso   1.000  C
  C455     1.0000 0.37707  0.21503  0.73573  Biso   1.000  C
  C456     1.0000 0.78497  0.16203  0.73573  Biso   1.000  C
  C457     1.0000 0.50463  0.95627  0.06907  Biso   1.000  C
  C458     1.0000 0.04373  0.54837  0.06907  Biso   1.000  C
  C459     1.0000 0.45163  0.49537  0.06907  Biso   1.000  C
  C460     1.0000 0.82870  0.71040  0.59760  Biso   1.000  C
  C461     1.0000 0.28960  0.11830  0.59760  Biso   1.000  C
  C462     1.0000 0.88170  0.17130  0.59760  Biso   1.000  C
  C463     1.0000 0.49537  0.04373  0.93093  Biso   1.000  C
  C464     1.0000 0.95627  0.45163  0.93093  Biso   1.000  C
  C465     1.0000 0.54837  0.50463  0.93093  Biso   1.000  C
  C466     1.0000 0.16203  0.37707  0.26427  Biso   1.000  C
  C467     1.0000 0.62293  0.78497  0.26427  Biso   1.000  C
  C468     1.0000 0.21503  0.83797  0.26427  Biso   1.000  C
  H343     1.0000 0.19040  0.29600  0.43260  Biso   1.000  H
  H344     1.0000 0.70400  0.89440  0.43260  Biso   1.000  H
  H345     1.0000 0.10560  0.80960  0.43260  Biso   1.000  H
  H346     1.0000 0.85707  0.62933  0.76593  Biso   1.000  H
  H347     1.0000 0.37067  0.22773  0.76593  Biso   1.000  H
  H348     1.0000 0.77227  0.14293  0.76593  Biso   1.000  H
  H349     1.0000 0.52373  0.96267  0.09927  Biso   1.000  H
  H350     1.0000 0.03733  0.56107  0.09927  Biso   1.000  H
  H351     1.0000 0.43893  0.47627  0.09927  Biso   1.000  H
  H352     1.0000 0.80960  0.70400  0.56740  Biso   1.000  H
  H353     1.0000 0.29600  0.10560  0.56740  Biso   1.000  H
  H354     1.0000 0.89440  0.19040  0.56740  Biso   1.000  H
  H355     1.0000 0.47627  0.03733  0.90073  Biso   1.000  H
  H356     1.0000 0.96267  0.43893  0.90073  Biso   1.000  H
  H357     1.0000 0.56107  0.52373  0.90073  Biso   1.000  H
  H358     1.0000 0.14293  0.37067  0.23407  Biso   1.000  H
  H359     1.0000 0.62933  0.77227  0.23407  Biso   1.000  H
  H360     1.0000 0.22773  0.85707  0.23407  Biso   1.000  H
  C469     1.0000 0.12600  0.36990  0.62170  Biso   1.000  C
  C470     1.0000 0.63010  0.75610  0.62170  Biso   1.000  C
  C471     1.0000 0.24390  0.87400  0.62170  Biso   1.000  C
  C472     1.0000 0.79267  0.70323  0.95503  Biso   1.000  C
  C473     1.0000 0.29677  0.08943  0.95503  Biso   1.000  C
  C474     1.0000 0.91057  0.20733  0.95503  Biso   1.000  C
  C475     1.0000 0.45933  0.03657  0.28837  Biso   1.000  C
  C476     1.0000 0.96343  0.42277  0.28837  Biso   1.000  C
  C477     1.0000 0.57723  0.54067  0.28837  Biso   1.000  C
  C478     1.0000 0.87400  0.63010  0.37830  Biso   1.000  C
  C479     1.0000 0.36990  0.24390  0.37830  Biso   1.000  C
  C480     1.0000 0.75610  0.12600  0.37830  Biso   1.000  C
  C481     1.0000 0.54067  0.96343  0.71163  Biso   1.000  C
  C482     1.0000 0.03657  0.57723  0.71163  Biso   1.000  C
  C483     1.0000 0.42277  0.45933  0.71163  Biso   1.000  C
  C484     1.0000 0.20733  0.29677  0.04497  Biso   1.000  C
  C485     1.0000 0.70323  0.91057  0.04497  Biso   1.000  C
  C486     1.0000 0.08943  0.79267  0.04497  Biso   1.000  C
  C487     1.0000 0.12970  0.34910  0.56840  Biso   1.000  C
  C488     1.0000 0.65090  0.78060  0.56840  Biso   1.000  C
  C489     1.0000 0.21940  0.87030  0.56840  Biso   1.000  C
  C490     1.0000 0.79637  0.68243  0.90173  Biso   1.000  C
  C491     1.0000 0.31757  0.11393  0.90173  Biso   1.000  C
  C492     1.0000 0.88607  0.20363  0.90173  Biso   1.000  C
  C493     1.0000 0.46303  0.01577  0.23507  Biso   1.000  C
  C494     1.0000 0.98423  0.44727  0.23507  Biso   1.000  C
  C495     1.0000 0.55273  0.53697  0.23507  Biso   1.000  C
  C496     1.0000 0.87030  0.65090  0.43160  Biso   1.000  C
  C497     1.0000 0.34910  0.21940  0.43160  Biso   1.000  C
  C498     1.0000 0.78060  0.12970  0.43160  Biso   1.000  C
  C499     1.0000 0.53697  0.98423  0.76493  Biso   1.000  C
  C500     1.0000 0.01577  0.55273  0.76493  Biso   1.000  C
  C501     1.0000 0.44727  0.46303  0.76493  Biso   1.000  C
  C502     1.0000 0.20363  0.31757  0.09827  Biso   1.000  C
  C503     1.0000 0.68243  0.88607  0.09827  Biso   1.000  C
  C504     1.0000 0.11393  0.79637  0.09827  Biso   1.000  C
  C505     1.0000 0.14750  0.32530  0.56990  Biso   1.000  C
  C506     1.0000 0.67470  0.82220  0.56990  Biso   1.000  C
  C507     1.0000 0.17780  0.85250  0.56990  Biso   1.000  C
  C508     1.0000 0.81417  0.65863  0.90323  Biso   1.000  C
  C509     1.0000 0.34137  0.15553  0.90323  Biso   1.000  C
  C510     1.0000 0.84447  0.18583  0.90323  Biso   1.000  C
  C511     1.0000 0.48083  0.99197  0.23657  Biso   1.000  C
  C512     1.0000 0.00803  0.48887  0.23657  Biso   1.000  C
  C513     1.0000 0.51113  0.51917  0.23657  Biso   1.000  C
  C514     1.0000 0.85250  0.67470  0.43010  Biso   1.000  C
  C515     1.0000 0.32530  0.17780  0.43010  Biso   1.000  C
  C516     1.0000 0.82220  0.14750  0.43010  Biso   1.000  C
  C517     1.0000 0.51917  0.00803  0.76343  Biso   1.000  C
  C518     1.0000 0.99197  0.51113  0.76343  Biso   1.000  C
  C519     1.0000 0.48887  0.48083  0.76343  Biso   1.000  C
  C520     1.0000 0.18583  0.34137  0.09677  Biso   1.000  C
  C521     1.0000 0.65863  0.84447  0.09677  Biso   1.000  C
  C522     1.0000 0.15553  0.81417  0.09677  Biso   1.000  C
  H361     1.0000 0.15830  0.32200  0.60540  Biso   1.000  H
  H362     1.0000 0.67800  0.83630  0.60540  Biso   1.000  H
  H363     1.0000 0.16370  0.84170  0.60540  Biso   1.000  H
  H364     1.0000 0.82497  0.65533  0.93873  Biso   1.000  H
  H365     1.0000 0.34467  0.16963  0.93873  Biso   1.000  H
  H366     1.0000 0.83037  0.17503  0.93873  Biso   1.000  H
  H367     1.0000 0.49163  0.98867  0.27207  Biso   1.000  H
  H368     1.0000 0.01133  0.50297  0.27207  Biso   1.000  H
  H369     1.0000 0.49703  0.50837  0.27207  Biso   1.000  H
  H370     1.0000 0.84170  0.67800  0.39460  Biso   1.000  H
  H371     1.0000 0.32200  0.16370  0.39460  Biso   1.000  H
  H372     1.0000 0.83630  0.15830  0.39460  Biso   1.000  H
  H373     1.0000 0.50837  0.01133  0.72793  Biso   1.000  H
  H374     1.0000 0.98867  0.49703  0.72793  Biso   1.000  H
  H375     1.0000 0.50297  0.49163  0.72793  Biso   1.000  H
  H376     1.0000 0.17503  0.34467  0.06127  Biso   1.000  H
  H377     1.0000 0.65533  0.83037  0.06127  Biso   1.000  H
  H378     1.0000 0.16963  0.82497  0.06127  Biso   1.000  H
  C523     1.0000 0.14960  0.30630  0.52030  Biso   1.000  C
  C524     1.0000 0.69370  0.84330  0.52030  Biso   1.000  C
  C525     1.0000 0.15670  0.85040  0.52030  Biso   1.000  C
  C526     1.0000 0.81627  0.63963  0.85363  Biso   1.000  C
  C527     1.0000 0.36037  0.17663  0.85363  Biso   1.000  C
  C528     1.0000 0.82337  0.18373  0.85363  Biso   1.000  C
  C529     1.0000 0.48293  0.97297  0.18697  Biso   1.000  C
  C530     1.0000 0.02703  0.50997  0.18697  Biso   1.000  C
  C531     1.0000 0.49003  0.51707  0.18697  Biso   1.000  C
  C532     1.0000 0.85040  0.69370  0.47970  Biso   1.000  C
  C533     1.0000 0.30630  0.15670  0.47970  Biso   1.000  C
  C534     1.0000 0.84330  0.14960  0.47970  Biso   1.000  C
  C535     1.0000 0.51707  0.02703  0.81303  Biso   1.000  C
  C536     1.0000 0.97297  0.49003  0.81303  Biso   1.000  C
  C537     1.0000 0.50997  0.48293  0.81303  Biso   1.000  C
  C538     1.0000 0.18373  0.36037  0.14637  Biso   1.000  C
  C539     1.0000 0.63963  0.82337  0.14637  Biso   1.000  C
  C540     1.0000 0.17663  0.81627  0.14637  Biso   1.000  C
  H379     1.0000 0.16290  0.29100  0.52150  Biso   1.000  H
  H380     1.0000 0.70900  0.87190  0.52150  Biso   1.000  H
  H381     1.0000 0.12810  0.83710  0.52150  Biso   1.000  H
  H382     1.0000 0.82957  0.62433  0.85483  Biso   1.000  H
  H383     1.0000 0.37567  0.20523  0.85483  Biso   1.000  H
  H384     1.0000 0.79477  0.17043  0.85483  Biso   1.000  H
  H385     1.0000 0.49623  0.95767  0.18817  Biso   1.000  H
  H386     1.0000 0.04233  0.53857  0.18817  Biso   1.000  H
  H387     1.0000 0.46143  0.50377  0.18817  Biso   1.000  H
  H388     1.0000 0.83710  0.70900  0.47850  Biso   1.000  H
  H389     1.0000 0.29100  0.12810  0.47850  Biso   1.000  H
  H390     1.0000 0.87190  0.16290  0.47850  Biso   1.000  H
  H391     1.0000 0.50377  0.04233  0.81183  Biso   1.000  H
  H392     1.0000 0.95767  0.46143  0.81183  Biso   1.000  H
  H393     1.0000 0.53857  0.49623  0.81183  Biso   1.000  H
  H394     1.0000 0.17043  0.37567  0.14517  Biso   1.000  H
  H395     1.0000 0.62433  0.79477  0.14517  Biso   1.000  H
  H396     1.0000 0.20523  0.82957  0.14517  Biso   1.000  H
  C541     1.0000 0.13240  0.30920  0.46810  Biso   1.000  C
  C542     1.0000 0.69080  0.82320  0.46810  Biso   1.000  C
  C543     1.0000 0.17680  0.86760  0.46810  Biso   1.000  C
  C544     1.0000 0.79907  0.64253  0.80143  Biso   1.000  C
  C545     1.0000 0.35747  0.15653  0.80143  Biso   1.000  C
  C546     1.0000 0.84347  0.20093  0.80143  Biso   1.000  C
  C547     1.0000 0.46573  0.97587  0.13477  Biso   1.000  C
  C548     1.0000 0.02413  0.48987  0.13477  Biso   1.000  C
  C549     1.0000 0.51013  0.53427  0.13477  Biso   1.000  C
  C550     1.0000 0.86760  0.69080  0.53190  Biso   1.000  C
  C551     1.0000 0.30920  0.17680  0.53190  Biso   1.000  C
  C552     1.0000 0.82320  0.13240  0.53190  Biso   1.000  C
  C553     1.0000 0.53427  0.02413  0.86523  Biso   1.000  C
  C554     1.0000 0.97587  0.51013  0.86523  Biso   1.000  C
  C555     1.0000 0.48987  0.46573  0.86523  Biso   1.000  C
  C556     1.0000 0.20093  0.35747  0.19857  Biso   1.000  C
  C557     1.0000 0.64253  0.84347  0.19857  Biso   1.000  C
  C558     1.0000 0.15653  0.79907  0.19857  Biso   1.000  C
  C559     1.0000 0.11400  0.33260  0.46730  Biso   1.000  C
  C560     1.0000 0.66740  0.78140  0.46730  Biso   1.000  C
  C561     1.0000 0.21860  0.88600  0.46730  Biso   1.000  C
  C562     1.0000 0.78067  0.66593  0.80063  Biso   1.000  C
  C563     1.0000 0.33407  0.11473  0.80063  Biso   1.000  C
  C564     1.0000 0.88527  0.21933  0.80063  Biso   1.000  C
  C565     1.0000 0.44733  0.99927  0.13397  Biso   1.000  C
  C566     1.0000 0.00073  0.44807  0.13397  Biso   1.000  C
  C567     1.0000 0.55193  0.55267  0.13397  Biso   1.000  C
  C568     1.0000 0.88600  0.66740  0.53270  Biso   1.000  C
  C569     1.0000 0.33260  0.21860  0.53270  Biso   1.000  C
  C570     1.0000 0.78140  0.11400  0.53270  Biso   1.000  C
  C571     1.0000 0.55267  0.00073  0.86603  Biso   1.000  C
  C572     1.0000 0.99927  0.55193  0.86603  Biso   1.000  C
  C573     1.0000 0.44807  0.44733  0.86603  Biso   1.000  C
  C574     1.0000 0.21933  0.33407  0.19937  Biso   1.000  C
  C575     1.0000 0.66593  0.88527  0.19937  Biso   1.000  C
  C576     1.0000 0.11473  0.78067  0.19937  Biso   1.000  C
  H397     1.0000 0.10240  0.33500  0.43200  Biso   1.000  H
  H398     1.0000 0.66500  0.76740  0.43200  Biso   1.000  H
  H399     1.0000 0.23260  0.89760  0.43200  Biso   1.000  H
  H400     1.0000 0.76907  0.66833  0.76533  Biso   1.000  H
  H401     1.0000 0.33167  0.10073  0.76533  Biso   1.000  H
  H402     1.0000 0.89927  0.23093  0.76533  Biso   1.000  H
  H403     1.0000 0.43573  0.00167  0.09867  Biso   1.000  H
  H404     1.0000 0.99833  0.43407  0.09867  Biso   1.000  H
  H405     1.0000 0.56593  0.56427  0.09867  Biso   1.000  H
  H406     1.0000 0.89760  0.66500  0.56800  Biso   1.000  H
  H407     1.0000 0.33500  0.23260  0.56800  Biso   1.000  H
  H408     1.0000 0.76740  0.10240  0.56800  Biso   1.000  H
  H409     1.0000 0.56427  0.99833  0.90133  Biso   1.000  H
  H410     1.0000 0.00167  0.56593  0.90133  Biso   1.000  H
  H411     1.0000 0.43407  0.43573  0.90133  Biso   1.000  H
  H412     1.0000 0.23093  0.33167  0.23467  Biso   1.000  H
  H413     1.0000 0.66833  0.89927  0.23467  Biso   1.000  H
  H414     1.0000 0.10073  0.76907  0.23467  Biso   1.000  H
  C577     1.0000 0.11220  0.35240  0.51640  Biso   1.000  C
  C578     1.0000 0.64760  0.75980  0.51640  Biso   1.000  C
  C579     1.0000 0.24020  0.88780  0.51640  Biso   1.000  C
  C580     1.0000 0.77887  0.68573  0.84973  Biso   1.000  C
  C581     1.0000 0.31427  0.09313  0.84973  Biso   1.000  C
  C582     1.0000 0.90687  0.22113  0.84973  Biso   1.000  C
  C583     1.0000 0.44553  0.01907  0.18307  Biso   1.000  C
  C584     1.0000 0.98093  0.42647  0.18307  Biso   1.000  C
  C585     1.0000 0.57353  0.55447  0.18307  Biso   1.000  C
  C586     1.0000 0.88780  0.64760  0.48360  Biso   1.000  C
  C587     1.0000 0.35240  0.24020  0.48360  Biso   1.000  C
  C588     1.0000 0.75980  0.11220  0.48360  Biso   1.000  C
  C589     1.0000 0.55447  0.98093  0.81693  Biso   1.000  C
  C590     1.0000 0.01907  0.57353  0.81693  Biso   1.000  C
  C591     1.0000 0.42647  0.44553  0.81693  Biso   1.000  C
  C592     1.0000 0.22113  0.31427  0.15027  Biso   1.000  C
  C593     1.0000 0.68573  0.90687  0.15027  Biso   1.000  C
  C594     1.0000 0.09313  0.77887  0.15027  Biso   1.000  C
  H415     1.0000 0.09930  0.36810  0.51510  Biso   1.000  H
  H416     1.0000 0.63190  0.73120  0.51510  Biso   1.000  H
  H417     1.0000 0.26880  0.90070  0.51510  Biso   1.000  H
  H418     1.0000 0.76597  0.70143  0.84843  Biso   1.000  H
  H419     1.0000 0.29857  0.06453  0.84843  Biso   1.000  H
  H420     1.0000 0.93547  0.23403  0.84843  Biso   1.000  H
  H421     1.0000 0.43263  0.03477  0.18177  Biso   1.000  H
  H422     1.0000 0.96523  0.39787  0.18177  Biso   1.000  H
  H423     1.0000 0.60213  0.56737  0.18177  Biso   1.000  H
  H424     1.0000 0.90070  0.63190  0.48490  Biso   1.000  H
  H425     1.0000 0.36810  0.26880  0.48490  Biso   1.000  H
  H426     1.0000 0.73120  0.09930  0.48490  Biso   1.000  H
  H427     1.0000 0.56737  0.96523  0.81823  Biso   1.000  H
  H428     1.0000 0.03477  0.60213  0.81823  Biso   1.000  H
  H429     1.0000 0.39787  0.43263  0.81823  Biso   1.000  H
  H430     1.0000 0.23403  0.29857  0.15157  Biso   1.000  H
  H431     1.0000 0.70143  0.93547  0.15157  Biso   1.000  H
  H432     1.0000 0.06453  0.76597  0.15157  Biso   1.000  H
  C595     1.0000 0.00490  0.24560  0.12480  Biso   1.000  C
  C596     1.0000 0.75440  0.75930  0.12480  Biso   1.000  C
  C597     1.0000 0.24070  0.99510  0.12480  Biso   1.000  C
  C598     1.0000 0.67157  0.57893  0.45813  Biso   1.000  C
  C599     1.0000 0.42107  0.09263  0.45813  Biso   1.000  C
  C600     1.0000 0.90737  0.32843  0.45813  Biso   1.000  C
  C601     1.0000 0.33823  0.91227  0.79147  Biso   1.000  C
  C602     1.0000 0.08773  0.42597  0.79147  Biso   1.000  C
  C603     1.0000 0.57403  0.66177  0.79147  Biso   1.000  C
  C604     1.0000 0.99510  0.75440  0.87520  Biso   1.000  C
  C605     1.0000 0.24560  0.24070  0.87520  Biso   1.000  C
  C606     1.0000 0.75930  0.00490  0.87520  Biso   1.000  C
  C607     1.0000 0.66177  0.08773  0.20853  Biso   1.000  C
  C608     1.0000 0.91227  0.57403  0.20853  Biso   1.000  C
  C609     1.0000 0.42597  0.33823  0.20853  Biso   1.000  C
  C610     1.0000 0.32843  0.42107  0.54187  Biso   1.000  C
  C611     1.0000 0.57893  0.90737  0.54187  Biso   1.000  C
  C612     1.0000 0.09263  0.67157  0.54187  Biso   1.000  C
  C613     1.0000 0.03250  0.25150  0.17470  Biso   1.000  C
  C614     1.0000 0.74850  0.78100  0.17470  Biso   1.000  C
  C615     1.0000 0.21900  0.96750  0.17470  Biso   1.000  C
  C616     1.0000 0.69917  0.58483  0.50803  Biso   1.000  C
  C617     1.0000 0.41517  0.11433  0.50803  Biso   1.000  C
  C618     1.0000 0.88567  0.30083  0.50803  Biso   1.000  C
  C619     1.0000 0.36583  0.91817  0.84137  Biso   1.000  C
  C620     1.0000 0.08183  0.44767  0.84137  Biso   1.000  C
  C621     1.0000 0.55233  0.63417  0.84137  Biso   1.000  C
  C622     1.0000 0.96750  0.74850  0.82530  Biso   1.000  C
  C623     1.0000 0.25150  0.21900  0.82530  Biso   1.000  C
  C624     1.0000 0.78100  0.03250  0.82530  Biso   1.000  C
  C625     1.0000 0.63417  0.08183  0.15863  Biso   1.000  C
  C626     1.0000 0.91817  0.55233  0.15863  Biso   1.000  C
  C627     1.0000 0.44767  0.36583  0.15863  Biso   1.000  C
  C628     1.0000 0.30083  0.41517  0.49197  Biso   1.000  C
  C629     1.0000 0.58483  0.88567  0.49197  Biso   1.000  C
  C630     1.0000 0.11433  0.69917  0.49197  Biso   1.000  C
  C631     1.0000 0.01870  0.24260  0.23190  Biso   1.000  C
  C632     1.0000 0.75740  0.77610  0.23190  Biso   1.000  C
  C633     1.0000 0.22390  0.98130  0.23190  Biso   1.000  C
  C634     1.0000 0.68537  0.57593  0.56523  Biso   1.000  C
  C635     1.0000 0.42407  0.10943  0.56523  Biso   1.000  C
  C636     1.0000 0.89057  0.31463  0.56523  Biso   1.000  C
  C637     1.0000 0.35203  0.90927  0.89857  Biso   1.000  C
  C638     1.0000 0.09073  0.44277  0.89857  Biso   1.000  C
  C639     1.0000 0.55723  0.64797  0.89857  Biso   1.000  C
  C640     1.0000 0.98130  0.75740  0.76810  Biso   1.000  C
  C641     1.0000 0.24260  0.22390  0.76810  Biso   1.000  C
  C642     1.0000 0.77610  0.01870  0.76810  Biso   1.000  C
  C643     1.0000 0.64797  0.09073  0.10143  Biso   1.000  C
  C644     1.0000 0.90927  0.55723  0.10143  Biso   1.000  C
  C645     1.0000 0.44277  0.35203  0.10143  Biso   1.000  C
  C646     1.0000 0.31463  0.42407  0.43477  Biso   1.000  C
  C647     1.0000 0.57593  0.89057  0.43477  Biso   1.000  C
  C648     1.0000 0.10943  0.68537  0.43477  Biso   1.000  C
  H433     1.0000 0.99100  0.23310  0.24020  Biso   1.000  H
  H434     1.0000 0.76690  0.75790  0.24020  Biso   1.000  H
  H435     1.0000 0.24210  0.00900  0.24020  Biso   1.000  H
  H436     1.0000 0.65767  0.56643  0.57353  Biso   1.000  H
  H437     1.0000 0.43357  0.09123  0.57353  Biso   1.000  H
  H438     1.0000 0.90877  0.34233  0.57353  Biso   1.000  H
  H439     1.0000 0.32433  0.89977  0.90687  Biso   1.000  H
  H440     1.0000 0.10023  0.42457  0.90687  Biso   1.000  H
  H441     1.0000 0.57543  0.67567  0.90687  Biso   1.000  H
  H442     1.0000 0.00900  0.76690  0.75980  Biso   1.000  H
  H443     1.0000 0.23310  0.24210  0.75980  Biso   1.000  H
  H444     1.0000 0.75790  0.99100  0.75980  Biso   1.000  H
  H445     1.0000 0.67567  0.10023  0.09313  Biso   1.000  H
  H446     1.0000 0.89977  0.57543  0.09313  Biso   1.000  H
  H447     1.0000 0.42457  0.32433  0.09313  Biso   1.000  H
  H448     1.0000 0.34233  0.43357  0.42647  Biso   1.000  H
  H449     1.0000 0.56643  0.90877  0.42647  Biso   1.000  H
  H450     1.0000 0.09123  0.65767  0.42647  Biso   1.000  H
  C649     1.0000 0.04500  0.24760  0.27710  Biso   1.000  C
  C650     1.0000 0.75240  0.79740  0.27710  Biso   1.000  C
  C651     1.0000 0.20260  0.95500  0.27710  Biso   1.000  C
  C652     1.0000 0.71167  0.58093  0.61043  Biso   1.000  C
  C653     1.0000 0.41907  0.13073  0.61043  Biso   1.000  C
  C654     1.0000 0.86927  0.28833  0.61043  Biso   1.000  C
  C655     1.0000 0.37833  0.91427  0.94377  Biso   1.000  C
  C656     1.0000 0.08573  0.46407  0.94377  Biso   1.000  C
  C657     1.0000 0.53593  0.62167  0.94377  Biso   1.000  C
  C658     1.0000 0.95500  0.75240  0.72290  Biso   1.000  C
  C659     1.0000 0.24760  0.20260  0.72290  Biso   1.000  C
  C660     1.0000 0.79740  0.04500  0.72290  Biso   1.000  C
  C661     1.0000 0.62167  0.08573  0.05623  Biso   1.000  C
  C662     1.0000 0.91427  0.53593  0.05623  Biso   1.000  C
  C663     1.0000 0.46407  0.37833  0.05623  Biso   1.000  C
  C664     1.0000 0.28833  0.41907  0.38957  Biso   1.000  C
  C665     1.0000 0.58093  0.86927  0.38957  Biso   1.000  C
  C666     1.0000 0.13073  0.71167  0.38957  Biso   1.000  C
  H451     1.0000 0.03530  0.24150  0.31590  Biso   1.000  H
  H452     1.0000 0.75850  0.79380  0.31590  Biso   1.000  H
  H453     1.0000 0.20620  0.96470  0.31590  Biso   1.000  H
  H454     1.0000 0.70197  0.57483  0.64923  Biso   1.000  H
  H455     1.0000 0.42517  0.12713  0.64923  Biso   1.000  H
  H456     1.0000 0.87287  0.29803  0.64923  Biso   1.000  H
  H457     1.0000 0.36863  0.90817  0.98257  Biso   1.000  H
  H458     1.0000 0.09183  0.46047  0.98257  Biso   1.000  H
  H459     1.0000 0.53953  0.63137  0.98257  Biso   1.000  H
  H460     1.0000 0.96470  0.75850  0.68410  Biso   1.000  H
  H461     1.0000 0.24150  0.20620  0.68410  Biso   1.000  H
  H462     1.0000 0.79380  0.03530  0.68410  Biso   1.000  H
  H463     1.0000 0.63137  0.09183  0.01743  Biso   1.000  H
  H464     1.0000 0.90817  0.53953  0.01743  Biso   1.000  H
  H465     1.0000 0.46047  0.36863  0.01743  Biso   1.000  H
  H466     1.0000 0.29803  0.42517  0.35077  Biso   1.000  H
  H467     1.0000 0.57483  0.87287  0.35077  Biso   1.000  H
  H468     1.0000 0.12713  0.70197  0.35077  Biso   1.000  H
  C667     1.0000 0.08540  0.26160  0.26540  Biso   1.000  C
  C668     1.0000 0.73840  0.82380  0.26540  Biso   1.000  C
  C669     1.0000 0.17620  0.91460  0.26540  Biso   1.000  C
  C670     1.0000 0.75207  0.59493  0.59873  Biso   1.000  C
  C671     1.0000 0.40507  0.15713  0.59873  Biso   1.000  C
  C672     1.0000 0.84287  0.24793  0.59873  Biso   1.000  C
  C673     1.0000 0.41873  0.92827  0.93207  Biso   1.000  C
  C674     1.0000 0.07173  0.49047  0.93207  Biso   1.000  C
  C675     1.0000 0.50953  0.58127  0.93207  Biso   1.000  C
  C676     1.0000 0.91460  0.73840  0.73460  Biso   1.000  C
  C677     1.0000 0.26160  0.17620  0.73460  Biso   1.000  C
  C678     1.0000 0.82380  0.08540  0.73460  Biso   1.000  C
  C679     1.0000 0.58127  0.07173  0.06793  Biso   1.000  C
  C680     1.0000 0.92827  0.50953  0.06793  Biso   1.000  C
  C681     1.0000 0.49047  0.41873  0.06793  Biso   1.000  C
  C682     1.0000 0.24793  0.40507  0.40127  Biso   1.000  C
  C683     1.0000 0.59493  0.84287  0.40127  Biso   1.000  C
  C684     1.0000 0.15713  0.75207  0.40127  Biso   1.000  C
  C685     1.0000 0.09880  0.27000  0.20880  Biso   1.000  C
  C686     1.0000 0.73000  0.82880  0.20880  Biso   1.000  C
  C687     1.0000 0.17120  0.90120  0.20880  Biso   1.000  C
  C688     1.0000 0.76547  0.60333  0.54213  Biso   1.000  C
  C689     1.0000 0.39667  0.16213  0.54213  Biso   1.000  C
  C690     1.0000 0.83787  0.23453  0.54213  Biso   1.000  C
  C691     1.0000 0.43213  0.93667  0.87547  Biso   1.000  C
  C692     1.0000 0.06333  0.49547  0.87547  Biso   1.000  C
  C693     1.0000 0.50453  0.56787  0.87547  Biso   1.000  C
  C694     1.0000 0.90120  0.73000  0.79120  Biso   1.000  C
  C695     1.0000 0.27000  0.17120  0.79120  Biso   1.000  C
  C696     1.0000 0.82880  0.09880  0.79120  Biso   1.000  C
  C697     1.0000 0.56787  0.06333  0.12453  Biso   1.000  C
  C698     1.0000 0.93667  0.50453  0.12453  Biso   1.000  C
  C699     1.0000 0.49547  0.43213  0.12453  Biso   1.000  C
  C700     1.0000 0.23453  0.39667  0.45787  Biso   1.000  C
  C701     1.0000 0.60333  0.83787  0.45787  Biso   1.000  C
  C702     1.0000 0.16213  0.76547  0.45787  Biso   1.000  C
  H469     1.0000 0.12630  0.27910  0.20040  Biso   1.000  H
  H470     1.0000 0.72090  0.84720  0.20040  Biso   1.000  H
  H471     1.0000 0.15280  0.87370  0.20040  Biso   1.000  H
  H472     1.0000 0.79297  0.61243  0.53373  Biso   1.000  H
  H473     1.0000 0.38757  0.18053  0.53373  Biso   1.000  H
  H474     1.0000 0.81947  0.20703  0.53373  Biso   1.000  H
  H475     1.0000 0.45963  0.94577  0.86707  Biso   1.000  H
  H476     1.0000 0.05423  0.51387  0.86707  Biso   1.000  H
  H477     1.0000 0.48613  0.54037  0.86707  Biso   1.000  H
  H478     1.0000 0.87370  0.72090  0.79960  Biso   1.000  H
  H479     1.0000 0.27910  0.15280  0.79960  Biso   1.000  H
  H480     1.0000 0.84720  0.12630  0.79960  Biso   1.000  H
  H481     1.0000 0.54037  0.05423  0.13293  Biso   1.000  H
  H482     1.0000 0.94577  0.48613  0.13293  Biso   1.000  H
  H483     1.0000 0.51387  0.45963  0.13293  Biso   1.000  H
  H484     1.0000 0.20703  0.38757  0.46627  Biso   1.000  H
  H485     1.0000 0.61243  0.81947  0.46627  Biso   1.000  H
  H486     1.0000 0.18053  0.79297  0.46627  Biso   1.000  H
  C703     1.0000 0.07290  0.26550  0.16390  Biso   1.000  C
  C704     1.0000 0.73450  0.80740  0.16390  Biso   1.000  C
  C705     1.0000 0.19260  0.92710  0.16390  Biso   1.000  C
  C706     1.0000 0.73957  0.59883  0.49723  Biso   1.000  C
  C707     1.0000 0.40117  0.14073  0.49723  Biso   1.000  C
  C708     1.0000 0.85927  0.26043  0.49723  Biso   1.000  C
  C709     1.0000 0.40623  0.93217  0.83057  Biso   1.000  C
  C710     1.0000 0.06783  0.47407  0.83057  Biso   1.000  C
  C711     1.0000 0.52593  0.59377  0.83057  Biso   1.000  C
  C712     1.0000 0.92710  0.73450  0.83610  Biso   1.000  C
  C713     1.0000 0.26550  0.19260  0.83610  Biso   1.000  C
  C714     1.0000 0.80740  0.07290  0.83610  Biso   1.000  C
  C715     1.0000 0.59377  0.06783  0.16943  Biso   1.000  C
  C716     1.0000 0.93217  0.52593  0.16943  Biso   1.000  C
  C717     1.0000 0.47407  0.40623  0.16943  Biso   1.000  C
  C718     1.0000 0.26043  0.40117  0.50277  Biso   1.000  C
  C719     1.0000 0.59883  0.85927  0.50277  Biso   1.000  C
  C720     1.0000 0.14073  0.73957  0.50277  Biso   1.000  C
  H487     1.0000 0.08290  0.27220  0.12530  Biso   1.000  H
  H488     1.0000 0.72780  0.81070  0.12530  Biso   1.000  H
  H489     1.0000 0.18930  0.91710  0.12530  Biso   1.000  H
  H490     1.0000 0.74957  0.60553  0.45863  Biso   1.000  H
  H491     1.0000 0.39447  0.14403  0.45863  Biso   1.000  H
  H492     1.0000 0.85597  0.25043  0.45863  Biso   1.000  H
  H493     1.0000 0.41623  0.93887  0.79197  Biso   1.000  H
  H494     1.0000 0.06113  0.47737  0.79197  Biso   1.000  H
  H495     1.0000 0.52263  0.58377  0.79197  Biso   1.000  H
  H496     1.0000 0.91710  0.72780  0.87470  Biso   1.000  H
  H497     1.0000 0.27220  0.18930  0.87470  Biso   1.000  H
  H498     1.0000 0.81070  0.08290  0.87470  Biso   1.000  H
  H499     1.0000 0.58377  0.06113  0.20803  Biso   1.000  H
  H500     1.0000 0.93887  0.52263  0.20803  Biso   1.000  H
  H501     1.0000 0.47737  0.41623  0.20803  Biso   1.000  H
  H502     1.0000 0.25043  0.39447  0.54137  Biso   1.000  H
  H503     1.0000 0.60553  0.85597  0.54137  Biso   1.000  H
  H504     1.0000 0.14403  0.74957  0.54137  Biso   1.000  H
  O199     1.0000 0.45850  0.55000  0.47200  Biso   1.000  O
  O200     1.0000 0.45000  0.90850  0.47200  Biso   1.000  O
  O201     1.0000 0.09150  0.54150  0.47200  Biso   1.000  O
  O202     1.0000 0.12517  0.88333  0.80533  Biso   1.000  O
  O203     1.0000 0.11667  0.24183  0.80533  Biso   1.000  O
  O204     1.0000 0.75817  0.87483  0.80533  Biso   1.000  O
  O205     1.0000 0.79183  0.21667  0.13867  Biso   1.000  O
  O206     1.0000 0.78333  0.57517  0.13867  Biso   1.000  O
  O207     1.0000 0.42483  0.20817  0.13867  Biso   1.000  O
  O208     1.0000 0.54150  0.45000  0.52800  Biso   1.000  O
  O209     1.0000 0.55000  0.09150  0.52800  Biso   1.000  O
  O210     1.0000 0.90850  0.45850  0.52800  Biso   1.000  O
  O211     1.0000 0.20817  0.78333  0.86133  Biso   1.000  O
  O212     1.0000 0.21667  0.42483  0.86133  Biso   1.000  O
  O213     1.0000 0.57517  0.79183  0.86133  Biso   1.000  O
  O214     1.0000 0.87483  0.11667  0.19467  Biso   1.000  O
  O215     1.0000 0.88333  0.75817  0.19467  Biso   1.000  O
  O216     1.0000 0.24183  0.12517  0.19467  Biso   1.000  O
  O217     1.0000 0.44910  0.53750  0.35190  Biso   1.000  O
  O218     1.0000 0.46250  0.91160  0.35190  Biso   1.000  O
  O219     1.0000 0.08840  0.55090  0.35190  Biso   1.000  O
  O220     1.0000 0.11577  0.87083  0.68523  Biso   1.000  O
  O221     1.0000 0.12917  0.24493  0.68523  Biso   1.000  O
  O222     1.0000 0.75507  0.88423  0.68523  Biso   1.000  O
  O223     1.0000 0.78243  0.20417  0.01857  Biso   1.000  O
  O224     1.0000 0.79583  0.57827  0.01857  Biso   1.000  O
  O225     1.0000 0.42173  0.21757  0.01857  Biso   1.000  O
  O226     1.0000 0.55090  0.46250  0.64810  Biso   1.000  O
  O227     1.0000 0.53750  0.08840  0.64810  Biso   1.000  O
  O228     1.0000 0.91160  0.44910  0.64810  Biso   1.000  O
  O229     1.0000 0.21757  0.79583  0.98143  Biso   1.000  O
  O230     1.0000 0.20417  0.42173  0.98143  Biso   1.000  O
  O231     1.0000 0.57827  0.78243  0.98143  Biso   1.000  O
  O232     1.0000 0.88423  0.12917  0.31477  Biso   1.000  O
  O233     1.0000 0.87083  0.75507  0.31477  Biso   1.000  O
  O234     1.0000 0.24493  0.11577  0.31477  Biso   1.000  O
  C721     1.0000 0.49130  0.57150  0.43170  Biso   1.000  C
  C722     1.0000 0.42850  0.91980  0.43170  Biso   1.000  C
  C723     1.0000 0.08020  0.50870  0.43170  Biso   1.000  C
  C724     1.0000 0.15797  0.90483  0.76503  Biso   1.000  C
  C725     1.0000 0.09517  0.25313  0.76503  Biso   1.000  C
  C726     1.0000 0.74687  0.84203  0.76503  Biso   1.000  C
  C727     1.0000 0.82463  0.23817  0.09837  Biso   1.000  C
  C728     1.0000 0.76183  0.58647  0.09837  Biso   1.000  C
  C729     1.0000 0.41353  0.17537  0.09837  Biso   1.000  C
  C730     1.0000 0.50870  0.42850  0.56830  Biso   1.000  C
  C731     1.0000 0.57150  0.08020  0.56830  Biso   1.000  C
  C732     1.0000 0.91980  0.49130  0.56830  Biso   1.000  C
  C733     1.0000 0.17537  0.76183  0.90163  Biso   1.000  C
  C734     1.0000 0.23817  0.41353  0.90163  Biso   1.000  C
  C735     1.0000 0.58647  0.82463  0.90163  Biso   1.000  C
  C736     1.0000 0.84203  0.09517  0.23497  Biso   1.000  C
  C737     1.0000 0.90483  0.74687  0.23497  Biso   1.000  C
  C738     1.0000 0.25313  0.15797  0.23497  Biso   1.000  C
  H505     1.0000 0.49390  0.59810  0.42340  Biso   1.000  H
  H506     1.0000 0.40190  0.89580  0.42340  Biso   1.000  H
  H507     1.0000 0.10420  0.50610  0.42340  Biso   1.000  H
  H508     1.0000 0.16057  0.93143  0.75673  Biso   1.000  H
  H509     1.0000 0.06857  0.22913  0.75673  Biso   1.000  H
  H510     1.0000 0.77087  0.83943  0.75673  Biso   1.000  H
  H511     1.0000 0.82723  0.26477  0.09007  Biso   1.000  H
  H512     1.0000 0.73523  0.56247  0.09007  Biso   1.000  H
  H513     1.0000 0.43753  0.17277  0.09007  Biso   1.000  H
  H514     1.0000 0.50610  0.40190  0.57660  Biso   1.000  H
  H515     1.0000 0.59810  0.10420  0.57660  Biso   1.000  H
  H516     1.0000 0.89580  0.49390  0.57660  Biso   1.000  H
  H517     1.0000 0.17277  0.73523  0.90993  Biso   1.000  H
  H518     1.0000 0.26477  0.43753  0.90993  Biso   1.000  H
  H519     1.0000 0.56247  0.82723  0.90993  Biso   1.000  H
  H520     1.0000 0.83943  0.06857  0.24327  Biso   1.000  H
  H521     1.0000 0.93143  0.77087  0.24327  Biso   1.000  H
  H522     1.0000 0.22913  0.16057  0.24327  Biso   1.000  H
  H523     1.0000 0.51670  0.57650  0.45060  Biso   1.000  H
  H524     1.0000 0.42350  0.94020  0.45060  Biso   1.000  H
  H525     1.0000 0.05980  0.48330  0.45060  Biso   1.000  H
  H526     1.0000 0.18337  0.90983  0.78393  Biso   1.000  H
  H527     1.0000 0.09017  0.27353  0.78393  Biso   1.000  H
  H528     1.0000 0.72647  0.81663  0.78393  Biso   1.000  H
  H529     1.0000 0.85003  0.24317  0.11727  Biso   1.000  H
  H530     1.0000 0.75683  0.60687  0.11727  Biso   1.000  H
  H531     1.0000 0.39313  0.14997  0.11727  Biso   1.000  H
  H532     1.0000 0.48330  0.42350  0.54940  Biso   1.000  H
  H533     1.0000 0.57650  0.05980  0.54940  Biso   1.000  H
  H534     1.0000 0.94020  0.51670  0.54940  Biso   1.000  H
  H535     1.0000 0.14997  0.75683  0.88273  Biso   1.000  H
  H536     1.0000 0.24317  0.39313  0.88273  Biso   1.000  H
  H537     1.0000 0.60687  0.85003  0.88273  Biso   1.000  H
  H538     1.0000 0.81663  0.09017  0.21607  Biso   1.000  H
  H539     1.0000 0.90983  0.72647  0.21607  Biso   1.000  H
  H540     1.0000 0.27353  0.18337  0.21607  Biso   1.000  H
  C739     1.0000 0.48670  0.55080  0.37770  Biso   1.000  C
  C740     1.0000 0.44920  0.93590  0.37770  Biso   1.000  C
  C741     1.0000 0.06410  0.51330  0.37770  Biso   1.000  C
  C742     1.0000 0.15337  0.88413  0.71103  Biso   1.000  C
  C743     1.0000 0.11587  0.26923  0.71103  Biso   1.000  C
  C744     1.0000 0.73077  0.84663  0.71103  Biso   1.000  C
  C745     1.0000 0.82003  0.21747  0.04437  Biso   1.000  C
  C746     1.0000 0.78253  0.60257  0.04437  Biso   1.000  C
  C747     1.0000 0.39743  0.17997  0.04437  Biso   1.000  C
  C748     1.0000 0.51330  0.44920  0.62230  Biso   1.000  C
  C749     1.0000 0.55080  0.06410  0.62230  Biso   1.000  C
  C750     1.0000 0.93590  0.48670  0.62230  Biso   1.000  C
  C751     1.0000 0.17997  0.78253  0.95563  Biso   1.000  C
  C752     1.0000 0.21747  0.39743  0.95563  Biso   1.000  C
  C753     1.0000 0.60257  0.82003  0.95563  Biso   1.000  C
  C754     1.0000 0.84663  0.11587  0.28897  Biso   1.000  C
  C755     1.0000 0.88413  0.73077  0.28897  Biso   1.000  C
  C756     1.0000 0.26923  0.15337  0.28897  Biso   1.000  C
  H541     1.0000 0.50810  0.56910  0.35040  Biso   1.000  H
  H542     1.0000 0.43090  0.93900  0.35040  Biso   1.000  H
  H543     1.0000 0.06100  0.49190  0.35040  Biso   1.000  H
  H544     1.0000 0.17477  0.90243  0.68373  Biso   1.000  H
  H545     1.0000 0.09757  0.27233  0.68373  Biso   1.000  H
  H546     1.0000 0.72767  0.82523  0.68373  Biso   1.000  H
  H547     1.0000 0.84143  0.23577  0.01707  Biso   1.000  H
  H548     1.0000 0.76423  0.60567  0.01707  Biso   1.000  H
  H549     1.0000 0.39433  0.15857  0.01707  Biso   1.000  H
  H550     1.0000 0.49190  0.43090  0.64960  Biso   1.000  H
  H551     1.0000 0.56910  0.06100  0.64960  Biso   1.000  H
  H552     1.0000 0.93900  0.50810  0.64960  Biso   1.000  H
  H553     1.0000 0.15857  0.76423  0.98293  Biso   1.000  H
  H554     1.0000 0.23577  0.39433  0.98293  Biso   1.000  H
  H555     1.0000 0.60567  0.84143  0.98293  Biso   1.000  H
  H556     1.0000 0.82523  0.09757  0.31627  Biso   1.000  H
  H557     1.0000 0.90243  0.72767  0.31627  Biso   1.000  H
  H558     1.0000 0.27233  0.17477  0.31627  Biso   1.000  H
  H559     1.0000 0.49040  0.52730  0.38480  Biso   1.000  H
  H560     1.0000 0.47270  0.96310  0.38480  Biso   1.000  H
  H561     1.0000 0.03690  0.50960  0.38480  Biso   1.000  H
  H562     1.0000 0.15707  0.86063  0.71813  Biso   1.000  H
  H563     1.0000 0.13937  0.29643  0.71813  Biso   1.000  H
  H564     1.0000 0.70357  0.84293  0.71813  Biso   1.000  H
  H565     1.0000 0.82373  0.19397  0.05147  Biso   1.000  H
  H566     1.0000 0.80603  0.62977  0.05147  Biso   1.000  H
  H567     1.0000 0.37023  0.17627  0.05147  Biso   1.000  H
  H568     1.0000 0.50960  0.47270  0.61520  Biso   1.000  H
  H569     1.0000 0.52730  0.03690  0.61520  Biso   1.000  H
  H570     1.0000 0.96310  0.49040  0.61520  Biso   1.000  H
  H571     1.0000 0.17627  0.80603  0.94853  Biso   1.000  H
  H572     1.0000 0.19397  0.37023  0.94853  Biso   1.000  H
  H573     1.0000 0.62977  0.82373  0.94853  Biso   1.000  H
  H574     1.0000 0.84293  0.13937  0.28187  Biso   1.000  H
  H575     1.0000 0.86063  0.70357  0.28187  Biso   1.000  H
  H576     1.0000 0.29643  0.15707  0.28187  Biso   1.000  H
  C757     1.0000 0.41600  0.51280  0.39310  Biso   1.000  C
  C758     1.0000 0.48720  0.90320  0.39310  Biso   1.000  C
  C759     1.0000 0.09680  0.58400  0.39310  Biso   1.000  C
  C760     1.0000 0.08267  0.84613  0.72643  Biso   1.000  C
  C761     1.0000 0.15387  0.23653  0.72643  Biso   1.000  C
  C762     1.0000 0.76347  0.91733  0.72643  Biso   1.000  C
  C763     1.0000 0.74933  0.17947  0.05977  Biso   1.000  C
  C764     1.0000 0.82053  0.56987  0.05977  Biso   1.000  C
  C765     1.0000 0.43013  0.25067  0.05977  Biso   1.000  C
  C766     1.0000 0.58400  0.48720  0.60690  Biso   1.000  C
  C767     1.0000 0.51280  0.09680  0.60690  Biso   1.000  C
  C768     1.0000 0.90320  0.41600  0.60690  Biso   1.000  C
  C769     1.0000 0.25067  0.82053  0.94023  Biso   1.000  C
  C770     1.0000 0.17947  0.43013  0.94023  Biso   1.000  C
  C771     1.0000 0.56987  0.74933  0.94023  Biso   1.000  C
  C772     1.0000 0.91733  0.15387  0.27357  Biso   1.000  C
  C773     1.0000 0.84613  0.76347  0.27357  Biso   1.000  C
  C774     1.0000 0.23653  0.08267  0.27357  Biso   1.000  C
  H577     1.0000 0.38970  0.50500  0.37470  Biso   1.000  H
  H578     1.0000 0.49500  0.88470  0.37470  Biso   1.000  H
  H579     1.0000 0.11530  0.61030  0.37470  Biso   1.000  H
  H580     1.0000 0.05637  0.83833  0.70803  Biso   1.000  H
  H581     1.0000 0.16167  0.21803  0.70803  Biso   1.000  H
  H582     1.0000 0.78197  0.94363  0.70803  Biso   1.000  H
  H583     1.0000 0.72303  0.17167  0.04137  Biso   1.000  H
  H584     1.0000 0.82833  0.55137  0.04137  Biso   1.000  H
  H585     1.0000 0.44863  0.27697  0.04137  Biso   1.000  H
  H586     1.0000 0.61030  0.49500  0.62530  Biso   1.000  H
  H587     1.0000 0.50500  0.11530  0.62530  Biso   1.000  H
  H588     1.0000 0.88470  0.38970  0.62530  Biso   1.000  H
  H589     1.0000 0.27697  0.82833  0.95863  Biso   1.000  H
  H590     1.0000 0.17167  0.44863  0.95863  Biso   1.000  H
  H591     1.0000 0.55137  0.72303  0.95863  Biso   1.000  H
  H592     1.0000 0.94363  0.16167  0.29197  Biso   1.000  H
  H593     1.0000 0.83833  0.78197  0.29197  Biso   1.000  H
  H594     1.0000 0.21803  0.05637  0.29197  Biso   1.000  H
  H595     1.0000 0.41650  0.48790  0.40280  Biso   1.000  H
  H596     1.0000 0.51210  0.92860  0.40280  Biso   1.000  H
  H597     1.0000 0.07140  0.58350  0.40280  Biso   1.000  H
  H598     1.0000 0.08317  0.82123  0.73613  Biso   1.000  H
  H599     1.0000 0.17877  0.26193  0.73613  Biso   1.000  H
  H600     1.0000 0.73807  0.91683  0.73613  Biso   1.000  H
  H601     1.0000 0.74983  0.15457  0.06947  Biso   1.000  H
  H602     1.0000 0.84543  0.59527  0.06947  Biso   1.000  H
  H603     1.0000 0.40473  0.25017  0.06947  Biso   1.000  H
  H604     1.0000 0.58350  0.51210  0.59720  Biso   1.000  H
  H605     1.0000 0.48790  0.07140  0.59720  Biso   1.000  H
  H606     1.0000 0.92860  0.41650  0.59720  Biso   1.000  H
  H607     1.0000 0.25017  0.84543  0.93053  Biso   1.000  H
  H608     1.0000 0.15457  0.40473  0.93053  Biso   1.000  H
  H609     1.0000 0.59527  0.74983  0.93053  Biso   1.000  H
  H610     1.0000 0.91683  0.17877  0.26387  Biso   1.000  H
  H611     1.0000 0.82123  0.73807  0.26387  Biso   1.000  H
  H612     1.0000 0.26193  0.08317  0.26387  Biso   1.000  H
  C775     1.0000 0.42030  0.53480  0.44470  Biso   1.000  C
  C776     1.0000 0.46520  0.88550  0.44470  Biso   1.000  C
  C777     1.0000 0.11450  0.57970  0.44470  Biso   1.000  C
  C778     1.0000 0.08697  0.86813  0.77803  Biso   1.000  C
  C779     1.0000 0.13187  0.21883  0.77803  Biso   1.000  C
  C780     1.0000 0.78117  0.91303  0.77803  Biso   1.000  C
  C781     1.0000 0.75363  0.20147  0.11137  Biso   1.000  C
  C782     1.0000 0.79853  0.55217  0.11137  Biso   1.000  C
  C783     1.0000 0.44783  0.24637  0.11137  Biso   1.000  C
  C784     1.0000 0.57970  0.46520  0.55530  Biso   1.000  C
  C785     1.0000 0.53480  0.11450  0.55530  Biso   1.000  C
  C786     1.0000 0.88550  0.42030  0.55530  Biso   1.000  C
  C787     1.0000 0.24637  0.79853  0.88863  Biso   1.000  C
  C788     1.0000 0.20147  0.44783  0.88863  Biso   1.000  C
  C789     1.0000 0.55217  0.75363  0.88863  Biso   1.000  C
  C790     1.0000 0.91303  0.13187  0.22197  Biso   1.000  C
  C791     1.0000 0.86813  0.78117  0.22197  Biso   1.000  C
  C792     1.0000 0.21883  0.08697  0.22197  Biso   1.000  C
  H613     1.0000 0.39900  0.51710  0.47250  Biso   1.000  H
  H614     1.0000 0.48290  0.88190  0.47250  Biso   1.000  H
  H615     1.0000 0.11810  0.60100  0.47250  Biso   1.000  H
  H616     1.0000 0.06567  0.85043  0.80583  Biso   1.000  H
  H617     1.0000 0.14957  0.21523  0.80583  Biso   1.000  H
  H618     1.0000 0.78477  0.93433  0.80583  Biso   1.000  H
  H619     1.0000 0.73233  0.18377  0.13917  Biso   1.000  H
  H620     1.0000 0.81623  0.54857  0.13917  Biso   1.000  H
  H621     1.0000 0.45143  0.26767  0.13917  Biso   1.000  H
  H622     1.0000 0.60100  0.48290  0.52750  Biso   1.000  H
  H623     1.0000 0.51710  0.11810  0.52750  Biso   1.000  H
  H624     1.0000 0.88190  0.39900  0.52750  Biso   1.000  H
  H625     1.0000 0.26767  0.81623  0.86083  Biso   1.000  H
  H626     1.0000 0.18377  0.45143  0.86083  Biso   1.000  H
  H627     1.0000 0.54857  0.73233  0.86083  Biso   1.000  H
  H628     1.0000 0.93433  0.14957  0.19417  Biso   1.000  H
  H629     1.0000 0.85043  0.78477  0.19417  Biso   1.000  H
  H630     1.0000 0.21523  0.06567  0.19417  Biso   1.000  H
  H631     1.0000 0.41610  0.55770  0.43530  Biso   1.000  H
  H632     1.0000 0.44230  0.85840  0.43530  Biso   1.000  H
  H633     1.0000 0.14160  0.58390  0.43530  Biso   1.000  H
  H634     1.0000 0.08277  0.89103  0.76863  Biso   1.000  H
  H635     1.0000 0.10897  0.19173  0.76863  Biso   1.000  H
  H636     1.0000 0.80827  0.91723  0.76863  Biso   1.000  H
  H637     1.0000 0.74943  0.22437  0.10197  Biso   1.000  H
  H638     1.0000 0.77563  0.52507  0.10197  Biso   1.000  H
  H639     1.0000 0.47493  0.25057  0.10197  Biso   1.000  H
  H640     1.0000 0.58390  0.44230  0.56470  Biso   1.000  H
  H641     1.0000 0.55770  0.14160  0.56470  Biso   1.000  H
  H642     1.0000 0.85840  0.41610  0.56470  Biso   1.000  H
  H643     1.0000 0.25057  0.77563  0.89803  Biso   1.000  H
  H644     1.0000 0.22437  0.47493  0.89803  Biso   1.000  H
  H645     1.0000 0.52507  0.74943  0.89803  Biso   1.000  H
  H646     1.0000 0.91723  0.10897  0.23137  Biso   1.000  H
  H647     1.0000 0.89103  0.80827  0.23137  Biso   1.000  H
  H648     1.0000 0.19173  0.08277  0.23137  Biso   1.000  H
  O235     1.0000 0.23150  0.28550  0.51020  Biso   1.000  O
  O236     1.0000 0.71450  0.94600  0.51020  Biso   1.000  O
  O237     1.0000 0.05400  0.76850  0.51020  Biso   1.000  O
  O238     1.0000 0.89817  0.61883  0.84353  Biso   1.000  O
  O239     1.0000 0.38117  0.27933  0.84353  Biso   1.000  O
  O240     1.0000 0.72067  0.10183  0.84353  Biso   1.000  O
  O241     1.0000 0.56483  0.95217  0.17687  Biso   1.000  O
  O242     1.0000 0.04783  0.61267  0.17687  Biso   1.000  O
  O243     1.0000 0.38733  0.43517  0.17687  Biso   1.000  O
  O244     1.0000 0.76850  0.71450  0.48980  Biso   1.000  O
  O245     1.0000 0.28550  0.05400  0.48980  Biso   1.000  O
  O246     1.0000 0.94600  0.23150  0.48980  Biso   1.000  O
  O247     1.0000 0.43517  0.04783  0.82313  Biso   1.000  O
  O248     1.0000 0.95217  0.38733  0.82313  Biso   1.000  O
  O249     1.0000 0.61267  0.56483  0.82313  Biso   1.000  O
  O250     1.0000 0.10183  0.38117  0.15647  Biso   1.000  O
  O251     1.0000 0.61883  0.72067  0.15647  Biso   1.000  O
  O252     1.0000 0.27933  0.89817  0.15647  Biso   1.000  O
  C793     1.0000 0.25660  0.30480  0.56010  Biso   1.000  C
  C794     1.0000 0.69520  0.95180  0.56010  Biso   1.000  C
  C795     1.0000 0.04820  0.74340  0.56010  Biso   1.000  C
  C796     1.0000 0.92327  0.63813  0.89343  Biso   1.000  C
  C797     1.0000 0.36187  0.28513  0.89343  Biso   1.000  C
  C798     1.0000 0.71487  0.07673  0.89343  Biso   1.000  C
  C799     1.0000 0.58993  0.97147  0.22677  Biso   1.000  C
  C800     1.0000 0.02853  0.61847  0.22677  Biso   1.000  C
  C801     1.0000 0.38153  0.41007  0.22677  Biso   1.000  C
  C802     1.0000 0.74340  0.69520  0.43990  Biso   1.000  C
  C803     1.0000 0.30480  0.04820  0.43990  Biso   1.000  C
  C804     1.0000 0.95180  0.25660  0.43990  Biso   1.000  C
  C805     1.0000 0.41007  0.02853  0.77323  Biso   1.000  C
  C806     1.0000 0.97147  0.38153  0.77323  Biso   1.000  C
  C807     1.0000 0.61847  0.58993  0.77323  Biso   1.000  C
  C808     1.0000 0.07673  0.36187  0.10657  Biso   1.000  C
  C809     1.0000 0.63813  0.71487  0.10657  Biso   1.000  C
  C810     1.0000 0.28513  0.92327  0.10657  Biso   1.000  C
  H649     1.0000 0.28460  0.32190  0.54610  Biso   1.000  H
  H650     1.0000 0.67810  0.96270  0.54610  Biso   1.000  H
  H651     1.0000 0.03730  0.71540  0.54610  Biso   1.000  H
  H652     1.0000 0.95127  0.65523  0.87943  Biso   1.000  H
  H653     1.0000 0.34477  0.29603  0.87943  Biso   1.000  H
  H654     1.0000 0.70397  0.04873  0.87943  Biso   1.000  H
  H655     1.0000 0.61793  0.98857  0.21277  Biso   1.000  H
  H656     1.0000 0.01143  0.62937  0.21277  Biso   1.000  H
  H657     1.0000 0.37063  0.38207  0.21277  Biso   1.000  H
  H658     1.0000 0.71540  0.67810  0.45390  Biso   1.000  H
  H659     1.0000 0.32190  0.03730  0.45390  Biso   1.000  H
  H660     1.0000 0.96270  0.28460  0.45390  Biso   1.000  H
  H661     1.0000 0.38207  0.01143  0.78723  Biso   1.000  H
  H662     1.0000 0.98857  0.37063  0.78723  Biso   1.000  H
  H663     1.0000 0.62937  0.61793  0.78723  Biso   1.000  H
  H664     1.0000 0.04873  0.34477  0.12057  Biso   1.000  H
  H665     1.0000 0.65523  0.70397  0.12057  Biso   1.000  H
  H666     1.0000 0.29603  0.95127  0.12057  Biso   1.000  H
  H667     1.0000 0.24800  0.32300  0.57720  Biso   1.000  H
  H668     1.0000 0.67700  0.92500  0.57720  Biso   1.000  H
  H669     1.0000 0.07500  0.75200  0.57720  Biso   1.000  H
  H670     1.0000 0.91467  0.65633  0.91053  Biso   1.000  H
  H671     1.0000 0.34367  0.25833  0.91053  Biso   1.000  H
  H672     1.0000 0.74167  0.08533  0.91053  Biso   1.000  H
  H673     1.0000 0.58133  0.98967  0.24387  Biso   1.000  H
  H674     1.0000 0.01033  0.59167  0.24387  Biso   1.000  H
  H675     1.0000 0.40833  0.41867  0.24387  Biso   1.000  H
  H676     1.0000 0.75200  0.67700  0.42280  Biso   1.000  H
  H677     1.0000 0.32300  0.07500  0.42280  Biso   1.000  H
  H678     1.0000 0.92500  0.24800  0.42280  Biso   1.000  H
  H679     1.0000 0.41867  0.01033  0.75613  Biso   1.000  H
  H680     1.0000 0.98967  0.40833  0.75613  Biso   1.000  H
  H681     1.0000 0.59167  0.58133  0.75613  Biso   1.000  H
  H682     1.0000 0.08533  0.34367  0.08947  Biso   1.000  H
  H683     1.0000 0.65633  0.74167  0.08947  Biso   1.000  H
  H684     1.0000 0.25833  0.91467  0.08947  Biso   1.000  H
  C811     1.0000 0.25710  0.28390  0.59830  Biso   1.000  C
  C812     1.0000 0.71610  0.97320  0.59830  Biso   1.000  C
  C813     1.0000 0.02680  0.74290  0.59830  Biso   1.000  C
  C814     1.0000 0.92377  0.61723  0.93163  Biso   1.000  C
  C815     1.0000 0.38277  0.30653  0.93163  Biso   1.000  C
  C816     1.0000 0.69347  0.07623  0.93163  Biso   1.000  C
  C817     1.0000 0.59043  0.95057  0.26497  Biso   1.000  C
  C818     1.0000 0.04943  0.63987  0.26497  Biso   1.000  C
  C819     1.0000 0.36013  0.40957  0.26497  Biso   1.000  C
  C820     1.0000 0.74290  0.71610  0.40170  Biso   1.000  C
  C821     1.0000 0.28390  0.02680  0.40170  Biso   1.000  C
  C822     1.0000 0.97320  0.25710  0.40170  Biso   1.000  C
  C823     1.0000 0.40957  0.04943  0.73503  Biso   1.000  C
  C824     1.0000 0.95057  0.36013  0.73503  Biso   1.000  C
  C825     1.0000 0.63987  0.59043  0.73503  Biso   1.000  C
  C826     1.0000 0.07623  0.38277  0.06837  Biso   1.000  C
  C827     1.0000 0.61723  0.69347  0.06837  Biso   1.000  C
  C828     1.0000 0.30653  0.92377  0.06837  Biso   1.000  C
  H685     1.0000 0.23360  0.27680  0.62370  Biso   1.000  H
  H686     1.0000 0.72320  0.95680  0.62370  Biso   1.000  H
  H687     1.0000 0.04320  0.76640  0.62370  Biso   1.000  H
  H688     1.0000 0.90027  0.61013  0.95703  Biso   1.000  H
  H689     1.0000 0.38987  0.29013  0.95703  Biso   1.000  H
  H690     1.0000 0.70987  0.09973  0.95703  Biso   1.000  H
  H691     1.0000 0.56693  0.94347  0.29037  Biso   1.000  H
  H692     1.0000 0.05653  0.62347  0.29037  Biso   1.000  H
  H693     1.0000 0.37653  0.43307  0.29037  Biso   1.000  H
  H694     1.0000 0.76640  0.72320  0.37630  Biso   1.000  H
  H695     1.0000 0.27680  0.04320  0.37630  Biso   1.000  H
  H696     1.0000 0.95680  0.23360  0.37630  Biso   1.000  H
  H697     1.0000 0.43307  0.05653  0.70963  Biso   1.000  H
  H698     1.0000 0.94347  0.37653  0.70963  Biso   1.000  H
  H699     1.0000 0.62347  0.56693  0.70963  Biso   1.000  H
  H700     1.0000 0.09973  0.38987  0.04297  Biso   1.000  H
  H701     1.0000 0.61013  0.70987  0.04297  Biso   1.000  H
  H702     1.0000 0.29013  0.90027  0.04297  Biso   1.000  H
  H703     1.0000 0.28150  0.30040  0.62190  Biso   1.000  H
  H704     1.0000 0.69960  0.98110  0.62190  Biso   1.000  H
  H705     1.0000 0.01890  0.71850  0.62190  Biso   1.000  H
  H706     1.0000 0.94817  0.63373  0.95523  Biso   1.000  H
  H707     1.0000 0.36627  0.31443  0.95523  Biso   1.000  H
  H708     1.0000 0.68557  0.05183  0.95523  Biso   1.000  H
  H709     1.0000 0.61483  0.96707  0.28857  Biso   1.000  H
  H710     1.0000 0.03293  0.64777  0.28857  Biso   1.000  H
  H711     1.0000 0.35223  0.38517  0.28857  Biso   1.000  H
  H712     1.0000 0.71850  0.69960  0.37810  Biso   1.000  H
  H713     1.0000 0.30040  0.01890  0.37810  Biso   1.000  H
  H714     1.0000 0.98110  0.28150  0.37810  Biso   1.000  H
  H715     1.0000 0.38517  0.03293  0.71143  Biso   1.000  H
  H716     1.0000 0.96707  0.35223  0.71143  Biso   1.000  H
  H717     1.0000 0.64777  0.61483  0.71143  Biso   1.000  H
  H718     1.0000 0.05183  0.36627  0.04477  Biso   1.000  H
  H719     1.0000 0.63373  0.68557  0.04477  Biso   1.000  H
  H720     1.0000 0.31443  0.94817  0.04477  Biso   1.000  H
  O253     1.0000 0.25650  0.24660  0.58380  Biso   1.000  O
  O254     1.0000 0.75340  0.00990  0.58380  Biso   1.000  O
  O255     1.0000 0.99010  0.74350  0.58380  Biso   1.000  O
  O256     1.0000 0.92317  0.57993  0.91713  Biso   1.000  O
  O257     1.0000 0.42007  0.34323  0.91713  Biso   1.000  O
  O258     1.0000 0.65677  0.07683  0.91713  Biso   1.000  O
  O259     1.0000 0.58983  0.91327  0.25047  Biso   1.000  O
  O260     1.0000 0.08673  0.67657  0.25047  Biso   1.000  O
  O261     1.0000 0.32343  0.41017  0.25047  Biso   1.000  O
  O262     1.0000 0.74350  0.75340  0.41620  Biso   1.000  O
  O263     1.0000 0.24660  0.99010  0.41620  Biso   1.000  O
  O264     1.0000 0.00990  0.25650  0.41620  Biso   1.000  O
  O265     1.0000 0.41017  0.08673  0.74953  Biso   1.000  O
  O266     1.0000 0.91327  0.32343  0.74953  Biso   1.000  O
  O267     1.0000 0.67657  0.58983  0.74953  Biso   1.000  O
  O268     1.0000 0.07683  0.42007  0.08287  Biso   1.000  O
  O269     1.0000 0.57993  0.65677  0.08287  Biso   1.000  O
  O270     1.0000 0.34323  0.92317  0.08287  Biso   1.000  O
  C829     1.0000 0.23450  0.22920  0.53700  Biso   1.000  C
  C830     1.0000 0.77080  0.00530  0.53700  Biso   1.000  C
  C831     1.0000 0.99470  0.76550  0.53700  Biso   1.000  C
  C832     1.0000 0.90117  0.56253  0.87033  Biso   1.000  C
  C833     1.0000 0.43747  0.33863  0.87033  Biso   1.000  C
  C834     1.0000 0.66137  0.09883  0.87033  Biso   1.000  C
  C835     1.0000 0.56783  0.89587  0.20367  Biso   1.000  C
  C836     1.0000 0.10413  0.67197  0.20367  Biso   1.000  C
  C837     1.0000 0.32803  0.43217  0.20367  Biso   1.000  C
  C838     1.0000 0.76550  0.77080  0.46300  Biso   1.000  C
  C839     1.0000 0.22920  0.99470  0.46300  Biso   1.000  C
  C840     1.0000 0.00530  0.23450  0.46300  Biso   1.000  C
  C841     1.0000 0.43217  0.10413  0.79633  Biso   1.000  C
  C842     1.0000 0.89587  0.32803  0.79633  Biso   1.000  C
  C843     1.0000 0.67197  0.56783  0.79633  Biso   1.000  C
  C844     1.0000 0.09883  0.43747  0.12967  Biso   1.000  C
  C845     1.0000 0.56253  0.66137  0.12967  Biso   1.000  C
  C846     1.0000 0.33863  0.90117  0.12967  Biso   1.000  C
  H721     1.0000 0.24490  0.21260  0.51940  Biso   1.000  H
  H722     1.0000 0.78740  0.03230  0.51940  Biso   1.000  H
  H723     1.0000 0.96770  0.75510  0.51940  Biso   1.000  H
  H724     1.0000 0.91157  0.54593  0.85273  Biso   1.000  H
  H725     1.0000 0.45407  0.36563  0.85273  Biso   1.000  H
  H726     1.0000 0.63437  0.08843  0.85273  Biso   1.000  H
  H727     1.0000 0.57823  0.87927  0.18607  Biso   1.000  H
  H728     1.0000 0.12073  0.69897  0.18607  Biso   1.000  H
  H729     1.0000 0.30103  0.42177  0.18607  Biso   1.000  H
  H730     1.0000 0.75510  0.78740  0.48060  Biso   1.000  H
  H731     1.0000 0.21260  0.96770  0.48060  Biso   1.000  H
  H732     1.0000 0.03230  0.24490  0.48060  Biso   1.000  H
  H733     1.0000 0.42177  0.12073  0.81393  Biso   1.000  H
  H734     1.0000 0.87927  0.30103  0.81393  Biso   1.000  H
  H735     1.0000 0.69897  0.57823  0.81393  Biso   1.000  H
  H736     1.0000 0.08843  0.45407  0.14727  Biso   1.000  H
  H737     1.0000 0.54593  0.63437  0.14727  Biso   1.000  H
  H738     1.0000 0.36563  0.91157  0.14727  Biso   1.000  H
  H739     1.0000 0.20670  0.21040  0.55040  Biso   1.000  H
  H740     1.0000 0.78960  0.99630  0.55040  Biso   1.000  H
  H741     1.0000 0.00370  0.79330  0.55040  Biso   1.000  H
  H742     1.0000 0.87337  0.54373  0.88373  Biso   1.000  H
  H743     1.0000 0.45627  0.32963  0.88373  Biso   1.000  H
  H744     1.0000 0.67037  0.12663  0.88373  Biso   1.000  H
  H745     1.0000 0.54003  0.87707  0.21707  Biso   1.000  H
  H746     1.0000 0.12293  0.66297  0.21707  Biso   1.000  H
  H747     1.0000 0.33703  0.45997  0.21707  Biso   1.000  H
  H748     1.0000 0.79330  0.78960  0.44960  Biso   1.000  H
  H749     1.0000 0.21040  0.00370  0.44960  Biso   1.000  H
  H750     1.0000 0.99630  0.20670  0.44960  Biso   1.000  H
  H751     1.0000 0.45997  0.12293  0.78293  Biso   1.000  H
  H752     1.0000 0.87707  0.33703  0.78293  Biso   1.000  H
  H753     1.0000 0.66297  0.54003  0.78293  Biso   1.000  H
  H754     1.0000 0.12663  0.45627  0.11627  Biso   1.000  H
  H755     1.0000 0.54373  0.67037  0.11627  Biso   1.000  H
  H756     1.0000 0.32963  0.87337  0.11627  Biso   1.000  H
  C847     1.0000 0.23220  0.24990  0.49790  Biso   1.000  C
  C848     1.0000 0.75010  0.98230  0.49790  Biso   1.000  C
  C849     1.0000 0.01770  0.76780  0.49790  Biso   1.000  C
  C850     1.0000 0.89887  0.58323  0.83123  Biso   1.000  C
  C851     1.0000 0.41677  0.31563  0.83123  Biso   1.000  C
  C852     1.0000 0.68437  0.10113  0.83123  Biso   1.000  C
  C853     1.0000 0.56553  0.91657  0.16457  Biso   1.000  C
  C854     1.0000 0.08343  0.64897  0.16457  Biso   1.000  C
  C855     1.0000 0.35103  0.43447  0.16457  Biso   1.000  C
  C856     1.0000 0.76780  0.75010  0.50210  Biso   1.000  C
  C857     1.0000 0.24990  0.01770  0.50210  Biso   1.000  C
  C858     1.0000 0.98230  0.23220  0.50210  Biso   1.000  C
  C859     1.0000 0.43447  0.08343  0.83543  Biso   1.000  C
  C860     1.0000 0.91657  0.35103  0.83543  Biso   1.000  C
  C861     1.0000 0.64897  0.56553  0.83543  Biso   1.000  C
  C862     1.0000 0.10113  0.41677  0.16877  Biso   1.000  C
  C863     1.0000 0.58323  0.68437  0.16877  Biso   1.000  C
  C864     1.0000 0.31563  0.89887  0.16877  Biso   1.000  C
  H757     1.0000 0.20740  0.23230  0.47540  Biso   1.000  H
  H758     1.0000 0.76770  0.97510  0.47540  Biso   1.000  H
  H759     1.0000 0.02490  0.79260  0.47540  Biso   1.000  H
  H760     1.0000 0.87407  0.56563  0.80873  Biso   1.000  H
  H761     1.0000 0.43437  0.30843  0.80873  Biso   1.000  H
  H762     1.0000 0.69157  0.12593  0.80873  Biso   1.000  H
  H763     1.0000 0.54073  0.89897  0.14207  Biso   1.000  H
  H764     1.0000 0.10103  0.64177  0.14207  Biso   1.000  H
  H765     1.0000 0.35823  0.45927  0.14207  Biso   1.000  H
  H766     1.0000 0.79260  0.76770  0.52460  Biso   1.000  H
  H767     1.0000 0.23230  0.02490  0.52460  Biso   1.000  H
  H768     1.0000 0.97510  0.20740  0.52460  Biso   1.000  H
  H769     1.0000 0.45927  0.10103  0.85793  Biso   1.000  H
  H770     1.0000 0.89897  0.35823  0.85793  Biso   1.000  H
  H771     1.0000 0.64177  0.54073  0.85793  Biso   1.000  H
  H772     1.0000 0.12593  0.43437  0.19127  Biso   1.000  H
  H773     1.0000 0.56563  0.69157  0.19127  Biso   1.000  H
  H774     1.0000 0.30843  0.87407  0.19127  Biso   1.000  H
  H775     1.0000 0.25530  0.25740  0.47140  Biso   1.000  H
  H776     1.0000 0.74260  0.99790  0.47140  Biso   1.000  H
  H777     1.0000 0.00210  0.74470  0.47140  Biso   1.000  H
  H778     1.0000 0.92197  0.59073  0.80473  Biso   1.000  H
  H779     1.0000 0.40927  0.33123  0.80473  Biso   1.000  H
  H780     1.0000 0.66877  0.07803  0.80473  Biso   1.000  H
  H781     1.0000 0.58863  0.92407  0.13807  Biso   1.000  H
  H782     1.0000 0.07593  0.66457  0.13807  Biso   1.000  H
  H783     1.0000 0.33543  0.41137  0.13807  Biso   1.000  H
  H784     1.0000 0.74470  0.74260  0.52860  Biso   1.000  H
  H785     1.0000 0.25740  0.00210  0.52860  Biso   1.000  H
  H786     1.0000 0.99790  0.25530  0.52860  Biso   1.000  H
  H787     1.0000 0.41137  0.07593  0.86193  Biso   1.000  H
  H788     1.0000 0.92407  0.33543  0.86193  Biso   1.000  H
  H789     1.0000 0.66457  0.58863  0.86193  Biso   1.000  H
  H790     1.0000 0.07803  0.40927  0.19527  Biso   1.000  H
  H791     1.0000 0.59073  0.66877  0.19527  Biso   1.000  H
  H792     1.0000 0.33123  0.92197  0.19527  Biso   1.000  H
  O271     1.0000 0.10250  0.13590  0.12920  Biso   1.000  O
  O272     1.0000 0.86410  0.96660  0.12920  Biso   1.000  O
  O273     1.0000 0.03340  0.89750  0.12920  Biso   1.000  O
  O274     1.0000 0.76917  0.46923  0.46253  Biso   1.000  O
  O275     1.0000 0.53077  0.29993  0.46253  Biso   1.000  O
  O276     1.0000 0.70007  0.23083  0.46253  Biso   1.000  O
  O277     1.0000 0.43583  0.80257  0.79587  Biso   1.000  O
  O278     1.0000 0.19743  0.63327  0.79587  Biso   1.000  O
  O279     1.0000 0.36673  0.56417  0.79587  Biso   1.000  O
  O280     1.0000 0.89750  0.86410  0.87080  Biso   1.000  O
  O281     1.0000 0.13590  0.03340  0.87080  Biso   1.000  O
  O282     1.0000 0.96660  0.10250  0.87080  Biso   1.000  O
  O283     1.0000 0.56417  0.19743  0.20413  Biso   1.000  O
  O284     1.0000 0.80257  0.36673  0.20413  Biso   1.000  O
  O285     1.0000 0.63327  0.43583  0.20413  Biso   1.000  O
  O286     1.0000 0.23083  0.53077  0.53747  Biso   1.000  O
  O287     1.0000 0.46923  0.70007  0.53747  Biso   1.000  O
  O288     1.0000 0.29993  0.76917  0.53747  Biso   1.000  O
  O289     1.0000 0.13980  0.20440  0.19410  Biso   1.000  O
  O290     1.0000 0.79560  0.93540  0.19410  Biso   1.000  O
  O291     1.0000 0.06460  0.86020  0.19410  Biso   1.000  O
  O292     1.0000 0.80647  0.53773  0.52743  Biso   1.000  O
  O293     1.0000 0.46227  0.26873  0.52743  Biso   1.000  O
  O294     1.0000 0.73127  0.19353  0.52743  Biso   1.000  O
  O295     1.0000 0.47313  0.87107  0.86077  Biso   1.000  O
  O296     1.0000 0.12893  0.60207  0.86077  Biso   1.000  O
  O297     1.0000 0.39793  0.52687  0.86077  Biso   1.000  O
  O298     1.0000 0.86020  0.79560  0.80590  Biso   1.000  O
  O299     1.0000 0.20440  0.06460  0.80590  Biso   1.000  O
  O300     1.0000 0.93540  0.13980  0.80590  Biso   1.000  O
  O301     1.0000 0.52687  0.12893  0.13923  Biso   1.000  O
  O302     1.0000 0.87107  0.39793  0.13923  Biso   1.000  O
  O303     1.0000 0.60207  0.47313  0.13923  Biso   1.000  O
  O304     1.0000 0.19353  0.46227  0.47257  Biso   1.000  O
  O305     1.0000 0.53773  0.73127  0.47257  Biso   1.000  O
  O306     1.0000 0.26873  0.80647  0.47257  Biso   1.000  O
  C865     1.0000 0.13740  0.16660  0.11710  Biso   1.000  C
  C866     1.0000 0.83340  0.97080  0.11710  Biso   1.000  C
  C867     1.0000 0.02920  0.86260  0.11710  Biso   1.000  C
  C868     1.0000 0.80407  0.49993  0.45043  Biso   1.000  C
  C869     1.0000 0.50007  0.30413  0.45043  Biso   1.000  C
  C870     1.0000 0.69587  0.19593  0.45043  Biso   1.000  C
  C871     1.0000 0.47073  0.83327  0.78377  Biso   1.000  C
  C872     1.0000 0.16673  0.63747  0.78377  Biso   1.000  C
  C873     1.0000 0.36253  0.52927  0.78377  Biso   1.000  C
  C874     1.0000 0.86260  0.83340  0.88290  Biso   1.000  C
  C875     1.0000 0.16660  0.02920  0.88290  Biso   1.000  C
  C876     1.0000 0.97080  0.13740  0.88290  Biso   1.000  C
  C877     1.0000 0.52927  0.16673  0.21623  Biso   1.000  C
  C878     1.0000 0.83327  0.36253  0.21623  Biso   1.000  C
  C879     1.0000 0.63747  0.47073  0.21623  Biso   1.000  C
  C880     1.0000 0.19593  0.50007  0.54957  Biso   1.000  C
  C881     1.0000 0.49993  0.69587  0.54957  Biso   1.000  C
  C882     1.0000 0.30413  0.80407  0.54957  Biso   1.000  C
  H793     1.0000 0.15330  0.15470  0.10190  Biso   1.000  H
  H794     1.0000 0.84530  0.99860  0.10190  Biso   1.000  H
  H795     1.0000 0.00140  0.84670  0.10190  Biso   1.000  H
  H796     1.0000 0.81997  0.48803  0.43523  Biso   1.000  H
  H797     1.0000 0.51197  0.33193  0.43523  Biso   1.000  H
  H798     1.0000 0.66807  0.18003  0.43523  Biso   1.000  H
  H799     1.0000 0.48663  0.82137  0.76857  Biso   1.000  H
  H800     1.0000 0.17863  0.66527  0.76857  Biso   1.000  H
  H801     1.0000 0.33473  0.51337  0.76857  Biso   1.000  H
  H802     1.0000 0.84670  0.84530  0.89810  Biso   1.000  H
  H803     1.0000 0.15470  0.00140  0.89810  Biso   1.000  H
  H804     1.0000 0.99860  0.15330  0.89810  Biso   1.000  H
  H805     1.0000 0.51337  0.17863  0.23143  Biso   1.000  H
  H806     1.0000 0.82137  0.33473  0.23143  Biso   1.000  H
  H807     1.0000 0.66527  0.48663  0.23143  Biso   1.000  H
  H808     1.0000 0.18003  0.51197  0.56477  Biso   1.000  H
  H809     1.0000 0.48803  0.66807  0.56477  Biso   1.000  H
  H810     1.0000 0.33193  0.81997  0.56477  Biso   1.000  H
  H811     1.0000 0.13230  0.17940  0.08320  Biso   1.000  H
  H812     1.0000 0.82060  0.95290  0.08320  Biso   1.000  H
  H813     1.0000 0.04710  0.86770  0.08320  Biso   1.000  H
  H814     1.0000 0.79897  0.51273  0.41653  Biso   1.000  H
  H815     1.0000 0.48727  0.28623  0.41653  Biso   1.000  H
  H816     1.0000 0.71377  0.20103  0.41653  Biso   1.000  H
  H817     1.0000 0.46563  0.84607  0.74987  Biso   1.000  H
  H818     1.0000 0.15393  0.61957  0.74987  Biso   1.000  H
  H819     1.0000 0.38043  0.53437  0.74987  Biso   1.000  H
  H820     1.0000 0.86770  0.82060  0.91680  Biso   1.000  H
  H821     1.0000 0.17940  0.04710  0.91680  Biso   1.000  H
  H822     1.0000 0.95290  0.13230  0.91680  Biso   1.000  H
  H823     1.0000 0.53437  0.15393  0.25013  Biso   1.000  H
  H824     1.0000 0.84607  0.38043  0.25013  Biso   1.000  H
  H825     1.0000 0.61957  0.46563  0.25013  Biso   1.000  H
  H826     1.0000 0.20103  0.48727  0.58347  Biso   1.000  H
  H827     1.0000 0.51273  0.71377  0.58347  Biso   1.000  H
  H828     1.0000 0.28623  0.79897  0.58347  Biso   1.000  H
  C883     1.0000 0.16130  0.19490  0.14700  Biso   1.000  C
  C884     1.0000 0.80510  0.96640  0.14700  Biso   1.000  C
  C885     1.0000 0.03360  0.83870  0.14700  Biso   1.000  C
  C886     1.0000 0.82797  0.52823  0.48033  Biso   1.000  C
  C887     1.0000 0.47177  0.29973  0.48033  Biso   1.000  C
  C888     1.0000 0.70027  0.17203  0.48033  Biso   1.000  C
  C889     1.0000 0.49463  0.86157  0.81367  Biso   1.000  C
  C890     1.0000 0.13843  0.63307  0.81367  Biso   1.000  C
  C891     1.0000 0.36693  0.50537  0.81367  Biso   1.000  C
  C892     1.0000 0.83870  0.80510  0.85300  Biso   1.000  C
  C893     1.0000 0.19490  0.03360  0.85300  Biso   1.000  C
  C894     1.0000 0.96640  0.16130  0.85300  Biso   1.000  C
  C895     1.0000 0.50537  0.13843  0.18633  Biso   1.000  C
  C896     1.0000 0.86157  0.36693  0.18633  Biso   1.000  C
  C897     1.0000 0.63307  0.49463  0.18633  Biso   1.000  C
  C898     1.0000 0.17203  0.47177  0.51967  Biso   1.000  C
  C899     1.0000 0.52823  0.70027  0.51967  Biso   1.000  C
  C900     1.0000 0.29973  0.82797  0.51967  Biso   1.000  C
  H829     1.0000 0.17660  0.21900  0.12210  Biso   1.000  H
  H830     1.0000 0.78100  0.95760  0.12210  Biso   1.000  H
  H831     1.0000 0.04240  0.82340  0.12210  Biso   1.000  H
  H832     1.0000 0.84327  0.55233  0.45543  Biso   1.000  H
  H833     1.0000 0.44767  0.29093  0.45543  Biso   1.000  H
  H834     1.0000 0.70907  0.15673  0.45543  Biso   1.000  H
  H835     1.0000 0.50993  0.88567  0.78877  Biso   1.000  H
  H836     1.0000 0.11433  0.62427  0.78877  Biso   1.000  H
  H837     1.0000 0.37573  0.49007  0.78877  Biso   1.000  H
  H838     1.0000 0.82340  0.78100  0.87790  Biso   1.000  H
  H839     1.0000 0.21900  0.04240  0.87790  Biso   1.000  H
  H840     1.0000 0.95760  0.17660  0.87790  Biso   1.000  H
  H841     1.0000 0.49007  0.11433  0.21123  Biso   1.000  H
  H842     1.0000 0.88567  0.37573  0.21123  Biso   1.000  H
  H843     1.0000 0.62427  0.50993  0.21123  Biso   1.000  H
  H844     1.0000 0.15673  0.44767  0.54457  Biso   1.000  H
  H845     1.0000 0.55233  0.70907  0.54457  Biso   1.000  H
  H846     1.0000 0.29093  0.84327  0.54457  Biso   1.000  H
  H847     1.0000 0.18070  0.18830  0.16510  Biso   1.000  H
  H848     1.0000 0.81170  0.99240  0.16510  Biso   1.000  H
  H849     1.0000 0.00760  0.81930  0.16510  Biso   1.000  H
  H850     1.0000 0.84737  0.52163  0.49843  Biso   1.000  H
  H851     1.0000 0.47837  0.32573  0.49843  Biso   1.000  H
  H852     1.0000 0.67427  0.15263  0.49843  Biso   1.000  H
  H853     1.0000 0.51403  0.85497  0.83177  Biso   1.000  H
  H854     1.0000 0.14503  0.65907  0.83177  Biso   1.000  H
  H855     1.0000 0.34093  0.48597  0.83177  Biso   1.000  H
  H856     1.0000 0.81930  0.81170  0.83490  Biso   1.000  H
  H857     1.0000 0.18830  0.00760  0.83490  Biso   1.000  H
  H858     1.0000 0.99240  0.18070  0.83490  Biso   1.000  H
  H859     1.0000 0.48597  0.14503  0.16823  Biso   1.000  H
  H860     1.0000 0.85497  0.34093  0.16823  Biso   1.000  H
  H861     1.0000 0.65907  0.51403  0.16823  Biso   1.000  H
  H862     1.0000 0.15263  0.47837  0.50157  Biso   1.000  H
  H863     1.0000 0.52163  0.67427  0.50157  Biso   1.000  H
  H864     1.0000 0.32573  0.84737  0.50157  Biso   1.000  H
  C901     1.0000 0.09940  0.17330  0.20250  Biso   1.000  C
  C902     1.0000 0.82670  0.92610  0.20250  Biso   1.000  C
  C903     1.0000 0.07390  0.90060  0.20250  Biso   1.000  C
  C904     1.0000 0.76607  0.50663  0.53583  Biso   1.000  C
  C905     1.0000 0.49337  0.25943  0.53583  Biso   1.000  C
  C906     1.0000 0.74057  0.23393  0.53583  Biso   1.000  C
  C907     1.0000 0.43273  0.83997  0.86917  Biso   1.000  C
  C908     1.0000 0.16003  0.59277  0.86917  Biso   1.000  C
  C909     1.0000 0.40723  0.56727  0.86917  Biso   1.000  C
  C910     1.0000 0.90060  0.82670  0.79750  Biso   1.000  C
  C911     1.0000 0.17330  0.07390  0.79750  Biso   1.000  C
  C912     1.0000 0.92610  0.09940  0.79750  Biso   1.000  C
  C913     1.0000 0.56727  0.16003  0.13083  Biso   1.000  C
  C914     1.0000 0.83997  0.40723  0.13083  Biso   1.000  C
  C915     1.0000 0.59277  0.43273  0.13083  Biso   1.000  C
  C916     1.0000 0.23393  0.49337  0.46417  Biso   1.000  C
  C917     1.0000 0.50663  0.74057  0.46417  Biso   1.000  C
  C918     1.0000 0.25943  0.76607  0.46417  Biso   1.000  C
  H865     1.0000 0.09620  0.16410  0.24340  Biso   1.000  H
  H866     1.0000 0.83590  0.93210  0.24340  Biso   1.000  H
  H867     1.0000 0.06790  0.90380  0.24340  Biso   1.000  H
  H868     1.0000 0.76287  0.49743  0.57673  Biso   1.000  H
  H869     1.0000 0.50257  0.26543  0.57673  Biso   1.000  H
  H870     1.0000 0.73457  0.23713  0.57673  Biso   1.000  H
  H871     1.0000 0.42953  0.83077  0.91007  Biso   1.000  H
  H872     1.0000 0.16923  0.59877  0.91007  Biso   1.000  H
  H873     1.0000 0.40123  0.57047  0.91007  Biso   1.000  H
  H874     1.0000 0.90380  0.83590  0.75660  Biso   1.000  H
  H875     1.0000 0.16410  0.06790  0.75660  Biso   1.000  H
  H876     1.0000 0.93210  0.09620  0.75660  Biso   1.000  H
  H877     1.0000 0.57047  0.16923  0.08993  Biso   1.000  H
  H878     1.0000 0.83077  0.40123  0.08993  Biso   1.000  H
  H879     1.0000 0.59877  0.42953  0.08993  Biso   1.000  H
  H880     1.0000 0.23713  0.50257  0.42327  Biso   1.000  H
  H881     1.0000 0.49743  0.73457  0.42327  Biso   1.000  H
  H882     1.0000 0.26543  0.76287  0.42327  Biso   1.000  H
  H883     1.0000 0.08140  0.18470  0.19640  Biso   1.000  H
  H884     1.0000 0.81530  0.89670  0.19640  Biso   1.000  H
  H885     1.0000 0.10330  0.91860  0.19640  Biso   1.000  H
  H886     1.0000 0.74807  0.51803  0.52973  Biso   1.000  H
  H887     1.0000 0.48197  0.23003  0.52973  Biso   1.000  H
  H888     1.0000 0.76997  0.25193  0.52973  Biso   1.000  H
  H889     1.0000 0.41473  0.85137  0.86307  Biso   1.000  H
  H890     1.0000 0.14863  0.56337  0.86307  Biso   1.000  H
  H891     1.0000 0.43663  0.58527  0.86307  Biso   1.000  H
  H892     1.0000 0.91860  0.81530  0.80360  Biso   1.000  H
  H893     1.0000 0.18470  0.10330  0.80360  Biso   1.000  H
  H894     1.0000 0.89670  0.08140  0.80360  Biso   1.000  H
  H895     1.0000 0.58527  0.14863  0.13693  Biso   1.000  H
  H896     1.0000 0.85137  0.43663  0.13693  Biso   1.000  H
  H897     1.0000 0.56337  0.41473  0.13693  Biso   1.000  H
  H898     1.0000 0.25193  0.48197  0.47027  Biso   1.000  H
  H899     1.0000 0.51803  0.76997  0.47027  Biso   1.000  H
  H900     1.0000 0.23003  0.74807  0.47027  Biso   1.000  H
  C919     1.0000 0.08660  0.14000  0.16630  Biso   1.000  C
  C920     1.0000 0.86000  0.94660  0.16630  Biso   1.000  C
  C921     1.0000 0.05340  0.91340  0.16630  Biso   1.000  C
  C922     1.0000 0.75327  0.47333  0.49963  Biso   1.000  C
  C923     1.0000 0.52667  0.27993  0.49963  Biso   1.000  C
  C924     1.0000 0.72007  0.24673  0.49963  Biso   1.000  C
  C925     1.0000 0.41993  0.80667  0.83297  Biso   1.000  C
  C926     1.0000 0.19333  0.61327  0.83297  Biso   1.000  C
  C927     1.0000 0.38673  0.58007  0.83297  Biso   1.000  C
  C928     1.0000 0.91340  0.86000  0.83370  Biso   1.000  C
  C929     1.0000 0.14000  0.05340  0.83370  Biso   1.000  C
  C930     1.0000 0.94660  0.08660  0.83370  Biso   1.000  C
  C931     1.0000 0.58007  0.19333  0.16703  Biso   1.000  C
  C932     1.0000 0.80667  0.38673  0.16703  Biso   1.000  C
  C933     1.0000 0.61327  0.41993  0.16703  Biso   1.000  C
  C934     1.0000 0.24673  0.52667  0.50037  Biso   1.000  C
  C935     1.0000 0.47333  0.72007  0.50037  Biso   1.000  C
  C936     1.0000 0.27993  0.75327  0.50037  Biso   1.000  C
  H901     1.0000 0.08020  0.11720  0.19280  Biso   1.000  H
  H902     1.0000 0.88280  0.96300  0.19280  Biso   1.000  H
  H903     1.0000 0.03700  0.91980  0.19280  Biso   1.000  H
  H904     1.0000 0.74687  0.45053  0.52613  Biso   1.000  H
  H905     1.0000 0.54947  0.29633  0.52613  Biso   1.000  H
  H906     1.0000 0.70367  0.25313  0.52613  Biso   1.000  H
  H907     1.0000 0.41353  0.78387  0.85947  Biso   1.000  H
  H908     1.0000 0.21613  0.62967  0.85947  Biso   1.000  H
  H909     1.0000 0.37033  0.58647  0.85947  Biso   1.000  H
  H910     1.0000 0.91980  0.88280  0.80720  Biso   1.000  H
  H911     1.0000 0.11720  0.03700  0.80720  Biso   1.000  H
  H912     1.0000 0.96300  0.08020  0.80720  Biso   1.000  H
  H913     1.0000 0.58647  0.21613  0.14053  Biso   1.000  H
  H914     1.0000 0.78387  0.37033  0.14053  Biso   1.000  H
  H915     1.0000 0.62967  0.41353  0.14053  Biso   1.000  H
  H916     1.0000 0.25313  0.54947  0.47387  Biso   1.000  H
  H917     1.0000 0.45053  0.70367  0.47387  Biso   1.000  H
  H918     1.0000 0.29633  0.74687  0.47387  Biso   1.000  H
  H919     1.0000 0.06040  0.13490  0.15030  Biso   1.000  H
  H920     1.0000 0.86510  0.92550  0.15030  Biso   1.000  H
  H921     1.0000 0.07450  0.93960  0.15030  Biso   1.000  H
  H922     1.0000 0.72707  0.46823  0.48363  Biso   1.000  H
  H923     1.0000 0.53177  0.25883  0.48363  Biso   1.000  H
  H924     1.0000 0.74117  0.27293  0.48363  Biso   1.000  H
  H925     1.0000 0.39373  0.80157  0.81697  Biso   1.000  H
  H926     1.0000 0.19843  0.59217  0.81697  Biso   1.000  H
  H927     1.0000 0.40783  0.60627  0.81697  Biso   1.000  H
  H928     1.0000 0.93960  0.86510  0.84970  Biso   1.000  H
  H929     1.0000 0.13490  0.07450  0.84970  Biso   1.000  H
  H930     1.0000 0.92550  0.06040  0.84970  Biso   1.000  H
  H931     1.0000 0.60627  0.19843  0.18303  Biso   1.000  H
  H932     1.0000 0.80157  0.40783  0.18303  Biso   1.000  H
  H933     1.0000 0.59217  0.39373  0.18303  Biso   1.000  H
  H934     1.0000 0.27293  0.53177  0.51637  Biso   1.000  H
  H935     1.0000 0.46823  0.74117  0.51637  Biso   1.000  H
  H936     1.0000 0.25883  0.72707  0.51637  Biso   1.000  H
