data_image0
_cell_length_a       24.495
_cell_length_b       24.495
_cell_length_c       10.51
_cell_angle_alpha    90
_cell_angle_beta     90
_cell_angle_gamma    120

_symmetry_space_group_name_H-M    "P 1"
_symmetry_int_tables_number       1

loop_
  _symmetry_equiv_pos_as_xyz
  'x, y, z'

loop_
  _atom_site_label
  _atom_site_occupancy
  _atom_site_fract_x
  _atom_site_fract_y
  _atom_site_fract_z
  _atom_site_thermal_displace_type
  _atom_site_B_iso_or_equiv
  _atom_site_type_symbol
  Cu1      1.0000 0.50000  0.00000  0.50000  Biso   1.000  Cu
  Cu2      1.0000 0.00000  0.50000  0.50000  Biso   1.000  Cu
  Cu3      1.0000 0.50000  0.50000  0.50000  Biso   1.000  Cu
  Cu4      1.0000 0.83333  0.66667  0.16667  Biso   1.000  Cu
  Cu5      1.0000 0.33333  0.16667  0.16667  Biso   1.000  Cu
  Cu6      1.0000 0.83333  0.16667  0.16667  Biso   1.000  Cu
  Cu7      1.0000 0.16667  0.33333  0.83333  Biso   1.000  Cu
  Cu8      1.0000 0.66667  0.83333  0.83333  Biso   1.000  Cu
  Cu9      1.0000 0.16667  0.83333  0.83333  Biso   1.000  Cu
  C1       1.0000 0.50960  0.08240  0.85410  Biso   1.000  C
  C2       1.0000 0.91760  0.42720  0.85410  Biso   1.000  C
  C3       1.0000 0.57280  0.49040  0.85410  Biso   1.000  C
  C4       1.0000 0.84293  0.74907  0.52077  Biso   1.000  C
  C5       1.0000 0.25093  0.09387  0.52077  Biso   1.000  C
  C6       1.0000 0.90613  0.15707  0.52077  Biso   1.000  C
  C7       1.0000 0.17627  0.41573  0.18743  Biso   1.000  C
  C8       1.0000 0.58427  0.76053  0.18743  Biso   1.000  C
  C9       1.0000 0.23947  0.82373  0.18743  Biso   1.000  C
  C10      1.0000 0.49040  0.91760  0.14590  Biso   1.000  C
  C11      1.0000 0.08240  0.57280  0.14590  Biso   1.000  C
  C12      1.0000 0.42720  0.50960  0.14590  Biso   1.000  C
  C13      1.0000 0.82373  0.58427  0.81257  Biso   1.000  C
  C14      1.0000 0.41573  0.23947  0.81257  Biso   1.000  C
  C15      1.0000 0.76053  0.17627  0.81257  Biso   1.000  C
  C16      1.0000 0.15707  0.25093  0.47923  Biso   1.000  C
  C17      1.0000 0.74907  0.90613  0.47923  Biso   1.000  C
  C18      1.0000 0.09387  0.84293  0.47923  Biso   1.000  C
  F1       1.0000 0.47340  0.06600  0.95180  Biso   1.000  F
  F2       1.0000 0.93400  0.40740  0.95180  Biso   1.000  F
  F3       1.0000 0.59260  0.52660  0.95180  Biso   1.000  F
  F4       1.0000 0.80673  0.73267  0.61847  Biso   1.000  F
  F5       1.0000 0.26733  0.07407  0.61847  Biso   1.000  F
  F6       1.0000 0.92593  0.19327  0.61847  Biso   1.000  F
  F7       1.0000 0.14007  0.39933  0.28513  Biso   1.000  F
  F8       1.0000 0.60067  0.74073  0.28513  Biso   1.000  F
  F9       1.0000 0.25927  0.85993  0.28513  Biso   1.000  F
  F10      1.0000 0.52660  0.93400  0.04820  Biso   1.000  F
  F11      1.0000 0.06600  0.59260  0.04820  Biso   1.000  F
  F12      1.0000 0.40740  0.47340  0.04820  Biso   1.000  F
  F13      1.0000 0.85993  0.60067  0.71487  Biso   1.000  F
  F14      1.0000 0.39933  0.25927  0.71487  Biso   1.000  F
  F15      1.0000 0.74073  0.14007  0.71487  Biso   1.000  F
  F16      1.0000 0.19327  0.26733  0.38153  Biso   1.000  F
  F17      1.0000 0.73267  0.92593  0.38153  Biso   1.000  F
  F18      1.0000 0.07407  0.80673  0.38153  Biso   1.000  F
  F19      1.0000 0.56260  0.08940  0.89230  Biso   1.000  F
  F20      1.0000 0.91060  0.47320  0.89230  Biso   1.000  F
  F21      1.0000 0.52680  0.43740  0.89230  Biso   1.000  F
  F22      1.0000 0.89593  0.75607  0.55897  Biso   1.000  F
  F23      1.0000 0.24393  0.13987  0.55897  Biso   1.000  F
  F24      1.0000 0.86013  0.10407  0.55897  Biso   1.000  F
  F25      1.0000 0.22927  0.42273  0.22563  Biso   1.000  F
  F26      1.0000 0.57727  0.80653  0.22563  Biso   1.000  F
  F27      1.0000 0.19347  0.77073  0.22563  Biso   1.000  F
  F28      1.0000 0.43740  0.91060  0.10770  Biso   1.000  F
  F29      1.0000 0.08940  0.52680  0.10770  Biso   1.000  F
  F30      1.0000 0.47320  0.56260  0.10770  Biso   1.000  F
  F31      1.0000 0.77073  0.57727  0.77437  Biso   1.000  F
  F32      1.0000 0.42273  0.19347  0.77437  Biso   1.000  F
  F33      1.0000 0.80653  0.22927  0.77437  Biso   1.000  F
  F34      1.0000 0.10407  0.24393  0.44103  Biso   1.000  F
  F35      1.0000 0.75607  0.86013  0.44103  Biso   1.000  F
  F36      1.0000 0.13987  0.89593  0.44103  Biso   1.000  F
  F37      1.0000 0.52000  0.13710  0.81980  Biso   1.000  F
  F38      1.0000 0.86290  0.38290  0.81980  Biso   1.000  F
  F39      1.0000 0.61710  0.48000  0.81980  Biso   1.000  F
  F40      1.0000 0.85333  0.80377  0.48647  Biso   1.000  F
  F41      1.0000 0.19623  0.04957  0.48647  Biso   1.000  F
  F42      1.0000 0.95043  0.14667  0.48647  Biso   1.000  F
  F43      1.0000 0.18667  0.47043  0.15313  Biso   1.000  F
  F44      1.0000 0.52957  0.71623  0.15313  Biso   1.000  F
  F45      1.0000 0.28377  0.81333  0.15313  Biso   1.000  F
  F46      1.0000 0.48000  0.86290  0.18020  Biso   1.000  F
  F47      1.0000 0.13710  0.61710  0.18020  Biso   1.000  F
  F48      1.0000 0.38290  0.52000  0.18020  Biso   1.000  F
  F49      1.0000 0.81333  0.52957  0.84687  Biso   1.000  F
  F50      1.0000 0.47043  0.28377  0.84687  Biso   1.000  F
  F51      1.0000 0.71623  0.18667  0.84687  Biso   1.000  F
  F52      1.0000 0.14667  0.19623  0.51353  Biso   1.000  F
  F53      1.0000 0.80377  0.95043  0.51353  Biso   1.000  F
  F54      1.0000 0.04957  0.85333  0.51353  Biso   1.000  F
  F55      1.0000 0.51260  0.05670  0.95850  Biso   1.000  F
  F56      1.0000 0.94330  0.45590  0.95850  Biso   1.000  F
  F57      1.0000 0.54410  0.48740  0.95850  Biso   1.000  F
  F58      1.0000 0.84593  0.72337  0.62517  Biso   1.000  F
  F59      1.0000 0.27663  0.12257  0.62517  Biso   1.000  F
  F60      1.0000 0.87743  0.15407  0.62517  Biso   1.000  F
  F61      1.0000 0.17927  0.39003  0.29183  Biso   1.000  F
  F62      1.0000 0.60997  0.78923  0.29183  Biso   1.000  F
  F63      1.0000 0.21077  0.82073  0.29183  Biso   1.000  F
  F64      1.0000 0.48740  0.94330  0.04150  Biso   1.000  F
  F65      1.0000 0.05670  0.54410  0.04150  Biso   1.000  F
  F66      1.0000 0.45590  0.51260  0.04150  Biso   1.000  F
  F67      1.0000 0.82073  0.60997  0.70817  Biso   1.000  F
  F68      1.0000 0.39003  0.21077  0.70817  Biso   1.000  F
  F69      1.0000 0.78923  0.17927  0.70817  Biso   1.000  F
  F70      1.0000 0.15407  0.27663  0.37483  Biso   1.000  F
  F71      1.0000 0.72337  0.87743  0.37483  Biso   1.000  F
  F72      1.0000 0.12257  0.84593  0.37483  Biso   1.000  F
  F73      1.0000 0.56580  0.12670  0.82880  Biso   1.000  F
  F74      1.0000 0.87330  0.43910  0.82880  Biso   1.000  F
  F75      1.0000 0.56090  0.43420  0.82880  Biso   1.000  F
  F76      1.0000 0.89913  0.79337  0.49547  Biso   1.000  F
  F77      1.0000 0.20663  0.10577  0.49547  Biso   1.000  F
  F78      1.0000 0.89423  0.10087  0.49547  Biso   1.000  F
  F79      1.0000 0.23247  0.46003  0.16213  Biso   1.000  F
  F80      1.0000 0.53997  0.77243  0.16213  Biso   1.000  F
  F81      1.0000 0.22757  0.76753  0.16213  Biso   1.000  F
  F82      1.0000 0.43420  0.87330  0.17120  Biso   1.000  F
  F83      1.0000 0.12670  0.56090  0.17120  Biso   1.000  F
  F84      1.0000 0.43910  0.56580  0.17120  Biso   1.000  F
  F85      1.0000 0.76753  0.53997  0.83787  Biso   1.000  F
  F86      1.0000 0.46003  0.22757  0.83787  Biso   1.000  F
  F87      1.0000 0.77243  0.23247  0.83787  Biso   1.000  F
  F88      1.0000 0.10087  0.20663  0.50453  Biso   1.000  F
  F89      1.0000 0.79337  0.89423  0.50453  Biso   1.000  F
  F90      1.0000 0.10577  0.89913  0.50453  Biso   1.000  F
  F91      1.0000 0.47670  0.10890  0.87720  Biso   1.000  F
  F92      1.0000 0.89110  0.36780  0.87720  Biso   1.000  F
  F93      1.0000 0.63220  0.52330  0.87720  Biso   1.000  F
  F94      1.0000 0.81003  0.77557  0.54387  Biso   1.000  F
  F95      1.0000 0.22443  0.03447  0.54387  Biso   1.000  F
  F96      1.0000 0.96553  0.18997  0.54387  Biso   1.000  F
  F97      1.0000 0.14337  0.44223  0.21053  Biso   1.000  F
  F98      1.0000 0.55777  0.70113  0.21053  Biso   1.000  F
  F99      1.0000 0.29887  0.85663  0.21053  Biso   1.000  F
  F100     1.0000 0.52330  0.89110  0.12280  Biso   1.000  F
  F101     1.0000 0.10890  0.63220  0.12280  Biso   1.000  F
  F102     1.0000 0.36780  0.47670  0.12280  Biso   1.000  F
  F103     1.0000 0.85663  0.55777  0.78947  Biso   1.000  F
  F104     1.0000 0.44223  0.29887  0.78947  Biso   1.000  F
  F105     1.0000 0.70113  0.14337  0.78947  Biso   1.000  F
  F106     1.0000 0.18997  0.22443  0.45613  Biso   1.000  F
  F107     1.0000 0.77557  0.96553  0.45613  Biso   1.000  F
  F108     1.0000 0.03447  0.81003  0.45613  Biso   1.000  F
  C19      1.0000 0.48140  0.03430  0.74560  Biso   1.000  C
  C20      1.0000 0.96570  0.44710  0.74560  Biso   1.000  C
  C21      1.0000 0.55290  0.51860  0.74560  Biso   1.000  C
  C22      1.0000 0.81473  0.70097  0.41227  Biso   1.000  C
  C23      1.0000 0.29903  0.11377  0.41227  Biso   1.000  C
  C24      1.0000 0.88623  0.18527  0.41227  Biso   1.000  C
  C25      1.0000 0.14807  0.36763  0.07893  Biso   1.000  C
  C26      1.0000 0.63237  0.78043  0.07893  Biso   1.000  C
  C27      1.0000 0.21957  0.85193  0.07893  Biso   1.000  C
  C28      1.0000 0.51860  0.96570  0.25440  Biso   1.000  C
  C29      1.0000 0.03430  0.55290  0.25440  Biso   1.000  C
  C30      1.0000 0.44710  0.48140  0.25440  Biso   1.000  C
  C31      1.0000 0.85193  0.63237  0.92107  Biso   1.000  C
  C32      1.0000 0.36763  0.21957  0.92107  Biso   1.000  C
  C33      1.0000 0.78043  0.14807  0.92107  Biso   1.000  C
  C34      1.0000 0.18527  0.29903  0.58773  Biso   1.000  C
  C35      1.0000 0.70097  0.88623  0.58773  Biso   1.000  C
  C36      1.0000 0.11377  0.81473  0.58773  Biso   1.000  C
  O1       1.0000 0.51910  0.04840  0.65240  Biso   1.000  O
  O2       1.0000 0.95160  0.47070  0.65240  Biso   1.000  O
  O3       1.0000 0.52930  0.48090  0.65240  Biso   1.000  O
  O4       1.0000 0.85243  0.71507  0.31907  Biso   1.000  O
  O5       1.0000 0.28493  0.13737  0.31907  Biso   1.000  O
  O6       1.0000 0.86263  0.14757  0.31907  Biso   1.000  O
  O7       1.0000 0.18577  0.38173  0.98573  Biso   1.000  O
  O8       1.0000 0.61827  0.80403  0.98573  Biso   1.000  O
  O9       1.0000 0.19597  0.81423  0.98573  Biso   1.000  O
  O10      1.0000 0.48090  0.95160  0.34760  Biso   1.000  O
  O11      1.0000 0.04840  0.52930  0.34760  Biso   1.000  O
  O12      1.0000 0.47070  0.51910  0.34760  Biso   1.000  O
  O13      1.0000 0.81423  0.61827  0.01427  Biso   1.000  O
  O14      1.0000 0.38173  0.19597  0.01427  Biso   1.000  O
  O15      1.0000 0.80403  0.18577  0.01427  Biso   1.000  O
  O16      1.0000 0.14757  0.28493  0.68093  Biso   1.000  O
  O17      1.0000 0.71507  0.86263  0.68093  Biso   1.000  O
  O18      1.0000 0.13737  0.85243  0.68093  Biso   1.000  O
  C37      1.0000 0.42220  0.98400  0.75930  Biso   1.000  C
  C38      1.0000 0.01600  0.43820  0.75930  Biso   1.000  C
  C39      1.0000 0.56180  0.57780  0.75930  Biso   1.000  C
  C40      1.0000 0.75553  0.65067  0.42597  Biso   1.000  C
  C41      1.0000 0.34933  0.10487  0.42597  Biso   1.000  C
  C42      1.0000 0.89513  0.24447  0.42597  Biso   1.000  C
  C43      1.0000 0.08887  0.31733  0.09263  Biso   1.000  C
  C44      1.0000 0.68267  0.77153  0.09263  Biso   1.000  C
  C45      1.0000 0.22847  0.91113  0.09263  Biso   1.000  C
  C46      1.0000 0.57780  0.01600  0.24070  Biso   1.000  C
  C47      1.0000 0.98400  0.56180  0.24070  Biso   1.000  C
  C48      1.0000 0.43820  0.42220  0.24070  Biso   1.000  C
  C49      1.0000 0.91113  0.68267  0.90737  Biso   1.000  C
  C50      1.0000 0.31733  0.22847  0.90737  Biso   1.000  C
  C51      1.0000 0.77153  0.08887  0.90737  Biso   1.000  C
  C52      1.0000 0.24447  0.34933  0.57403  Biso   1.000  C
  C53      1.0000 0.65067  0.89513  0.57403  Biso   1.000  C
  C54      1.0000 0.10487  0.75553  0.57403  Biso   1.000  C
  C55      1.0000 0.39360  0.93740  0.66720  Biso   1.000  C
  C56      1.0000 0.06260  0.45620  0.66720  Biso   1.000  C
  C57      1.0000 0.54380  0.60640  0.66720  Biso   1.000  C
  C58      1.0000 0.72693  0.60407  0.33387  Biso   1.000  C
  C59      1.0000 0.39593  0.12287  0.33387  Biso   1.000  C
  C60      1.0000 0.87713  0.27307  0.33387  Biso   1.000  C
  C61      1.0000 0.06027  0.27073  0.00053  Biso   1.000  C
  C62      1.0000 0.72927  0.78953  0.00053  Biso   1.000  C
  C63      1.0000 0.21047  0.93973  0.00053  Biso   1.000  C
  C64      1.0000 0.60640  0.06260  0.33280  Biso   1.000  C
  C65      1.0000 0.93740  0.54380  0.33280  Biso   1.000  C
  C66      1.0000 0.45620  0.39360  0.33280  Biso   1.000  C
  C67      1.0000 0.93973  0.72927  0.99947  Biso   1.000  C
  C68      1.0000 0.27073  0.21047  0.99947  Biso   1.000  C
  C69      1.0000 0.78953  0.06027  0.99947  Biso   1.000  C
  C70      1.0000 0.27307  0.39593  0.66613  Biso   1.000  C
  C71      1.0000 0.60407  0.87713  0.66613  Biso   1.000  C
  C72      1.0000 0.12287  0.72693  0.66613  Biso   1.000  C
  O19      1.0000 0.41950  0.93590  0.56470  Biso   1.000  O
  O20      1.0000 0.06410  0.48360  0.56470  Biso   1.000  O
  O21      1.0000 0.51640  0.58050  0.56470  Biso   1.000  O
  O22      1.0000 0.75283  0.60257  0.23137  Biso   1.000  O
  O23      1.0000 0.39743  0.15027  0.23137  Biso   1.000  O
  O24      1.0000 0.84973  0.24717  0.23137  Biso   1.000  O
  O25      1.0000 0.08617  0.26923  0.89803  Biso   1.000  O
  O26      1.0000 0.73077  0.81693  0.89803  Biso   1.000  O
  O27      1.0000 0.18307  0.91383  0.89803  Biso   1.000  O
  O28      1.0000 0.58050  0.06410  0.43530  Biso   1.000  O
  O29      1.0000 0.93590  0.51640  0.43530  Biso   1.000  O
  O30      1.0000 0.48360  0.41950  0.43530  Biso   1.000  O
  O31      1.0000 0.91383  0.73077  0.10197  Biso   1.000  O
  O32      1.0000 0.26923  0.18307  0.10197  Biso   1.000  O
  O33      1.0000 0.81693  0.08617  0.10197  Biso   1.000  O
  O34      1.0000 0.24717  0.39743  0.76863  Biso   1.000  O
  O35      1.0000 0.60257  0.84973  0.76863  Biso   1.000  O
  O36      1.0000 0.15027  0.75283  0.76863  Biso   1.000  O
  C73      1.0000 0.32670  0.88050  0.69410  Biso   1.000  C
  C74      1.0000 0.11950  0.44620  0.69410  Biso   1.000  C
  C75      1.0000 0.55380  0.67330  0.69410  Biso   1.000  C
  C76      1.0000 0.66003  0.54717  0.36077  Biso   1.000  C
  C77      1.0000 0.45283  0.11287  0.36077  Biso   1.000  C
  C78      1.0000 0.88713  0.33997  0.36077  Biso   1.000  C
  C79      1.0000 0.99337  0.21383  0.02743  Biso   1.000  C
  C80      1.0000 0.78617  0.77953  0.02743  Biso   1.000  C
  C81      1.0000 0.22047  0.00663  0.02743  Biso   1.000  C
  C82      1.0000 0.67330  0.11950  0.30590  Biso   1.000  C
  C83      1.0000 0.88050  0.55380  0.30590  Biso   1.000  C
  C84      1.0000 0.44620  0.32670  0.30590  Biso   1.000  C
  C85      1.0000 0.00663  0.78617  0.97257  Biso   1.000  C
  C86      1.0000 0.21383  0.22047  0.97257  Biso   1.000  C
  C87      1.0000 0.77953  0.99337  0.97257  Biso   1.000  C
  C88      1.0000 0.33997  0.45283  0.63923  Biso   1.000  C
  C89      1.0000 0.54717  0.88713  0.63923  Biso   1.000  C
  C90      1.0000 0.11287  0.66003  0.63923  Biso   1.000  C
  C91      1.0000 0.32940  0.84310  0.80900  Biso   1.000  C
  C92      1.0000 0.15690  0.48630  0.80900  Biso   1.000  C
  C93      1.0000 0.51370  0.67060  0.80900  Biso   1.000  C
  C94      1.0000 0.66273  0.50977  0.47567  Biso   1.000  C
  C95      1.0000 0.49023  0.15297  0.47567  Biso   1.000  C
  C96      1.0000 0.84703  0.33727  0.47567  Biso   1.000  C
  C97      1.0000 0.99607  0.17643  0.14233  Biso   1.000  C
  C98      1.0000 0.82357  0.81963  0.14233  Biso   1.000  C
  C99      1.0000 0.18037  0.00393  0.14233  Biso   1.000  C
  C100     1.0000 0.67060  0.15690  0.19100  Biso   1.000  C
  C101     1.0000 0.84310  0.51370  0.19100  Biso   1.000  C
  C102     1.0000 0.48630  0.32940  0.19100  Biso   1.000  C
  C103     1.0000 0.00393  0.82357  0.85767  Biso   1.000  C
  C104     1.0000 0.17643  0.18037  0.85767  Biso   1.000  C
  C105     1.0000 0.81963  0.99607  0.85767  Biso   1.000  C
  C106     1.0000 0.33727  0.49023  0.52433  Biso   1.000  C
  C107     1.0000 0.50977  0.84703  0.52433  Biso   1.000  C
  C108     1.0000 0.15297  0.66273  0.52433  Biso   1.000  C
  C109     1.0000 0.29900  0.84190  0.57580  Biso   1.000  C
  C110     1.0000 0.15810  0.45710  0.57580  Biso   1.000  C
  C111     1.0000 0.54290  0.70100  0.57580  Biso   1.000  C
  C112     1.0000 0.63233  0.50857  0.24247  Biso   1.000  C
  C113     1.0000 0.49143  0.12377  0.24247  Biso   1.000  C
  C114     1.0000 0.87623  0.36767  0.24247  Biso   1.000  C
  C115     1.0000 0.96567  0.17523  0.90913  Biso   1.000  C
  C116     1.0000 0.82477  0.79043  0.90913  Biso   1.000  C
  C117     1.0000 0.20957  0.03433  0.90913  Biso   1.000  C
  C118     1.0000 0.70100  0.15810  0.42420  Biso   1.000  C
  C119     1.0000 0.84190  0.54290  0.42420  Biso   1.000  C
  C120     1.0000 0.45710  0.29900  0.42420  Biso   1.000  C
  C121     1.0000 0.03433  0.82477  0.09087  Biso   1.000  C
  C122     1.0000 0.17523  0.20957  0.09087  Biso   1.000  C
  C123     1.0000 0.79043  0.96567  0.09087  Biso   1.000  C
  C124     1.0000 0.36767  0.49143  0.75753  Biso   1.000  C
  C125     1.0000 0.50857  0.87623  0.75753  Biso   1.000  C
  C126     1.0000 0.12377  0.63233  0.75753  Biso   1.000  C
  O37      1.0000 0.28740  0.90540  0.73280  Biso   1.000  O
  O38      1.0000 0.09460  0.38200  0.73280  Biso   1.000  O
  O39      1.0000 0.61800  0.71260  0.73280  Biso   1.000  O
  O40      1.0000 0.62073  0.57207  0.39947  Biso   1.000  O
  O41      1.0000 0.42793  0.04867  0.39947  Biso   1.000  O
  O42      1.0000 0.95133  0.37927  0.39947  Biso   1.000  O
  O43      1.0000 0.95407  0.23873  0.06613  Biso   1.000  O
  O44      1.0000 0.76127  0.71533  0.06613  Biso   1.000  O
  O45      1.0000 0.28467  0.04593  0.06613  Biso   1.000  O
  O46      1.0000 0.71260  0.09460  0.26720  Biso   1.000  O
  O47      1.0000 0.90540  0.61800  0.26720  Biso   1.000  O
  O48      1.0000 0.38200  0.28740  0.26720  Biso   1.000  O
  O49      1.0000 0.04593  0.76127  0.93387  Biso   1.000  O
  O50      1.0000 0.23873  0.28467  0.93387  Biso   1.000  O
  O51      1.0000 0.71533  0.95407  0.93387  Biso   1.000  O
  O52      1.0000 0.37927  0.42793  0.60053  Biso   1.000  O
  O53      1.0000 0.57207  0.95133  0.60053  Biso   1.000  O
  O54      1.0000 0.04867  0.62073  0.60053  Biso   1.000  O
  C127     1.0000 0.28410  0.94780  0.64500  Biso   1.000  C
  C128     1.0000 0.05220  0.33630  0.64500  Biso   1.000  C
  C129     1.0000 0.66370  0.71590  0.64500  Biso   1.000  C
  C130     1.0000 0.61743  0.61447  0.31167  Biso   1.000  C
  C131     1.0000 0.38553  0.00297  0.31167  Biso   1.000  C
  C132     1.0000 0.99703  0.38257  0.31167  Biso   1.000  C
  C133     1.0000 0.95077  0.28113  0.97833  Biso   1.000  C
  C134     1.0000 0.71887  0.66963  0.97833  Biso   1.000  C
  C135     1.0000 0.33037  0.04923  0.97833  Biso   1.000  C
  C136     1.0000 0.71590  0.05220  0.35500  Biso   1.000  C
  C137     1.0000 0.94780  0.66370  0.35500  Biso   1.000  C
  C138     1.0000 0.33630  0.28410  0.35500  Biso   1.000  C
  C139     1.0000 0.04923  0.71887  0.02167  Biso   1.000  C
  C140     1.0000 0.28113  0.33037  0.02167  Biso   1.000  C
  C141     1.0000 0.66963  0.95077  0.02167  Biso   1.000  C
  C142     1.0000 0.38257  0.38553  0.68833  Biso   1.000  C
  C143     1.0000 0.61447  0.99703  0.68833  Biso   1.000  C
  C144     1.0000 0.00297  0.61743  0.68833  Biso   1.000  C
  C145     1.0000 0.32050  0.89660  0.65880  Biso   1.000  C
  C146     1.0000 0.10340  0.42390  0.65880  Biso   1.000  C
  C147     1.0000 0.57610  0.67950  0.65880  Biso   1.000  C
  C148     1.0000 0.65383  0.56327  0.32547  Biso   1.000  C
  C149     1.0000 0.43673  0.09057  0.32547  Biso   1.000  C
  C150     1.0000 0.90943  0.34617  0.32547  Biso   1.000  C
  C151     1.0000 0.98717  0.22993  0.99213  Biso   1.000  C
  C152     1.0000 0.77007  0.75723  0.99213  Biso   1.000  C
  C153     1.0000 0.24277  0.01283  0.99213  Biso   1.000  C
  C154     1.0000 0.67950  0.10340  0.34120  Biso   1.000  C
  C155     1.0000 0.89660  0.57610  0.34120  Biso   1.000  C
  C156     1.0000 0.42390  0.32050  0.34120  Biso   1.000  C
  C157     1.0000 0.01283  0.77007  0.00787  Biso   1.000  C
  C158     1.0000 0.22993  0.24277  0.00787  Biso   1.000  C
  C159     1.0000 0.75723  0.98717  0.00787  Biso   1.000  C
  C160     1.0000 0.34617  0.43673  0.67453  Biso   1.000  C
  C161     1.0000 0.56327  0.90943  0.67453  Biso   1.000  C
  C162     1.0000 0.09057  0.65383  0.67453  Biso   1.000  C
  C163     1.0000 0.29390  0.93610  0.60110  Biso   1.000  C
  C164     1.0000 0.06390  0.35780  0.60110  Biso   1.000  C
  C165     1.0000 0.64220  0.70610  0.60110  Biso   1.000  C
  C166     1.0000 0.62723  0.60277  0.26777  Biso   1.000  C
  C167     1.0000 0.39723  0.02447  0.26777  Biso   1.000  C
  C168     1.0000 0.97553  0.37277  0.26777  Biso   1.000  C
  C169     1.0000 0.96057  0.26943  0.93443  Biso   1.000  C
  C170     1.0000 0.73057  0.69113  0.93443  Biso   1.000  C
  C171     1.0000 0.30887  0.03943  0.93443  Biso   1.000  C
  C172     1.0000 0.70610  0.06390  0.39890  Biso   1.000  C
  C173     1.0000 0.93610  0.64220  0.39890  Biso   1.000  C
  C174     1.0000 0.35780  0.29390  0.39890  Biso   1.000  C
  C175     1.0000 0.03943  0.73057  0.06557  Biso   1.000  C
  C176     1.0000 0.26943  0.30887  0.06557  Biso   1.000  C
  C177     1.0000 0.69113  0.96057  0.06557  Biso   1.000  C
  C178     1.0000 0.37277  0.39723  0.73223  Biso   1.000  C
  C179     1.0000 0.60277  0.97553  0.73223  Biso   1.000  C
  C180     1.0000 0.02447  0.62723  0.73223  Biso   1.000  C
  C181     1.0000 0.30080  0.83540  0.59160  Biso   1.000  C
  C182     1.0000 0.16460  0.46540  0.59160  Biso   1.000  C
  C183     1.0000 0.53460  0.69920  0.59160  Biso   1.000  C
  C184     1.0000 0.63413  0.50207  0.25827  Biso   1.000  C
  C185     1.0000 0.49793  0.13207  0.25827  Biso   1.000  C
  C186     1.0000 0.86793  0.36587  0.25827  Biso   1.000  C
  C187     1.0000 0.96747  0.16873  0.92493  Biso   1.000  C
  C188     1.0000 0.83127  0.79873  0.92493  Biso   1.000  C
  C189     1.0000 0.20127  0.03253  0.92493  Biso   1.000  C
  C190     1.0000 0.69920  0.16460  0.40840  Biso   1.000  C
  C191     1.0000 0.83540  0.53460  0.40840  Biso   1.000  C
  C192     1.0000 0.46540  0.30080  0.40840  Biso   1.000  C
  C193     1.0000 0.03253  0.83127  0.07507  Biso   1.000  C
  C194     1.0000 0.16873  0.20127  0.07507  Biso   1.000  C
  C195     1.0000 0.79873  0.96747  0.07507  Biso   1.000  C
  C196     1.0000 0.36587  0.49793  0.74173  Biso   1.000  C
  C197     1.0000 0.50207  0.86793  0.74173  Biso   1.000  C
  C198     1.0000 0.13207  0.63413  0.74173  Biso   1.000  C
  O55      1.0000 0.29690  0.88240  0.78650  Biso   1.000  O
  O56      1.0000 0.11760  0.41450  0.78650  Biso   1.000  O
  O57      1.0000 0.58550  0.70310  0.78650  Biso   1.000  O
  O58      1.0000 0.63023  0.54907  0.45317  Biso   1.000  O
  O59      1.0000 0.45093  0.08117  0.45317  Biso   1.000  O
  O60      1.0000 0.91883  0.36977  0.45317  Biso   1.000  O
  O61      1.0000 0.96357  0.21573  0.11983  Biso   1.000  O
  O62      1.0000 0.78427  0.74783  0.11983  Biso   1.000  O
  O63      1.0000 0.25217  0.03643  0.11983  Biso   1.000  O
  O64      1.0000 0.70310  0.11760  0.21350  Biso   1.000  O
  O65      1.0000 0.88240  0.58550  0.21350  Biso   1.000  O
  O66      1.0000 0.41450  0.29690  0.21350  Biso   1.000  O
  O67      1.0000 0.03643  0.78427  0.88017  Biso   1.000  O
  O68      1.0000 0.21573  0.25217  0.88017  Biso   1.000  O
  O69      1.0000 0.74783  0.96357  0.88017  Biso   1.000  O
  O70      1.0000 0.36977  0.45093  0.54683  Biso   1.000  O
  O71      1.0000 0.54907  0.91883  0.54683  Biso   1.000  O
  O72      1.0000 0.08117  0.63023  0.54683  Biso   1.000  O
  C199     1.0000 0.31940  0.84880  0.85960  Biso   1.000  C
  C200     1.0000 0.15120  0.47060  0.85960  Biso   1.000  C
  C201     1.0000 0.52940  0.68060  0.85960  Biso   1.000  C
  C202     1.0000 0.65273  0.51547  0.52627  Biso   1.000  C
  C203     1.0000 0.48453  0.13727  0.52627  Biso   1.000  C
  C204     1.0000 0.86273  0.34727  0.52627  Biso   1.000  C
  C205     1.0000 0.98607  0.18213  0.19293  Biso   1.000  C
  C206     1.0000 0.81787  0.80393  0.19293  Biso   1.000  C
  C207     1.0000 0.19607  0.01393  0.19293  Biso   1.000  C
  C208     1.0000 0.68060  0.15120  0.14040  Biso   1.000  C
  C209     1.0000 0.84880  0.52940  0.14040  Biso   1.000  C
  C210     1.0000 0.47060  0.31940  0.14040  Biso   1.000  C
  C211     1.0000 0.01393  0.81787  0.80707  Biso   1.000  C
  C212     1.0000 0.18213  0.19607  0.80707  Biso   1.000  C
  C213     1.0000 0.80393  0.98607  0.80707  Biso   1.000  C
  C214     1.0000 0.34727  0.48453  0.47373  Biso   1.000  C
  C215     1.0000 0.51547  0.86273  0.47373  Biso   1.000  C
  C216     1.0000 0.13727  0.65273  0.47373  Biso   1.000  C
  C217     1.0000 0.33840  0.66990  0.02050  Biso   1.000  C
  C218     1.0000 0.33010  0.66850  0.02050  Biso   1.000  C
  C219     1.0000 0.33150  0.66160  0.02050  Biso   1.000  C
  C220     1.0000 0.67173  0.33657  0.68717  Biso   1.000  C
  C221     1.0000 0.66343  0.33517  0.68717  Biso   1.000  C
  C222     1.0000 0.66483  0.32827  0.68717  Biso   1.000  C
  C223     1.0000 0.00507  0.00323  0.35383  Biso   1.000  C
  C224     1.0000 0.99677  0.00183  0.35383  Biso   1.000  C
  C225     1.0000 0.99817  0.99493  0.35383  Biso   1.000  C
  C226     1.0000 0.66160  0.33010  0.97950  Biso   1.000  C
  C227     1.0000 0.66990  0.33150  0.97950  Biso   1.000  C
  C228     1.0000 0.66850  0.33840  0.97950  Biso   1.000  C
  C229     1.0000 0.99493  0.99677  0.64617  Biso   1.000  C
  C230     1.0000 0.00323  0.99817  0.64617  Biso   1.000  C
  C231     1.0000 0.00183  0.00507  0.64617  Biso   1.000  C
  C232     1.0000 0.32827  0.66343  0.31283  Biso   1.000  C
  C233     1.0000 0.33657  0.66483  0.31283  Biso   1.000  C
  C234     1.0000 0.33517  0.67173  0.31283  Biso   1.000  C
  C235     1.0000 0.35140  0.61990  0.96240  Biso   1.000  C
  C236     1.0000 0.38010  0.73150  0.96240  Biso   1.000  C
  C237     1.0000 0.26850  0.64860  0.96240  Biso   1.000  C
  C238     1.0000 0.68473  0.28657  0.62907  Biso   1.000  C
  C239     1.0000 0.71343  0.39817  0.62907  Biso   1.000  C
  C240     1.0000 0.60183  0.31527  0.62907  Biso   1.000  C
  C241     1.0000 0.01807  0.95323  0.29573  Biso   1.000  C
  C242     1.0000 0.04677  0.06483  0.29573  Biso   1.000  C
  C243     1.0000 0.93517  0.98193  0.29573  Biso   1.000  C
  C244     1.0000 0.64860  0.38010  0.03760  Biso   1.000  C
  C245     1.0000 0.61990  0.26850  0.03760  Biso   1.000  C
  C246     1.0000 0.73150  0.35140  0.03760  Biso   1.000  C
  C247     1.0000 0.98193  0.04677  0.70427  Biso   1.000  C
  C248     1.0000 0.95323  0.93517  0.70427  Biso   1.000  C
  C249     1.0000 0.06483  0.01807  0.70427  Biso   1.000  C
  C250     1.0000 0.31527  0.71343  0.37093  Biso   1.000  C
  C251     1.0000 0.28657  0.60183  0.37093  Biso   1.000  C
  C252     1.0000 0.39817  0.68473  0.37093  Biso   1.000  C
  C253     1.0000 0.39280  0.73140  0.96610  Biso   1.000  C
  C254     1.0000 0.26860  0.66140  0.96610  Biso   1.000  C
  C255     1.0000 0.33860  0.60720  0.96610  Biso   1.000  C
  C256     1.0000 0.72613  0.39807  0.63277  Biso   1.000  C
  C257     1.0000 0.60193  0.32807  0.63277  Biso   1.000  C
  C258     1.0000 0.67193  0.27387  0.63277  Biso   1.000  C
  C259     1.0000 0.05947  0.06473  0.29943  Biso   1.000  C
  C260     1.0000 0.93527  0.99473  0.29943  Biso   1.000  C
  C261     1.0000 0.00527  0.94053  0.29943  Biso   1.000  C
  C262     1.0000 0.60720  0.26860  0.03390  Biso   1.000  C
  C263     1.0000 0.73140  0.33860  0.03390  Biso   1.000  C
  C264     1.0000 0.66140  0.39280  0.03390  Biso   1.000  C
  C265     1.0000 0.94053  0.93527  0.70057  Biso   1.000  C
  C266     1.0000 0.06473  0.00527  0.70057  Biso   1.000  C
  C267     1.0000 0.99473  0.05947  0.70057  Biso   1.000  C
  C268     1.0000 0.27387  0.60193  0.36723  Biso   1.000  C
  C269     1.0000 0.39807  0.67193  0.36723  Biso   1.000  C
  C270     1.0000 0.32807  0.72613  0.36723  Biso   1.000  C
  C271     1.0000 0.28200  0.66160  0.94130  Biso   1.000  C
  C272     1.0000 0.33840  0.62040  0.94130  Biso   1.000  C
  C273     1.0000 0.37960  0.71800  0.94130  Biso   1.000  C
  C274     1.0000 0.61533  0.32827  0.60797  Biso   1.000  C
  C275     1.0000 0.67173  0.28707  0.60797  Biso   1.000  C
  C276     1.0000 0.71293  0.38467  0.60797  Biso   1.000  C
  C277     1.0000 0.94867  0.99493  0.27463  Biso   1.000  C
  C278     1.0000 0.00507  0.95373  0.27463  Biso   1.000  C
  C279     1.0000 0.04627  0.05133  0.27463  Biso   1.000  C
  C280     1.0000 0.71800  0.33840  0.05870  Biso   1.000  C
  C281     1.0000 0.66160  0.37960  0.05870  Biso   1.000  C
  C282     1.0000 0.62040  0.28200  0.05870  Biso   1.000  C
  C283     1.0000 0.05133  0.00507  0.72537  Biso   1.000  C
  C284     1.0000 0.99493  0.04627  0.72537  Biso   1.000  C
  C285     1.0000 0.95373  0.94867  0.72537  Biso   1.000  C
  C286     1.0000 0.38467  0.67173  0.39203  Biso   1.000  C
  C287     1.0000 0.32827  0.71293  0.39203  Biso   1.000  C
  C288     1.0000 0.28707  0.61533  0.39203  Biso   1.000  C
  C289     1.0000 0.33040  0.66750  0.16120  Biso   1.000  C
  C290     1.0000 0.33250  0.66290  0.16120  Biso   1.000  C
  C291     1.0000 0.33710  0.66960  0.16120  Biso   1.000  C
  C292     1.0000 0.66373  0.33417  0.82787  Biso   1.000  C
  C293     1.0000 0.66583  0.32957  0.82787  Biso   1.000  C
  C294     1.0000 0.67043  0.33627  0.82787  Biso   1.000  C
  C295     1.0000 0.99707  0.00083  0.49453  Biso   1.000  C
  C296     1.0000 0.99917  0.99623  0.49453  Biso   1.000  C
  C297     1.0000 0.00377  0.00293  0.49453  Biso   1.000  C
  C298     1.0000 0.66960  0.33250  0.83880  Biso   1.000  C
  C299     1.0000 0.66750  0.33710  0.83880  Biso   1.000  C
  C300     1.0000 0.66290  0.33040  0.83880  Biso   1.000  C
  C301     1.0000 0.00293  0.99917  0.50547  Biso   1.000  C
  C302     1.0000 0.00083  0.00377  0.50547  Biso   1.000  C
  C303     1.0000 0.99623  0.99707  0.50547  Biso   1.000  C
  C304     1.0000 0.33627  0.66583  0.17213  Biso   1.000  C
  C305     1.0000 0.33417  0.67043  0.17213  Biso   1.000  C
  C306     1.0000 0.32957  0.66373  0.17213  Biso   1.000  C
  C307     1.0000 0.37930  0.71020  0.23800  Biso   1.000  C
  C308     1.0000 0.28980  0.66910  0.23800  Biso   1.000  C
  C309     1.0000 0.33090  0.62070  0.23800  Biso   1.000  C
  C310     1.0000 0.71263  0.37687  0.90467  Biso   1.000  C
  C311     1.0000 0.62313  0.33577  0.90467  Biso   1.000  C
  C312     1.0000 0.66423  0.28737  0.90467  Biso   1.000  C
  C313     1.0000 0.04597  0.04353  0.57133  Biso   1.000  C
  C314     1.0000 0.95647  0.00243  0.57133  Biso   1.000  C
  C315     1.0000 0.99757  0.95403  0.57133  Biso   1.000  C
  C316     1.0000 0.62070  0.28980  0.76200  Biso   1.000  C
  C317     1.0000 0.71020  0.33090  0.76200  Biso   1.000  C
  C318     1.0000 0.66910  0.37930  0.76200  Biso   1.000  C
  C319     1.0000 0.95403  0.95647  0.42867  Biso   1.000  C
  C320     1.0000 0.04353  0.99757  0.42867  Biso   1.000  C
  C321     1.0000 0.00243  0.04597  0.42867  Biso   1.000  C
  C322     1.0000 0.28737  0.62313  0.09533  Biso   1.000  C
  C323     1.0000 0.37687  0.66423  0.09533  Biso   1.000  C
  C324     1.0000 0.33577  0.71263  0.09533  Biso   1.000  C
  C325     1.0000 0.37180  0.70800  0.36930  Biso   1.000  C
  C326     1.0000 0.29200  0.66380  0.36930  Biso   1.000  C
  C327     1.0000 0.33620  0.62820  0.36930  Biso   1.000  C
  C328     1.0000 0.70513  0.37467  0.03597  Biso   1.000  C
  C329     1.0000 0.62533  0.33047  0.03597  Biso   1.000  C
  C330     1.0000 0.66953  0.29487  0.03597  Biso   1.000  C
  C331     1.0000 0.03847  0.04133  0.70263  Biso   1.000  C
  C332     1.0000 0.95867  0.99713  0.70263  Biso   1.000  C
  C333     1.0000 0.00287  0.96153  0.70263  Biso   1.000  C
  C334     1.0000 0.62820  0.29200  0.63070  Biso   1.000  C
  C335     1.0000 0.70800  0.33620  0.63070  Biso   1.000  C
  C336     1.0000 0.66380  0.37180  0.63070  Biso   1.000  C
  C337     1.0000 0.96153  0.95867  0.29737  Biso   1.000  C
  C338     1.0000 0.04133  0.00287  0.29737  Biso   1.000  C
  C339     1.0000 0.99713  0.03847  0.29737  Biso   1.000  C
  C340     1.0000 0.29487  0.62533  0.96403  Biso   1.000  C
  C341     1.0000 0.37467  0.66953  0.96403  Biso   1.000  C
  C342     1.0000 0.33047  0.70513  0.96403  Biso   1.000  C
  C343     1.0000 0.31530  0.66310  0.42370  Biso   1.000  C
  C344     1.0000 0.33690  0.65220  0.42370  Biso   1.000  C
  C345     1.0000 0.34780  0.68470  0.42370  Biso   1.000  C
  C346     1.0000 0.64863  0.32977  0.09037  Biso   1.000  C
  C347     1.0000 0.67023  0.31887  0.09037  Biso   1.000  C
  C348     1.0000 0.68113  0.35137  0.09037  Biso   1.000  C
  C349     1.0000 0.98197  0.99643  0.75703  Biso   1.000  C
  C350     1.0000 0.00357  0.98553  0.75703  Biso   1.000  C
  C351     1.0000 0.01447  0.01803  0.75703  Biso   1.000  C
  C352     1.0000 0.68470  0.33690  0.57630  Biso   1.000  C
  C353     1.0000 0.66310  0.34780  0.57630  Biso   1.000  C
  C354     1.0000 0.65220  0.31530  0.57630  Biso   1.000  C
  C355     1.0000 0.01803  0.00357  0.24297  Biso   1.000  C
  C356     1.0000 0.99643  0.01447  0.24297  Biso   1.000  C
  C357     1.0000 0.98553  0.98197  0.24297  Biso   1.000  C
  C358     1.0000 0.35137  0.67023  0.90963  Biso   1.000  C
  C359     1.0000 0.32977  0.68113  0.90963  Biso   1.000  C
  C360     1.0000 0.31887  0.64863  0.90963  Biso   1.000  C
  C361     1.0000 0.26630  0.62040  0.34690  Biso   1.000  C
  C362     1.0000 0.37960  0.64590  0.34690  Biso   1.000  C
  C363     1.0000 0.35410  0.73370  0.34690  Biso   1.000  C
  C364     1.0000 0.59963  0.28707  0.01357  Biso   1.000  C
  C365     1.0000 0.71293  0.31257  0.01357  Biso   1.000  C
  C366     1.0000 0.68743  0.40037  0.01357  Biso   1.000  C
  C367     1.0000 0.93297  0.95373  0.68023  Biso   1.000  C
  C368     1.0000 0.04627  0.97923  0.68023  Biso   1.000  C
  C369     1.0000 0.02077  0.06703  0.68023  Biso   1.000  C
  C370     1.0000 0.73370  0.37960  0.65310  Biso   1.000  C
  C371     1.0000 0.62040  0.35410  0.65310  Biso   1.000  C
  C372     1.0000 0.64590  0.26630  0.65310  Biso   1.000  C
  C373     1.0000 0.06703  0.04627  0.31977  Biso   1.000  C
  C374     1.0000 0.95373  0.02077  0.31977  Biso   1.000  C
  C375     1.0000 0.97923  0.93297  0.31977  Biso   1.000  C
  C376     1.0000 0.40037  0.71293  0.98643  Biso   1.000  C
  C377     1.0000 0.28707  0.68743  0.98643  Biso   1.000  C
  C378     1.0000 0.31257  0.59963  0.98643  Biso   1.000  C
  C379     1.0000 0.27390  0.62260  0.21570  Biso   1.000  C
  C380     1.0000 0.37740  0.65130  0.21570  Biso   1.000  C
  C381     1.0000 0.34870  0.72610  0.21570  Biso   1.000  C
  C382     1.0000 0.60723  0.28927  0.88237  Biso   1.000  C
  C383     1.0000 0.71073  0.31797  0.88237  Biso   1.000  C
  C384     1.0000 0.68203  0.39277  0.88237  Biso   1.000  C
  C385     1.0000 0.94057  0.95593  0.54903  Biso   1.000  C
  C386     1.0000 0.04407  0.98463  0.54903  Biso   1.000  C
  C387     1.0000 0.01537  0.05943  0.54903  Biso   1.000  C
  C388     1.0000 0.72610  0.37740  0.78430  Biso   1.000  C
  C389     1.0000 0.62260  0.34870  0.78430  Biso   1.000  C
  C390     1.0000 0.65130  0.27390  0.78430  Biso   1.000  C
  C391     1.0000 0.05943  0.04407  0.45097  Biso   1.000  C
  C392     1.0000 0.95593  0.01537  0.45097  Biso   1.000  C
  C393     1.0000 0.98463  0.94057  0.45097  Biso   1.000  C
  C394     1.0000 0.39277  0.71073  0.11763  Biso   1.000  C
  C395     1.0000 0.28927  0.68203  0.11763  Biso   1.000  C
  C396     1.0000 0.31797  0.60723  0.11763  Biso   1.000  C
  C397     1.0000 0.33050  0.66350  0.18760  Biso   1.000  C
  C398     1.0000 0.33650  0.66700  0.18760  Biso   1.000  C
  C399     1.0000 0.33300  0.66950  0.18760  Biso   1.000  C
  C400     1.0000 0.66383  0.33017  0.85427  Biso   1.000  C
  C401     1.0000 0.66983  0.33367  0.85427  Biso   1.000  C
  C402     1.0000 0.66633  0.33617  0.85427  Biso   1.000  C
  C403     1.0000 0.99717  0.99683  0.52093  Biso   1.000  C
  C404     1.0000 0.00317  0.00033  0.52093  Biso   1.000  C
  C405     1.0000 0.99967  0.00283  0.52093  Biso   1.000  C
  C406     1.0000 0.66950  0.33650  0.81240  Biso   1.000  C
  C407     1.0000 0.66350  0.33300  0.81240  Biso   1.000  C
  C408     1.0000 0.66700  0.33050  0.81240  Biso   1.000  C
  C409     1.0000 0.00283  0.00317  0.47907  Biso   1.000  C
  C410     1.0000 0.99683  0.99967  0.47907  Biso   1.000  C
  C411     1.0000 0.00033  0.99717  0.47907  Biso   1.000  C
  C412     1.0000 0.33617  0.66983  0.14573  Biso   1.000  C
  C413     1.0000 0.33017  0.66633  0.14573  Biso   1.000  C
  C414     1.0000 0.33367  0.66383  0.14573  Biso   1.000  C
  C415     1.0000 0.38620  0.66830  0.26430  Biso   1.000  C
  C416     1.0000 0.33170  0.71790  0.26430  Biso   1.000  C
  C417     1.0000 0.28210  0.61380  0.26430  Biso   1.000  C
  C418     1.0000 0.71953  0.33497  0.93097  Biso   1.000  C
  C419     1.0000 0.66503  0.38457  0.93097  Biso   1.000  C
  C420     1.0000 0.61543  0.28047  0.93097  Biso   1.000  C
  C421     1.0000 0.05287  0.00163  0.59763  Biso   1.000  C
  C422     1.0000 0.99837  0.05123  0.59763  Biso   1.000  C
  C423     1.0000 0.94877  0.94713  0.59763  Biso   1.000  C
  C424     1.0000 0.61380  0.33170  0.73570  Biso   1.000  C
  C425     1.0000 0.66830  0.28210  0.73570  Biso   1.000  C
  C426     1.0000 0.71790  0.38620  0.73570  Biso   1.000  C
  C427     1.0000 0.94713  0.99837  0.40237  Biso   1.000  C
  C428     1.0000 0.00163  0.94877  0.40237  Biso   1.000  C
  C429     1.0000 0.05123  0.05287  0.40237  Biso   1.000  C
  C430     1.0000 0.28047  0.66503  0.06903  Biso   1.000  C
  C431     1.0000 0.33497  0.61543  0.06903  Biso   1.000  C
  C432     1.0000 0.38457  0.71953  0.06903  Biso   1.000  C
  C433     1.0000 0.30970  0.70170  0.26980  Biso   1.000  C
  C434     1.0000 0.29830  0.60800  0.26980  Biso   1.000  C
  C435     1.0000 0.39200  0.69030  0.26980  Biso   1.000  C
  C436     1.0000 0.64303  0.36837  0.93647  Biso   1.000  C
  C437     1.0000 0.63163  0.27467  0.93647  Biso   1.000  C
  C438     1.0000 0.72533  0.35697  0.93647  Biso   1.000  C
  C439     1.0000 0.97637  0.03503  0.60313  Biso   1.000  C
  C440     1.0000 0.96497  0.94133  0.60313  Biso   1.000  C
  C441     1.0000 0.05867  0.02363  0.60313  Biso   1.000  C
  C442     1.0000 0.69030  0.29830  0.73020  Biso   1.000  C
  C443     1.0000 0.70170  0.39200  0.73020  Biso   1.000  C
  C444     1.0000 0.60800  0.30970  0.73020  Biso   1.000  C
  C445     1.0000 0.02363  0.96497  0.39687  Biso   1.000  C
  C446     1.0000 0.03503  0.05867  0.39687  Biso   1.000  C
  C447     1.0000 0.94133  0.97637  0.39687  Biso   1.000  C
  C448     1.0000 0.35697  0.63163  0.06353  Biso   1.000  C
  C449     1.0000 0.36837  0.72533  0.06353  Biso   1.000  C
  C450     1.0000 0.27467  0.64303  0.06353  Biso   1.000  C
  C451     1.0000 0.27850  0.59530  0.21470  Biso   1.000  C
  C452     1.0000 0.40470  0.68320  0.21470  Biso   1.000  C
  C453     1.0000 0.31680  0.72150  0.21470  Biso   1.000  C
  C454     1.0000 0.61183  0.26197  0.88137  Biso   1.000  C
  C455     1.0000 0.73803  0.34987  0.88137  Biso   1.000  C
  C456     1.0000 0.65013  0.38817  0.88137  Biso   1.000  C
  C457     1.0000 0.94517  0.92863  0.54803  Biso   1.000  C
  C458     1.0000 0.07137  0.01653  0.54803  Biso   1.000  C
  C459     1.0000 0.98347  0.05483  0.54803  Biso   1.000  C
  C460     1.0000 0.72150  0.40470  0.78530  Biso   1.000  C
  C461     1.0000 0.59530  0.31680  0.78530  Biso   1.000  C
  C462     1.0000 0.68320  0.27850  0.78530  Biso   1.000  C
  C463     1.0000 0.05483  0.07137  0.45197  Biso   1.000  C
  C464     1.0000 0.92863  0.98347  0.45197  Biso   1.000  C
  C465     1.0000 0.01653  0.94517  0.45197  Biso   1.000  C
  C466     1.0000 0.38817  0.73803  0.11863  Biso   1.000  C
  C467     1.0000 0.26197  0.65013  0.11863  Biso   1.000  C
  C468     1.0000 0.34987  0.61183  0.11863  Biso   1.000  C
  C469     1.0000 0.34310  0.68180  0.05100  Biso   1.000  C
  C470     1.0000 0.31820  0.66130  0.05100  Biso   1.000  C
  C471     1.0000 0.33870  0.65690  0.05100  Biso   1.000  C
  C472     1.0000 0.67643  0.34847  0.71767  Biso   1.000  C
  C473     1.0000 0.65153  0.32797  0.71767  Biso   1.000  C
  C474     1.0000 0.67203  0.32357  0.71767  Biso   1.000  C
  C475     1.0000 0.00977  0.01513  0.38433  Biso   1.000  C
  C476     1.0000 0.98487  0.99463  0.38433  Biso   1.000  C
  C477     1.0000 0.00537  0.99023  0.38433  Biso   1.000  C
  C478     1.0000 0.65690  0.31820  0.94900  Biso   1.000  C
  C479     1.0000 0.68180  0.33870  0.94900  Biso   1.000  C
  C480     1.0000 0.66130  0.34310  0.94900  Biso   1.000  C
  C481     1.0000 0.99023  0.98487  0.61567  Biso   1.000  C
  C482     1.0000 0.01513  0.00537  0.61567  Biso   1.000  C
  C483     1.0000 0.99463  0.00977  0.61567  Biso   1.000  C
  C484     1.0000 0.32357  0.65153  0.28233  Biso   1.000  C
  C485     1.0000 0.34847  0.67203  0.28233  Biso   1.000  C
  C486     1.0000 0.32797  0.67643  0.28233  Biso   1.000  C
  C487     1.0000 0.29340  0.66900  0.96960  Biso   1.000  C
  C488     1.0000 0.33100  0.62440  0.96960  Biso   1.000  C
  C489     1.0000 0.37560  0.70660  0.96960  Biso   1.000  C
  C490     1.0000 0.62673  0.33567  0.63627  Biso   1.000  C
  C491     1.0000 0.66433  0.29107  0.63627  Biso   1.000  C
  C492     1.0000 0.70893  0.37327  0.63627  Biso   1.000  C
  C493     1.0000 0.96007  0.00233  0.30293  Biso   1.000  C
  C494     1.0000 0.99767  0.95773  0.30293  Biso   1.000  C
  C495     1.0000 0.04227  0.03993  0.30293  Biso   1.000  C
  C496     1.0000 0.70660  0.33100  0.03040  Biso   1.000  C
  C497     1.0000 0.66900  0.37560  0.03040  Biso   1.000  C
  C498     1.0000 0.62440  0.29340  0.03040  Biso   1.000  C
  C499     1.0000 0.03993  0.99767  0.69707  Biso   1.000  C
  C500     1.0000 0.00233  0.04227  0.69707  Biso   1.000  C
  C501     1.0000 0.95773  0.96007  0.69707  Biso   1.000  C
  C502     1.0000 0.37327  0.66433  0.36373  Biso   1.000  C
  C503     1.0000 0.33567  0.70893  0.36373  Biso   1.000  C
  C504     1.0000 0.29107  0.62673  0.36373  Biso   1.000  C
  C505     1.0000 0.30520  0.68610  0.84220  Biso   1.000  C
  C506     1.0000 0.31390  0.61910  0.84220  Biso   1.000  C
  C507     1.0000 0.38090  0.69480  0.84220  Biso   1.000  C
  C508     1.0000 0.63853  0.35277  0.50887  Biso   1.000  C
  C509     1.0000 0.64723  0.28577  0.50887  Biso   1.000  C
  C510     1.0000 0.71423  0.36147  0.50887  Biso   1.000  C
  C511     1.0000 0.97187  0.01943  0.17553  Biso   1.000  C
  C512     1.0000 0.98057  0.95243  0.17553  Biso   1.000  C
  C513     1.0000 0.04757  0.02813  0.17553  Biso   1.000  C
  C514     1.0000 0.69480  0.31390  0.15780  Biso   1.000  C
  C515     1.0000 0.68610  0.38090  0.15780  Biso   1.000  C
  C516     1.0000 0.61910  0.30520  0.15780  Biso   1.000  C
  C517     1.0000 0.02813  0.98057  0.82447  Biso   1.000  C
  C518     1.0000 0.01943  0.04757  0.82447  Biso   1.000  C
  C519     1.0000 0.95243  0.97187  0.82447  Biso   1.000  C
  C520     1.0000 0.36147  0.64723  0.49113  Biso   1.000  C
  C521     1.0000 0.35277  0.71423  0.49113  Biso   1.000  C
  C522     1.0000 0.28577  0.63853  0.49113  Biso   1.000  C
  C523     1.0000 0.36660  0.71590  0.79630  Biso   1.000  C
  C524     1.0000 0.28410  0.65070  0.79630  Biso   1.000  C
  C525     1.0000 0.34930  0.63340  0.79630  Biso   1.000  C
  C526     1.0000 0.69993  0.38257  0.46297  Biso   1.000  C
  C527     1.0000 0.61743  0.31737  0.46297  Biso   1.000  C
  C528     1.0000 0.68263  0.30007  0.46297  Biso   1.000  C
  C529     1.0000 0.03327  0.04923  0.12963  Biso   1.000  C
  C530     1.0000 0.95077  0.98403  0.12963  Biso   1.000  C
  C531     1.0000 0.01597  0.96673  0.12963  Biso   1.000  C
  C532     1.0000 0.63340  0.28410  0.20370  Biso   1.000  C
  C533     1.0000 0.71590  0.34930  0.20370  Biso   1.000  C
  C534     1.0000 0.65070  0.36660  0.20370  Biso   1.000  C
  C535     1.0000 0.96673  0.95077  0.87037  Biso   1.000  C
  C536     1.0000 0.04923  0.01597  0.87037  Biso   1.000  C
  C537     1.0000 0.98403  0.03327  0.87037  Biso   1.000  C
  C538     1.0000 0.30007  0.61743  0.53703  Biso   1.000  C
  C539     1.0000 0.38257  0.68263  0.53703  Biso   1.000  C
  C540     1.0000 0.31737  0.69993  0.53703  Biso   1.000  C
  C541     1.0000 0.41620  0.72870  0.87770  Biso   1.000  C
  C542     1.0000 0.27130  0.68750  0.87770  Biso   1.000  C
  C543     1.0000 0.31250  0.58380  0.87770  Biso   1.000  C
  C544     1.0000 0.74953  0.39537  0.54437  Biso   1.000  C
  C545     1.0000 0.60463  0.35417  0.54437  Biso   1.000  C
  C546     1.0000 0.64583  0.25047  0.54437  Biso   1.000  C
  C547     1.0000 0.08287  0.06203  0.21103  Biso   1.000  C
  C548     1.0000 0.93797  0.02083  0.21103  Biso   1.000  C
  C549     1.0000 0.97917  0.91713  0.21103  Biso   1.000  C
  C550     1.0000 0.58380  0.27130  0.12230  Biso   1.000  C
  C551     1.0000 0.72870  0.31250  0.12230  Biso   1.000  C
  C552     1.0000 0.68750  0.41620  0.12230  Biso   1.000  C
  C553     1.0000 0.91713  0.93797  0.78897  Biso   1.000  C
  C554     1.0000 0.06203  0.97917  0.78897  Biso   1.000  C
  C555     1.0000 0.02083  0.08287  0.78897  Biso   1.000  C
  C556     1.0000 0.25047  0.60463  0.45563  Biso   1.000  C
  C557     1.0000 0.39537  0.64583  0.45563  Biso   1.000  C
  C558     1.0000 0.35417  0.74953  0.45563  Biso   1.000  C
  C559     1.0000 0.40450  0.71160  0.00510  Biso   1.000  C
  C560     1.0000 0.28840  0.69290  0.00510  Biso   1.000  C
  C561     1.0000 0.30710  0.59550  0.00510  Biso   1.000  C
  C562     1.0000 0.73783  0.37827  0.67177  Biso   1.000  C
  C563     1.0000 0.62173  0.35957  0.67177  Biso   1.000  C
  C564     1.0000 0.64043  0.26217  0.67177  Biso   1.000  C
  C565     1.0000 0.07117  0.04493  0.33843  Biso   1.000  C
  C566     1.0000 0.95507  0.02623  0.33843  Biso   1.000  C
  C567     1.0000 0.97377  0.92883  0.33843  Biso   1.000  C
  C568     1.0000 0.59550  0.28840  0.99490  Biso   1.000  C
  C569     1.0000 0.71160  0.30710  0.99490  Biso   1.000  C
  C570     1.0000 0.69290  0.40450  0.99490  Biso   1.000  C
  C571     1.0000 0.92883  0.95507  0.66157  Biso   1.000  C
  C572     1.0000 0.04493  0.97377  0.66157  Biso   1.000  C
  C573     1.0000 0.02623  0.07117  0.66157  Biso   1.000  C
  C574     1.0000 0.26217  0.62173  0.32823  Biso   1.000  C
  C575     1.0000 0.37827  0.64043  0.32823  Biso   1.000  C
  C576     1.0000 0.35957  0.73783  0.32823  Biso   1.000  C
  H1       1.0000 0.35550  0.62500  0.87170  Biso   1.000  H
  H2       1.0000 0.37500  0.73050  0.87170  Biso   1.000  H
  H3       1.0000 0.26950  0.64450  0.87170  Biso   1.000  H
  H4       1.0000 0.68883  0.29167  0.53837  Biso   1.000  H
  H5       1.0000 0.70833  0.39717  0.53837  Biso   1.000  H
  H6       1.0000 0.60283  0.31117  0.53837  Biso   1.000  H
  H7       1.0000 0.02217  0.95833  0.20503  Biso   1.000  H
  H8       1.0000 0.04167  0.06383  0.20503  Biso   1.000  H
  H9       1.0000 0.93617  0.97783  0.20503  Biso   1.000  H
  H10      1.0000 0.64450  0.37500  0.12830  Biso   1.000  H
  H11      1.0000 0.62500  0.26950  0.12830  Biso   1.000  H
  H12      1.0000 0.73050  0.35550  0.12830  Biso   1.000  H
  H13      1.0000 0.97783  0.04167  0.79497  Biso   1.000  H
  H14      1.0000 0.95833  0.93617  0.79497  Biso   1.000  H
  H15      1.0000 0.06383  0.02217  0.79497  Biso   1.000  H
  H16      1.0000 0.31117  0.70833  0.46163  Biso   1.000  H
  H17      1.0000 0.29167  0.60283  0.46163  Biso   1.000  H
  H18      1.0000 0.39717  0.68883  0.46163  Biso   1.000  H
  H19      1.0000 0.38980  0.62440  0.99700  Biso   1.000  H
  H20      1.0000 0.37560  0.76540  0.99700  Biso   1.000  H
  H21      1.0000 0.23460  0.61020  0.99700  Biso   1.000  H
  H22      1.0000 0.72313  0.29107  0.66367  Biso   1.000  H
  H23      1.0000 0.70893  0.43207  0.66367  Biso   1.000  H
  H24      1.0000 0.56793  0.27687  0.66367  Biso   1.000  H
  H25      1.0000 0.05647  0.95773  0.33033  Biso   1.000  H
  H26      1.0000 0.04227  0.09873  0.33033  Biso   1.000  H
  H27      1.0000 0.90127  0.94353  0.33033  Biso   1.000  H
  H28      1.0000 0.61020  0.37560  0.00300  Biso   1.000  H
  H29      1.0000 0.62440  0.23460  0.00300  Biso   1.000  H
  H30      1.0000 0.76540  0.38980  0.00300  Biso   1.000  H
  H31      1.0000 0.94353  0.04227  0.66967  Biso   1.000  H
  H32      1.0000 0.95773  0.90127  0.66967  Biso   1.000  H
  H33      1.0000 0.09873  0.05647  0.66967  Biso   1.000  H
  H34      1.0000 0.27687  0.70893  0.33633  Biso   1.000  H
  H35      1.0000 0.29107  0.56793  0.33633  Biso   1.000  H
  H36      1.0000 0.43207  0.72313  0.33633  Biso   1.000  H
  H37      1.0000 0.31730  0.57850  0.98200  Biso   1.000  H
  H38      1.0000 0.42150  0.73880  0.98200  Biso   1.000  H
  H39      1.0000 0.26120  0.68270  0.98200  Biso   1.000  H
  H40      1.0000 0.65063  0.24517  0.64867  Biso   1.000  H
  H41      1.0000 0.75483  0.40547  0.64867  Biso   1.000  H
  H42      1.0000 0.59453  0.34937  0.64867  Biso   1.000  H
  H43      1.0000 0.98397  0.91183  0.31533  Biso   1.000  H
  H44      1.0000 0.08817  0.07213  0.31533  Biso   1.000  H
  H45      1.0000 0.92787  0.01603  0.31533  Biso   1.000  H
  H46      1.0000 0.68270  0.42150  0.01800  Biso   1.000  H
  H47      1.0000 0.57850  0.26120  0.01800  Biso   1.000  H
  H48      1.0000 0.73880  0.31730  0.01800  Biso   1.000  H
  H49      1.0000 0.01603  0.08817  0.68467  Biso   1.000  H
  H50      1.0000 0.91183  0.92787  0.68467  Biso   1.000  H
  H51      1.0000 0.07213  0.98397  0.68467  Biso   1.000  H
  H52      1.0000 0.34937  0.75483  0.35133  Biso   1.000  H
  H53      1.0000 0.24517  0.59453  0.35133  Biso   1.000  H
  H54      1.0000 0.40547  0.65063  0.35133  Biso   1.000  H
  H55      1.0000 0.33070  0.60360  0.87620  Biso   1.000  H
  H56      1.0000 0.39640  0.72710  0.87620  Biso   1.000  H
  H57      1.0000 0.27290  0.66930  0.87620  Biso   1.000  H
  H58      1.0000 0.66403  0.27027  0.54287  Biso   1.000  H
  H59      1.0000 0.72973  0.39377  0.54287  Biso   1.000  H
  H60      1.0000 0.60623  0.33597  0.54287  Biso   1.000  H
  H61      1.0000 0.99737  0.93693  0.20953  Biso   1.000  H
  H62      1.0000 0.06307  0.06043  0.20953  Biso   1.000  H
  H63      1.0000 0.93957  0.00263  0.20953  Biso   1.000  H
  H64      1.0000 0.66930  0.39640  0.12380  Biso   1.000  H
  H65      1.0000 0.60360  0.27290  0.12380  Biso   1.000  H
  H66      1.0000 0.72710  0.33070  0.12380  Biso   1.000  H
  H67      1.0000 0.00263  0.06307  0.79047  Biso   1.000  H
  H68      1.0000 0.93693  0.93957  0.79047  Biso   1.000  H
  H69      1.0000 0.06043  0.99737  0.79047  Biso   1.000  H
  H70      1.0000 0.33597  0.72973  0.45713  Biso   1.000  H
  H71      1.0000 0.27027  0.60623  0.45713  Biso   1.000  H
  H72      1.0000 0.39377  0.66403  0.45713  Biso   1.000  H
  H73      1.0000 0.38060  0.61500  0.98100  Biso   1.000  H
  H74      1.0000 0.38500  0.76560  0.98100  Biso   1.000  H
  H75      1.0000 0.23440  0.61940  0.98100  Biso   1.000  H
  H76      1.0000 0.71393  0.28167  0.64767  Biso   1.000  H
  H77      1.0000 0.71833  0.43227  0.64767  Biso   1.000  H
  H78      1.0000 0.56773  0.28607  0.64767  Biso   1.000  H
  H79      1.0000 0.04727  0.94833  0.31433  Biso   1.000  H
  H80      1.0000 0.05167  0.09893  0.31433  Biso   1.000  H
  H81      1.0000 0.90107  0.95273  0.31433  Biso   1.000  H
  H82      1.0000 0.61940  0.38500  0.01900  Biso   1.000  H
  H83      1.0000 0.61500  0.23440  0.01900  Biso   1.000  H
  H84      1.0000 0.76560  0.38060  0.01900  Biso   1.000  H
  H85      1.0000 0.95273  0.05167  0.68567  Biso   1.000  H
  H86      1.0000 0.94833  0.90107  0.68567  Biso   1.000  H
  H87      1.0000 0.09893  0.04727  0.68567  Biso   1.000  H
  H88      1.0000 0.28607  0.71833  0.35233  Biso   1.000  H
  H89      1.0000 0.28167  0.56773  0.35233  Biso   1.000  H
  H90      1.0000 0.43227  0.71393  0.35233  Biso   1.000  H
  H91      1.0000 0.30910  0.56830  0.00600  Biso   1.000  H
  H92      1.0000 0.43170  0.74080  0.00600  Biso   1.000  H
  H93      1.0000 0.25920  0.69090  0.00600  Biso   1.000  H
  H94      1.0000 0.64243  0.23497  0.67267  Biso   1.000  H
  H95      1.0000 0.76503  0.40747  0.67267  Biso   1.000  H
  H96      1.0000 0.59253  0.35757  0.67267  Biso   1.000  H
  H97      1.0000 0.97577  0.90163  0.33933  Biso   1.000  H
  H98      1.0000 0.09837  0.07413  0.33933  Biso   1.000  H
  H99      1.0000 0.92587  0.02423  0.33933  Biso   1.000  H
  H100     1.0000 0.69090  0.43170  0.99400  Biso   1.000  H
  H101     1.0000 0.56830  0.25920  0.99400  Biso   1.000  H
  H102     1.0000 0.74080  0.30910  0.99400  Biso   1.000  H
  H103     1.0000 0.02423  0.09837  0.66067  Biso   1.000  H
  H104     1.0000 0.90163  0.92587  0.66067  Biso   1.000  H
  H105     1.0000 0.07413  0.97577  0.66067  Biso   1.000  H
  H106     1.0000 0.35757  0.76503  0.32733  Biso   1.000  H
  H107     1.0000 0.23497  0.59253  0.32733  Biso   1.000  H
  H108     1.0000 0.40747  0.64243  0.32733  Biso   1.000  H
  H109     1.0000 0.35030  0.63560  0.85580  Biso   1.000  H
  H110     1.0000 0.36440  0.71470  0.85580  Biso   1.000  H
  H111     1.0000 0.28530  0.64970  0.85580  Biso   1.000  H
  H112     1.0000 0.68363  0.30227  0.52247  Biso   1.000  H
  H113     1.0000 0.69773  0.38137  0.52247  Biso   1.000  H
  H114     1.0000 0.61863  0.31637  0.52247  Biso   1.000  H
  H115     1.0000 0.01697  0.96893  0.18913  Biso   1.000  H
  H116     1.0000 0.03107  0.04803  0.18913  Biso   1.000  H
  H117     1.0000 0.95197  0.98303  0.18913  Biso   1.000  H
  H118     1.0000 0.64970  0.36440  0.14420  Biso   1.000  H
  H119     1.0000 0.63560  0.28530  0.14420  Biso   1.000  H
  H120     1.0000 0.71470  0.35030  0.14420  Biso   1.000  H
  H121     1.0000 0.98303  0.03107  0.81087  Biso   1.000  H
  H122     1.0000 0.96893  0.95197  0.81087  Biso   1.000  H
  H123     1.0000 0.04803  0.01697  0.81087  Biso   1.000  H
  H124     1.0000 0.31637  0.69773  0.47753  Biso   1.000  H
  H125     1.0000 0.30227  0.61863  0.47753  Biso   1.000  H
  H126     1.0000 0.38137  0.68363  0.47753  Biso   1.000  H
  H127     1.0000 0.37060  0.61400  0.97800  Biso   1.000  H
  H128     1.0000 0.38600  0.75660  0.97800  Biso   1.000  H
  H129     1.0000 0.24340  0.62940  0.97800  Biso   1.000  H
  H130     1.0000 0.70393  0.28067  0.64467  Biso   1.000  H
  H131     1.0000 0.71933  0.42327  0.64467  Biso   1.000  H
  H132     1.0000 0.57673  0.29607  0.64467  Biso   1.000  H
  H133     1.0000 0.03727  0.94733  0.31133  Biso   1.000  H
  H134     1.0000 0.05267  0.08993  0.31133  Biso   1.000  H
  H135     1.0000 0.91007  0.96273  0.31133  Biso   1.000  H
  H136     1.0000 0.62940  0.38600  0.02200  Biso   1.000  H
  H137     1.0000 0.61400  0.24340  0.02200  Biso   1.000  H
  H138     1.0000 0.75660  0.37060  0.02200  Biso   1.000  H
  H139     1.0000 0.96273  0.05267  0.68867  Biso   1.000  H
  H140     1.0000 0.94733  0.91007  0.68867  Biso   1.000  H
  H141     1.0000 0.08993  0.03727  0.68867  Biso   1.000  H
  H142     1.0000 0.29607  0.71933  0.35533  Biso   1.000  H
  H143     1.0000 0.28067  0.57673  0.35533  Biso   1.000  H
  H144     1.0000 0.42327  0.70393  0.35533  Biso   1.000  H
  H145     1.0000 0.29960  0.58090  0.93900  Biso   1.000  H
  H146     1.0000 0.41910  0.71870  0.93900  Biso   1.000  H
  H147     1.0000 0.28130  0.70040  0.93900  Biso   1.000  H
  H148     1.0000 0.63293  0.24757  0.60567  Biso   1.000  H
  H149     1.0000 0.75243  0.38537  0.60567  Biso   1.000  H
  H150     1.0000 0.61463  0.36707  0.60567  Biso   1.000  H
  H151     1.0000 0.96627  0.91423  0.27233  Biso   1.000  H
  H152     1.0000 0.08577  0.05203  0.27233  Biso   1.000  H
  H153     1.0000 0.94797  0.03373  0.27233  Biso   1.000  H
  H154     1.0000 0.70040  0.41910  0.06100  Biso   1.000  H
  H155     1.0000 0.58090  0.28130  0.06100  Biso   1.000  H
  H156     1.0000 0.71870  0.29960  0.06100  Biso   1.000  H
  H157     1.0000 0.03373  0.08577  0.72767  Biso   1.000  H
  H158     1.0000 0.91423  0.94797  0.72767  Biso   1.000  H
  H159     1.0000 0.05203  0.96627  0.72767  Biso   1.000  H
  H160     1.0000 0.36707  0.75243  0.39433  Biso   1.000  H
  H161     1.0000 0.24757  0.61463  0.39433  Biso   1.000  H
  H162     1.0000 0.38537  0.63293  0.39433  Biso   1.000  H
  H163     1.0000 0.41720  0.74030  0.20160  Biso   1.000  H
  H164     1.0000 0.25970  0.67690  0.20160  Biso   1.000  H
  H165     1.0000 0.32310  0.58280  0.20160  Biso   1.000  H
  H166     1.0000 0.75053  0.40697  0.86827  Biso   1.000  H
  H167     1.0000 0.59303  0.34357  0.86827  Biso   1.000  H
  H168     1.0000 0.65643  0.24947  0.86827  Biso   1.000  H
  H169     1.0000 0.08387  0.07363  0.53493  Biso   1.000  H
  H170     1.0000 0.92637  0.01023  0.53493  Biso   1.000  H
  H171     1.0000 0.98977  0.91613  0.53493  Biso   1.000  H
  H172     1.0000 0.58280  0.25970  0.79840  Biso   1.000  H
  H173     1.0000 0.74030  0.32310  0.79840  Biso   1.000  H
  H174     1.0000 0.67690  0.41720  0.79840  Biso   1.000  H
  H175     1.0000 0.91613  0.92637  0.46507  Biso   1.000  H
  H176     1.0000 0.07363  0.98977  0.46507  Biso   1.000  H
  H177     1.0000 0.01023  0.08387  0.46507  Biso   1.000  H
  H178     1.0000 0.24947  0.59303  0.13173  Biso   1.000  H
  H179     1.0000 0.40697  0.65643  0.13173  Biso   1.000  H
  H180     1.0000 0.34357  0.75053  0.13173  Biso   1.000  H
  H181     1.0000 0.40460  0.73660  0.42080  Biso   1.000  H
  H182     1.0000 0.26340  0.66800  0.42080  Biso   1.000  H
  H183     1.0000 0.33200  0.59540  0.42080  Biso   1.000  H
  H184     1.0000 0.73793  0.40327  0.08747  Biso   1.000  H
  H185     1.0000 0.59673  0.33467  0.08747  Biso   1.000  H
  H186     1.0000 0.66533  0.26207  0.08747  Biso   1.000  H
  H187     1.0000 0.07127  0.06993  0.75413  Biso   1.000  H
  H188     1.0000 0.93007  0.00133  0.75413  Biso   1.000  H
  H189     1.0000 0.99867  0.92873  0.75413  Biso   1.000  H
  H190     1.0000 0.59540  0.26340  0.57920  Biso   1.000  H
  H191     1.0000 0.73660  0.33200  0.57920  Biso   1.000  H
  H192     1.0000 0.66800  0.40460  0.57920  Biso   1.000  H
  H193     1.0000 0.92873  0.93007  0.24587  Biso   1.000  H
  H194     1.0000 0.06993  0.99867  0.24587  Biso   1.000  H
  H195     1.0000 0.00133  0.07127  0.24587  Biso   1.000  H
  H196     1.0000 0.26207  0.59673  0.91253  Biso   1.000  H
  H197     1.0000 0.40327  0.66533  0.91253  Biso   1.000  H
  H198     1.0000 0.33467  0.73793  0.91253  Biso   1.000  H
  H199     1.0000 0.31030  0.66160  0.51160  Biso   1.000  H
  H200     1.0000 0.33840  0.64870  0.51160  Biso   1.000  H
  H201     1.0000 0.35130  0.68970  0.51160  Biso   1.000  H
  H202     1.0000 0.64363  0.32827  0.17827  Biso   1.000  H
  H203     1.0000 0.67173  0.31537  0.17827  Biso   1.000  H
  H204     1.0000 0.68463  0.35637  0.17827  Biso   1.000  H
  H205     1.0000 0.97697  0.99493  0.84493  Biso   1.000  H
  H206     1.0000 0.00507  0.98203  0.84493  Biso   1.000  H
  H207     1.0000 0.01797  0.02303  0.84493  Biso   1.000  H
  H208     1.0000 0.68970  0.33840  0.48840  Biso   1.000  H
  H209     1.0000 0.66160  0.35130  0.48840  Biso   1.000  H
  H210     1.0000 0.64870  0.31030  0.48840  Biso   1.000  H
  H211     1.0000 0.02303  0.00507  0.15507  Biso   1.000  H
  H212     1.0000 0.99493  0.01797  0.15507  Biso   1.000  H
  H213     1.0000 0.98203  0.97697  0.15507  Biso   1.000  H
  H214     1.0000 0.35637  0.67173  0.82173  Biso   1.000  H
  H215     1.0000 0.32827  0.68463  0.82173  Biso   1.000  H
  H216     1.0000 0.31537  0.64363  0.82173  Biso   1.000  H
  H217     1.0000 0.22850  0.59030  0.38330  Biso   1.000  H
  H218     1.0000 0.40970  0.63820  0.38330  Biso   1.000  H
  H219     1.0000 0.36180  0.77150  0.38330  Biso   1.000  H
  H220     1.0000 0.56183  0.25697  0.04997  Biso   1.000  H
  H221     1.0000 0.74303  0.30487  0.04997  Biso   1.000  H
  H222     1.0000 0.69513  0.43817  0.04997  Biso   1.000  H
  H223     1.0000 0.89517  0.92363  0.71663  Biso   1.000  H
  H224     1.0000 0.07637  0.97153  0.71663  Biso   1.000  H
  H225     1.0000 0.02847  0.10483  0.71663  Biso   1.000  H
  H226     1.0000 0.77150  0.40970  0.61670  Biso   1.000  H
  H227     1.0000 0.59030  0.36180  0.61670  Biso   1.000  H
  H228     1.0000 0.63820  0.22850  0.61670  Biso   1.000  H
  H229     1.0000 0.10483  0.07637  0.28337  Biso   1.000  H
  H230     1.0000 0.92363  0.02847  0.28337  Biso   1.000  H
  H231     1.0000 0.97153  0.89517  0.28337  Biso   1.000  H
  H232     1.0000 0.43817  0.74303  0.95003  Biso   1.000  H
  H233     1.0000 0.25697  0.69513  0.95003  Biso   1.000  H
  H234     1.0000 0.30487  0.56183  0.95003  Biso   1.000  H
  H235     1.0000 0.24110  0.59410  0.16420  Biso   1.000  H
  H236     1.0000 0.40590  0.64700  0.16420  Biso   1.000  H
  H237     1.0000 0.35300  0.75890  0.16420  Biso   1.000  H
  H238     1.0000 0.57443  0.26077  0.83087  Biso   1.000  H
  H239     1.0000 0.73923  0.31367  0.83087  Biso   1.000  H
  H240     1.0000 0.68633  0.42557  0.83087  Biso   1.000  H
  H241     1.0000 0.90777  0.92743  0.49753  Biso   1.000  H
  H242     1.0000 0.07257  0.98033  0.49753  Biso   1.000  H
  H243     1.0000 0.01967  0.09223  0.49753  Biso   1.000  H
  H244     1.0000 0.75890  0.40590  0.83580  Biso   1.000  H
  H245     1.0000 0.59410  0.35300  0.83580  Biso   1.000  H
  H246     1.0000 0.64700  0.24110  0.83580  Biso   1.000  H
  H247     1.0000 0.09223  0.07257  0.50247  Biso   1.000  H
  H248     1.0000 0.92743  0.01967  0.50247  Biso   1.000  H
  H249     1.0000 0.98033  0.90777  0.50247  Biso   1.000  H
  H250     1.0000 0.42557  0.73923  0.16913  Biso   1.000  H
  H251     1.0000 0.26077  0.68633  0.16913  Biso   1.000  H
  H252     1.0000 0.31367  0.57443  0.16913  Biso   1.000  H
  H253     1.0000 0.37420  0.65790  0.35180  Biso   1.000  H
  H254     1.0000 0.34210  0.71630  0.35180  Biso   1.000  H
  H255     1.0000 0.28370  0.62580  0.35180  Biso   1.000  H
  H256     1.0000 0.70753  0.32457  0.01847  Biso   1.000  H
  H257     1.0000 0.67543  0.38297  0.01847  Biso   1.000  H
  H258     1.0000 0.61703  0.29247  0.01847  Biso   1.000  H
  H259     1.0000 0.04087  0.99123  0.68513  Biso   1.000  H
  H260     1.0000 0.00877  0.04963  0.68513  Biso   1.000  H
  H261     1.0000 0.95037  0.95913  0.68513  Biso   1.000  H
  H262     1.0000 0.62580  0.34210  0.64820  Biso   1.000  H
  H263     1.0000 0.65790  0.28370  0.64820  Biso   1.000  H
  H264     1.0000 0.71630  0.37420  0.64820  Biso   1.000  H
  H265     1.0000 0.95913  0.00877  0.31487  Biso   1.000  H
  H266     1.0000 0.99123  0.95037  0.31487  Biso   1.000  H
  H267     1.0000 0.04963  0.04087  0.31487  Biso   1.000  H
  H268     1.0000 0.29247  0.67543  0.98153  Biso   1.000  H
  H269     1.0000 0.32457  0.61703  0.98153  Biso   1.000  H
  H270     1.0000 0.38297  0.70753  0.98153  Biso   1.000  H
  H271     1.0000 0.39860  0.63980  0.23100  Biso   1.000  H
  H272     1.0000 0.36020  0.75880  0.23100  Biso   1.000  H
  H273     1.0000 0.24120  0.60140  0.23100  Biso   1.000  H
  H274     1.0000 0.73193  0.30647  0.89767  Biso   1.000  H
  H275     1.0000 0.69353  0.42547  0.89767  Biso   1.000  H
  H276     1.0000 0.57453  0.26807  0.89767  Biso   1.000  H
  H277     1.0000 0.06527  0.97313  0.56433  Biso   1.000  H
  H278     1.0000 0.02687  0.09213  0.56433  Biso   1.000  H
  H279     1.0000 0.90787  0.93473  0.56433  Biso   1.000  H
  H280     1.0000 0.60140  0.36020  0.76900  Biso   1.000  H
  H281     1.0000 0.63980  0.24120  0.76900  Biso   1.000  H
  H282     1.0000 0.75880  0.39860  0.76900  Biso   1.000  H
  H283     1.0000 0.93473  0.02687  0.43567  Biso   1.000  H
  H284     1.0000 0.97313  0.90787  0.43567  Biso   1.000  H
  H285     1.0000 0.09213  0.06527  0.43567  Biso   1.000  H
  H286     1.0000 0.26807  0.69353  0.10233  Biso   1.000  H
  H287     1.0000 0.30647  0.57453  0.10233  Biso   1.000  H
  H288     1.0000 0.42547  0.73193  0.10233  Biso   1.000  H
  H289     1.0000 0.42140  0.71050  0.26000  Biso   1.000  H
  H290     1.0000 0.28950  0.71090  0.26000  Biso   1.000  H
  H291     1.0000 0.28910  0.57860  0.26000  Biso   1.000  H
  H292     1.0000 0.75473  0.37717  0.92667  Biso   1.000  H
  H293     1.0000 0.62283  0.37757  0.92667  Biso   1.000  H
  H294     1.0000 0.62243  0.24527  0.92667  Biso   1.000  H
  H295     1.0000 0.08807  0.04383  0.59333  Biso   1.000  H
  H296     1.0000 0.95617  0.04423  0.59333  Biso   1.000  H
  H297     1.0000 0.95577  0.91193  0.59333  Biso   1.000  H
  H298     1.0000 0.57860  0.28950  0.74000  Biso   1.000  H
  H299     1.0000 0.71050  0.28910  0.74000  Biso   1.000  H
  H300     1.0000 0.71090  0.42140  0.74000  Biso   1.000  H
  H301     1.0000 0.91193  0.95617  0.40667  Biso   1.000  H
  H302     1.0000 0.04383  0.95577  0.40667  Biso   1.000  H
  H303     1.0000 0.04423  0.08807  0.40667  Biso   1.000  H
  H304     1.0000 0.24527  0.62283  0.07333  Biso   1.000  H
  H305     1.0000 0.37717  0.62243  0.07333  Biso   1.000  H
  H306     1.0000 0.37757  0.75473  0.07333  Biso   1.000  H
  H307     1.0000 0.30300  0.70600  0.35800  Biso   1.000  H
  H308     1.0000 0.29400  0.59700  0.35800  Biso   1.000  H
  H309     1.0000 0.40300  0.69700  0.35800  Biso   1.000  H
  H310     1.0000 0.63633  0.37267  0.02467  Biso   1.000  H
  H311     1.0000 0.62733  0.26367  0.02467  Biso   1.000  H
  H312     1.0000 0.73633  0.36367  0.02467  Biso   1.000  H
  H313     1.0000 0.96967  0.03933  0.69133  Biso   1.000  H
  H314     1.0000 0.96067  0.93033  0.69133  Biso   1.000  H
  H315     1.0000 0.06967  0.03033  0.69133  Biso   1.000  H
  H316     1.0000 0.69700  0.29400  0.64200  Biso   1.000  H
  H317     1.0000 0.70600  0.40300  0.64200  Biso   1.000  H
  H318     1.0000 0.59700  0.30300  0.64200  Biso   1.000  H
  H319     1.0000 0.03033  0.96067  0.30867  Biso   1.000  H
  H320     1.0000 0.03933  0.06967  0.30867  Biso   1.000  H
  H321     1.0000 0.93033  0.96967  0.30867  Biso   1.000  H
  H322     1.0000 0.36367  0.62733  0.97533  Biso   1.000  H
  H323     1.0000 0.37267  0.73633  0.97533  Biso   1.000  H
  H324     1.0000 0.26367  0.63633  0.97533  Biso   1.000  H
  H325     1.0000 0.34980  0.73600  0.24500  Biso   1.000  H
  H326     1.0000 0.26400  0.61380  0.24500  Biso   1.000  H
  H327     1.0000 0.38620  0.65020  0.24500  Biso   1.000  H
  H328     1.0000 0.68313  0.40267  0.91167  Biso   1.000  H
  H329     1.0000 0.59733  0.28047  0.91167  Biso   1.000  H
  H330     1.0000 0.71953  0.31687  0.91167  Biso   1.000  H
  H331     1.0000 0.01647  0.06933  0.57833  Biso   1.000  H
  H332     1.0000 0.93067  0.94713  0.57833  Biso   1.000  H
  H333     1.0000 0.05287  0.98353  0.57833  Biso   1.000  H
  H334     1.0000 0.65020  0.26400  0.75500  Biso   1.000  H
  H335     1.0000 0.73600  0.38620  0.75500  Biso   1.000  H
  H336     1.0000 0.61380  0.34980  0.75500  Biso   1.000  H
  H337     1.0000 0.98353  0.93067  0.42167  Biso   1.000  H
  H338     1.0000 0.06933  0.05287  0.42167  Biso   1.000  H
  H339     1.0000 0.94713  0.01647  0.42167  Biso   1.000  H
  H340     1.0000 0.31687  0.59733  0.08833  Biso   1.000  H
  H341     1.0000 0.40267  0.71953  0.08833  Biso   1.000  H
  H342     1.0000 0.28047  0.68313  0.08833  Biso   1.000  H
  H343     1.0000 0.27700  0.70300  0.22100  Biso   1.000  H
  H344     1.0000 0.29700  0.57400  0.22100  Biso   1.000  H
  H345     1.0000 0.42600  0.72300  0.22100  Biso   1.000  H
  H346     1.0000 0.61033  0.36967  0.88767  Biso   1.000  H
  H347     1.0000 0.63033  0.24067  0.88767  Biso   1.000  H
  H348     1.0000 0.75933  0.38967  0.88767  Biso   1.000  H
  H349     1.0000 0.94367  0.03633  0.55433  Biso   1.000  H
  H350     1.0000 0.96367  0.90733  0.55433  Biso   1.000  H
  H351     1.0000 0.09267  0.05633  0.55433  Biso   1.000  H
  H352     1.0000 0.72300  0.29700  0.77900  Biso   1.000  H
  H353     1.0000 0.70300  0.42600  0.77900  Biso   1.000  H
  H354     1.0000 0.57400  0.27700  0.77900  Biso   1.000  H
  H355     1.0000 0.05633  0.96367  0.44567  Biso   1.000  H
  H356     1.0000 0.03633  0.09267  0.44567  Biso   1.000  H
  H357     1.0000 0.90733  0.94367  0.44567  Biso   1.000  H
  H358     1.0000 0.38967  0.63033  0.11233  Biso   1.000  H
  H359     1.0000 0.36967  0.75933  0.11233  Biso   1.000  H
  H360     1.0000 0.24067  0.61033  0.11233  Biso   1.000  H
  H361     1.0000 0.28200  0.58100  0.29700  Biso   1.000  H
  H362     1.0000 0.41900  0.70100  0.29700  Biso   1.000  H
  H363     1.0000 0.29900  0.71800  0.29700  Biso   1.000  H
  H364     1.0000 0.61533  0.24767  0.96367  Biso   1.000  H
  H365     1.0000 0.75233  0.36767  0.96367  Biso   1.000  H
  H366     1.0000 0.63233  0.38467  0.96367  Biso   1.000  H
  H367     1.0000 0.94867  0.91433  0.63033  Biso   1.000  H
  H368     1.0000 0.08567  0.03433  0.63033  Biso   1.000  H
  H369     1.0000 0.96567  0.05133  0.63033  Biso   1.000  H
  H370     1.0000 0.71800  0.41900  0.70300  Biso   1.000  H
  H371     1.0000 0.58100  0.29900  0.70300  Biso   1.000  H
  H372     1.0000 0.70100  0.28200  0.70300  Biso   1.000  H
  H373     1.0000 0.05133  0.08567  0.36967  Biso   1.000  H
  H374     1.0000 0.91433  0.96567  0.36967  Biso   1.000  H
  H375     1.0000 0.03433  0.94867  0.36967  Biso   1.000  H
  H376     1.0000 0.38467  0.75233  0.03633  Biso   1.000  H
  H377     1.0000 0.24767  0.63233  0.03633  Biso   1.000  H
  H378     1.0000 0.36767  0.61533  0.03633  Biso   1.000  H
  H379     1.0000 0.24500  0.60500  0.21700  Biso   1.000  H
  H380     1.0000 0.39500  0.64000  0.21700  Biso   1.000  H
  H381     1.0000 0.36000  0.75500  0.21700  Biso   1.000  H
  H382     1.0000 0.57833  0.27167  0.88367  Biso   1.000  H
  H383     1.0000 0.72833  0.30667  0.88367  Biso   1.000  H
  H384     1.0000 0.69333  0.42167  0.88367  Biso   1.000  H
  H385     1.0000 0.91167  0.93833  0.55033  Biso   1.000  H
  H386     1.0000 0.06167  0.97333  0.55033  Biso   1.000  H
  H387     1.0000 0.02667  0.08833  0.55033  Biso   1.000  H
  H388     1.0000 0.75500  0.39500  0.78300  Biso   1.000  H
  H389     1.0000 0.60500  0.36000  0.78300  Biso   1.000  H
  H390     1.0000 0.64000  0.24500  0.78300  Biso   1.000  H
  H391     1.0000 0.08833  0.06167  0.44967  Biso   1.000  H
  H392     1.0000 0.93833  0.02667  0.44967  Biso   1.000  H
  H393     1.0000 0.97333  0.91167  0.44967  Biso   1.000  H
  H394     1.0000 0.42167  0.72833  0.11633  Biso   1.000  H
  H395     1.0000 0.27167  0.69333  0.11633  Biso   1.000  H
  H396     1.0000 0.30667  0.57833  0.11633  Biso   1.000  H
  H397     1.0000 0.26800  0.56200  0.15400  Biso   1.000  H
  H398     1.0000 0.43800  0.70600  0.15400  Biso   1.000  H
  H399     1.0000 0.29400  0.73200  0.15400  Biso   1.000  H
  H400     1.0000 0.60133  0.22867  0.82067  Biso   1.000  H
  H401     1.0000 0.77133  0.37267  0.82067  Biso   1.000  H
  H402     1.0000 0.62733  0.39867  0.82067  Biso   1.000  H
  H403     1.0000 0.93467  0.89533  0.48733  Biso   1.000  H
  H404     1.0000 0.10467  0.03933  0.48733  Biso   1.000  H
  H405     1.0000 0.96067  0.06533  0.48733  Biso   1.000  H
  H406     1.0000 0.73200  0.43800  0.84600  Biso   1.000  H
  H407     1.0000 0.56200  0.29400  0.84600  Biso   1.000  H
  H408     1.0000 0.70600  0.26800  0.84600  Biso   1.000  H
  H409     1.0000 0.06533  0.10467  0.51267  Biso   1.000  H
  H410     1.0000 0.89533  0.96067  0.51267  Biso   1.000  H
  H411     1.0000 0.03933  0.93467  0.51267  Biso   1.000  H
  H412     1.0000 0.39867  0.77133  0.17933  Biso   1.000  H
  H413     1.0000 0.22867  0.62733  0.17933  Biso   1.000  H
  H414     1.0000 0.37267  0.60133  0.17933  Biso   1.000  H
  H415     1.0000 0.25230  0.64910  0.00040  Biso   1.000  H
  H416     1.0000 0.35090  0.60320  0.00040  Biso   1.000  H
  H417     1.0000 0.39680  0.74770  0.00040  Biso   1.000  H
  H418     1.0000 0.58563  0.31577  0.66707  Biso   1.000  H
  H419     1.0000 0.68423  0.26987  0.66707  Biso   1.000  H
  H420     1.0000 0.73013  0.41437  0.66707  Biso   1.000  H
  H421     1.0000 0.91897  0.98243  0.33373  Biso   1.000  H
  H422     1.0000 0.01757  0.93653  0.33373  Biso   1.000  H
  H423     1.0000 0.06347  0.08103  0.33373  Biso   1.000  H
  H424     1.0000 0.74770  0.35090  0.99960  Biso   1.000  H
  H425     1.0000 0.64910  0.39680  0.99960  Biso   1.000  H
  H426     1.0000 0.60320  0.25230  0.99960  Biso   1.000  H
  H427     1.0000 0.08103  0.01757  0.66627  Biso   1.000  H
  H428     1.0000 0.98243  0.06347  0.66627  Biso   1.000  H
  H429     1.0000 0.93653  0.91897  0.66627  Biso   1.000  H
  H430     1.0000 0.41437  0.68423  0.33293  Biso   1.000  H
  H431     1.0000 0.31577  0.73013  0.33293  Biso   1.000  H
  H432     1.0000 0.26987  0.58563  0.33293  Biso   1.000  H
  H433     1.0000 0.27190  0.67760  0.78770  Biso   1.000  H
  H434     1.0000 0.32240  0.59430  0.78770  Biso   1.000  H
  H435     1.0000 0.40570  0.72810  0.78770  Biso   1.000  H
  H436     1.0000 0.60523  0.34427  0.45437  Biso   1.000  H
  H437     1.0000 0.65573  0.26097  0.45437  Biso   1.000  H
  H438     1.0000 0.73903  0.39477  0.45437  Biso   1.000  H
  H439     1.0000 0.93857  0.01093  0.12103  Biso   1.000  H
  H440     1.0000 0.98907  0.92763  0.12103  Biso   1.000  H
  H441     1.0000 0.07237  0.06143  0.12103  Biso   1.000  H
  H442     1.0000 0.72810  0.32240  0.21230  Biso   1.000  H
  H443     1.0000 0.67760  0.40570  0.21230  Biso   1.000  H
  H444     1.0000 0.59430  0.27190  0.21230  Biso   1.000  H
  H445     1.0000 0.06143  0.98907  0.87897  Biso   1.000  H
  H446     1.0000 0.01093  0.07237  0.87897  Biso   1.000  H
  H447     1.0000 0.92763  0.93857  0.87897  Biso   1.000  H
  H448     1.0000 0.39477  0.65573  0.54563  Biso   1.000  H
  H449     1.0000 0.34427  0.73903  0.54563  Biso   1.000  H
  H450     1.0000 0.26097  0.60523  0.54563  Biso   1.000  H
  H451     1.0000 0.37440  0.72740  0.71100  Biso   1.000  H
  H452     1.0000 0.27260  0.64700  0.71100  Biso   1.000  H
  H453     1.0000 0.35300  0.62560  0.71100  Biso   1.000  H
  H454     1.0000 0.70773  0.39407  0.37767  Biso   1.000  H
  H455     1.0000 0.60593  0.31367  0.37767  Biso   1.000  H
  H456     1.0000 0.68633  0.29227  0.37767  Biso   1.000  H
  H457     1.0000 0.04107  0.06073  0.04433  Biso   1.000  H
  H458     1.0000 0.93927  0.98033  0.04433  Biso   1.000  H
  H459     1.0000 0.01967  0.95893  0.04433  Biso   1.000  H
  H460     1.0000 0.62560  0.27260  0.28900  Biso   1.000  H
  H461     1.0000 0.72740  0.35300  0.28900  Biso   1.000  H
  H462     1.0000 0.64700  0.37440  0.28900  Biso   1.000  H
  H463     1.0000 0.95893  0.93927  0.95567  Biso   1.000  H
  H464     1.0000 0.06073  0.01967  0.95567  Biso   1.000  H
  H465     1.0000 0.98033  0.04107  0.95567  Biso   1.000  H
  H466     1.0000 0.29227  0.60593  0.62233  Biso   1.000  H
  H467     1.0000 0.39407  0.68633  0.62233  Biso   1.000  H
  H468     1.0000 0.31367  0.70773  0.62233  Biso   1.000  H
  H469     1.0000 0.45730  0.74860  0.84690  Biso   1.000  H
  H470     1.0000 0.25140  0.70870  0.84690  Biso   1.000  H
  H471     1.0000 0.29130  0.54270  0.84690  Biso   1.000  H
  H472     1.0000 0.79063  0.41527  0.51357  Biso   1.000  H
  H473     1.0000 0.58473  0.37537  0.51357  Biso   1.000  H
  H474     1.0000 0.62463  0.20937  0.51357  Biso   1.000  H
  H475     1.0000 0.12397  0.08193  0.18023  Biso   1.000  H
  H476     1.0000 0.91807  0.04203  0.18023  Biso   1.000  H
  H477     1.0000 0.95797  0.87603  0.18023  Biso   1.000  H
  H478     1.0000 0.54270  0.25140  0.15310  Biso   1.000  H
  H479     1.0000 0.74860  0.29130  0.15310  Biso   1.000  H
  H480     1.0000 0.70870  0.45730  0.15310  Biso   1.000  H
  H481     1.0000 0.87603  0.91807  0.81977  Biso   1.000  H
  H482     1.0000 0.08193  0.95797  0.81977  Biso   1.000  H
  H483     1.0000 0.04203  0.12397  0.81977  Biso   1.000  H
  H484     1.0000 0.20937  0.58473  0.48643  Biso   1.000  H
  H485     1.0000 0.41527  0.62463  0.48643  Biso   1.000  H
  H486     1.0000 0.37537  0.79063  0.48643  Biso   1.000  H
  H487     1.0000 0.43770  0.72010  0.05960  Biso   1.000  H
  H488     1.0000 0.27990  0.71760  0.05960  Biso   1.000  H
  H489     1.0000 0.28240  0.56230  0.05960  Biso   1.000  H
  H490     1.0000 0.77103  0.38677  0.72627  Biso   1.000  H
  H491     1.0000 0.61323  0.38427  0.72627  Biso   1.000  H
  H492     1.0000 0.61573  0.22897  0.72627  Biso   1.000  H
  H493     1.0000 0.10437  0.05343  0.39293  Biso   1.000  H
  H494     1.0000 0.94657  0.05093  0.39293  Biso   1.000  H
  H495     1.0000 0.94907  0.89563  0.39293  Biso   1.000  H
  H496     1.0000 0.56230  0.27990  0.94040  Biso   1.000  H
  H497     1.0000 0.72010  0.28240  0.94040  Biso   1.000  H
  H498     1.0000 0.71760  0.43770  0.94040  Biso   1.000  H
  H499     1.0000 0.89563  0.94657  0.60707  Biso   1.000  H
  H500     1.0000 0.05343  0.94907  0.60707  Biso   1.000  H
  H501     1.0000 0.05093  0.10437  0.60707  Biso   1.000  H
  H502     1.0000 0.22897  0.61323  0.27373  Biso   1.000  H
  H503     1.0000 0.38677  0.61573  0.27373  Biso   1.000  H
  H504     1.0000 0.38427  0.77103  0.27373  Biso   1.000  H
  H505     1.0000 0.39830  0.98140  0.82900  Biso   1.000  H
  H506     1.0000 0.01860  0.41690  0.82900  Biso   1.000  H
  H507     1.0000 0.58310  0.60170  0.82900  Biso   1.000  H
  H508     1.0000 0.73163  0.64807  0.49567  Biso   1.000  H
  H509     1.0000 0.35193  0.08357  0.49567  Biso   1.000  H
  H510     1.0000 0.91643  0.26837  0.49567  Biso   1.000  H
  H511     1.0000 0.06497  0.31473  0.16233  Biso   1.000  H
  H512     1.0000 0.68527  0.75023  0.16233  Biso   1.000  H
  H513     1.0000 0.24977  0.93503  0.16233  Biso   1.000  H
  H514     1.0000 0.60170  0.01860  0.17100  Biso   1.000  H
  H515     1.0000 0.98140  0.58310  0.17100  Biso   1.000  H
  H516     1.0000 0.41690  0.39830  0.17100  Biso   1.000  H
  H517     1.0000 0.93503  0.68527  0.83767  Biso   1.000  H
  H518     1.0000 0.31473  0.24977  0.83767  Biso   1.000  H
  H519     1.0000 0.75023  0.06497  0.83767  Biso   1.000  H
  H520     1.0000 0.26837  0.35193  0.50433  Biso   1.000  H
  H521     1.0000 0.64807  0.91643  0.50433  Biso   1.000  H
  H522     1.0000 0.08357  0.73163  0.50433  Biso   1.000  H
  H523     1.0000 0.34700  0.87900  0.88200  Biso   1.000  H
  H524     1.0000 0.12100  0.46800  0.88200  Biso   1.000  H
  H525     1.0000 0.53200  0.65300  0.88200  Biso   1.000  H
  H526     1.0000 0.68033  0.54567  0.54867  Biso   1.000  H
  H527     1.0000 0.45433  0.13467  0.54867  Biso   1.000  H
  H528     1.0000 0.86533  0.31967  0.54867  Biso   1.000  H
  H529     1.0000 0.01367  0.21233  0.21533  Biso   1.000  H
  H530     1.0000 0.78767  0.80133  0.21533  Biso   1.000  H
  H531     1.0000 0.19867  0.98633  0.21533  Biso   1.000  H
  H532     1.0000 0.65300  0.12100  0.11800  Biso   1.000  H
  H533     1.0000 0.87900  0.53200  0.11800  Biso   1.000  H
  H534     1.0000 0.46800  0.34700  0.11800  Biso   1.000  H
  H535     1.0000 0.98633  0.78767  0.78467  Biso   1.000  H
  H536     1.0000 0.21233  0.19867  0.78467  Biso   1.000  H
  H537     1.0000 0.80133  0.01367  0.78467  Biso   1.000  H
  H538     1.0000 0.31967  0.45433  0.45133  Biso   1.000  H
  H539     1.0000 0.54567  0.86533  0.45133  Biso   1.000  H
  H540     1.0000 0.13467  0.68033  0.45133  Biso   1.000  H
  H541     1.0000 0.35300  0.82200  0.78400  Biso   1.000  H
  H542     1.0000 0.17800  0.53100  0.78400  Biso   1.000  H
  H543     1.0000 0.46900  0.64700  0.78400  Biso   1.000  H
  H544     1.0000 0.68633  0.48867  0.45067  Biso   1.000  H
  H545     1.0000 0.51133  0.19767  0.45067  Biso   1.000  H
  H546     1.0000 0.80233  0.31367  0.45067  Biso   1.000  H
  H547     1.0000 0.01967  0.15533  0.11733  Biso   1.000  H
  H548     1.0000 0.84467  0.86433  0.11733  Biso   1.000  H
  H549     1.0000 0.13567  0.98033  0.11733  Biso   1.000  H
  H550     1.0000 0.64700  0.17800  0.21600  Biso   1.000  H
  H551     1.0000 0.82200  0.46900  0.21600  Biso   1.000  H
  H552     1.0000 0.53100  0.35300  0.21600  Biso   1.000  H
  H553     1.0000 0.98033  0.84467  0.88267  Biso   1.000  H
  H554     1.0000 0.15533  0.13567  0.88267  Biso   1.000  H
  H555     1.0000 0.86433  0.01967  0.88267  Biso   1.000  H
  H556     1.0000 0.31367  0.51133  0.54933  Biso   1.000  H
  H557     1.0000 0.48867  0.80233  0.54933  Biso   1.000  H
  H558     1.0000 0.19767  0.68633  0.54933  Biso   1.000  H
  H559     1.0000 0.29200  0.81500  0.82200  Biso   1.000  H
  H560     1.0000 0.18500  0.47700  0.82200  Biso   1.000  H
  H561     1.0000 0.52300  0.70800  0.82200  Biso   1.000  H
  H562     1.0000 0.62533  0.48167  0.48867  Biso   1.000  H
  H563     1.0000 0.51833  0.14367  0.48867  Biso   1.000  H
  H564     1.0000 0.85633  0.37467  0.48867  Biso   1.000  H
  H565     1.0000 0.95867  0.14833  0.15533  Biso   1.000  H
  H566     1.0000 0.85167  0.81033  0.15533  Biso   1.000  H
  H567     1.0000 0.18967  0.04133  0.15533  Biso   1.000  H
  H568     1.0000 0.70800  0.18500  0.17800  Biso   1.000  H
  H569     1.0000 0.81500  0.52300  0.17800  Biso   1.000  H
  H570     1.0000 0.47700  0.29200  0.17800  Biso   1.000  H
  H571     1.0000 0.04133  0.85167  0.84467  Biso   1.000  H
  H572     1.0000 0.14833  0.18967  0.84467  Biso   1.000  H
  H573     1.0000 0.81033  0.95867  0.84467  Biso   1.000  H
  H574     1.0000 0.37467  0.51833  0.51133  Biso   1.000  H
  H575     1.0000 0.48167  0.85633  0.51133  Biso   1.000  H
  H576     1.0000 0.14367  0.62533  0.51133  Biso   1.000  H
  H577     1.0000 0.27600  0.80900  0.58400  Biso   1.000  H
  H578     1.0000 0.19100  0.46700  0.58400  Biso   1.000  H
  H579     1.0000 0.53300  0.72400  0.58400  Biso   1.000  H
  H580     1.0000 0.60933  0.47567  0.25067  Biso   1.000  H
  H581     1.0000 0.52433  0.13367  0.25067  Biso   1.000  H
  H582     1.0000 0.86633  0.39067  0.25067  Biso   1.000  H
  H583     1.0000 0.94267  0.14233  0.91733  Biso   1.000  H
  H584     1.0000 0.85767  0.80033  0.91733  Biso   1.000  H
  H585     1.0000 0.19967  0.05733  0.91733  Biso   1.000  H
  H586     1.0000 0.72400  0.19100  0.41600  Biso   1.000  H
  H587     1.0000 0.80900  0.53300  0.41600  Biso   1.000  H
  H588     1.0000 0.46700  0.27600  0.41600  Biso   1.000  H
  H589     1.0000 0.05733  0.85767  0.08267  Biso   1.000  H
  H590     1.0000 0.14233  0.19967  0.08267  Biso   1.000  H
  H591     1.0000 0.80033  0.94267  0.08267  Biso   1.000  H
  H592     1.0000 0.39067  0.52433  0.74933  Biso   1.000  H
  H593     1.0000 0.47567  0.86633  0.74933  Biso   1.000  H
  H594     1.0000 0.13367  0.60933  0.74933  Biso   1.000  H
  H595     1.0000 0.32600  0.82000  0.57300  Biso   1.000  H
  H596     1.0000 0.18000  0.50600  0.57300  Biso   1.000  H
  H597     1.0000 0.49400  0.67400  0.57300  Biso   1.000  H
  H598     1.0000 0.65933  0.48667  0.23967  Biso   1.000  H
  H599     1.0000 0.51333  0.17267  0.23967  Biso   1.000  H
  H600     1.0000 0.82733  0.34067  0.23967  Biso   1.000  H
  H601     1.0000 0.99267  0.15333  0.90633  Biso   1.000  H
  H602     1.0000 0.84667  0.83933  0.90633  Biso   1.000  H
  H603     1.0000 0.16067  0.00733  0.90633  Biso   1.000  H
  H604     1.0000 0.67400  0.18000  0.42700  Biso   1.000  H
  H605     1.0000 0.82000  0.49400  0.42700  Biso   1.000  H
  H606     1.0000 0.50600  0.32600  0.42700  Biso   1.000  H
  H607     1.0000 0.00733  0.84667  0.09367  Biso   1.000  H
  H608     1.0000 0.15333  0.16067  0.09367  Biso   1.000  H
  H609     1.0000 0.83933  0.99267  0.09367  Biso   1.000  H
  H610     1.0000 0.34067  0.51333  0.76033  Biso   1.000  H
  H611     1.0000 0.48667  0.82733  0.76033  Biso   1.000  H
  H612     1.0000 0.17267  0.65933  0.76033  Biso   1.000  H
  H613     1.0000 0.31200  0.84800  0.52100  Biso   1.000  H
  H614     1.0000 0.15200  0.46400  0.52100  Biso   1.000  H
  H615     1.0000 0.53600  0.68800  0.52100  Biso   1.000  H
  H616     1.0000 0.64533  0.51467  0.18767  Biso   1.000  H
  H617     1.0000 0.48533  0.13067  0.18767  Biso   1.000  H
  H618     1.0000 0.86933  0.35467  0.18767  Biso   1.000  H
  H619     1.0000 0.97867  0.18133  0.85433  Biso   1.000  H
  H620     1.0000 0.81867  0.79733  0.85433  Biso   1.000  H
  H621     1.0000 0.20267  0.02133  0.85433  Biso   1.000  H
  H622     1.0000 0.68800  0.15200  0.47900  Biso   1.000  H
  H623     1.0000 0.84800  0.53600  0.47900  Biso   1.000  H
  H624     1.0000 0.46400  0.31200  0.47900  Biso   1.000  H
  H625     1.0000 0.02133  0.81867  0.14567  Biso   1.000  H
  H626     1.0000 0.18133  0.20267  0.14567  Biso   1.000  H
  H627     1.0000 0.79733  0.97867  0.14567  Biso   1.000  H
  H628     1.0000 0.35467  0.48533  0.81233  Biso   1.000  H
  H629     1.0000 0.51467  0.86933  0.81233  Biso   1.000  H
  H630     1.0000 0.13067  0.64533  0.81233  Biso   1.000  H
  H631     1.0000 0.32000  0.98400  0.63900  Biso   1.000  H
  H632     1.0000 0.01600  0.33600  0.63900  Biso   1.000  H
  H633     1.0000 0.66400  0.68000  0.63900  Biso   1.000  H
  H634     1.0000 0.65333  0.65067  0.30567  Biso   1.000  H
  H635     1.0000 0.34933  0.00267  0.30567  Biso   1.000  H
  H636     1.0000 0.99733  0.34667  0.30567  Biso   1.000  H
  H637     1.0000 0.98667  0.31733  0.97233  Biso   1.000  H
  H638     1.0000 0.68267  0.66933  0.97233  Biso   1.000  H
  H639     1.0000 0.33067  0.01333  0.97233  Biso   1.000  H
  H640     1.0000 0.68000  0.01600  0.36100  Biso   1.000  H
  H641     1.0000 0.98400  0.66400  0.36100  Biso   1.000  H
  H642     1.0000 0.33600  0.32000  0.36100  Biso   1.000  H
  H643     1.0000 0.01333  0.68267  0.02767  Biso   1.000  H
  H644     1.0000 0.31733  0.33067  0.02767  Biso   1.000  H
  H645     1.0000 0.66933  0.98667  0.02767  Biso   1.000  H
  H646     1.0000 0.34667  0.34933  0.69433  Biso   1.000  H
  H647     1.0000 0.65067  0.99733  0.69433  Biso   1.000  H
  H648     1.0000 0.00267  0.65333  0.69433  Biso   1.000  H
  H649     1.0000 0.25300  0.95100  0.65600  Biso   1.000  H
  H650     1.0000 0.04900  0.30200  0.65600  Biso   1.000  H
  H651     1.0000 0.69800  0.74700  0.65600  Biso   1.000  H
  H652     1.0000 0.58633  0.61767  0.32267  Biso   1.000  H
  H653     1.0000 0.38233  0.96867  0.32267  Biso   1.000  H
  H654     1.0000 0.03133  0.41367  0.32267  Biso   1.000  H
  H655     1.0000 0.91967  0.28433  0.98933  Biso   1.000  H
  H656     1.0000 0.71567  0.63533  0.98933  Biso   1.000  H
  H657     1.0000 0.36467  0.08033  0.98933  Biso   1.000  H
  H658     1.0000 0.74700  0.04900  0.34400  Biso   1.000  H
  H659     1.0000 0.95100  0.69800  0.34400  Biso   1.000  H
  H660     1.0000 0.30200  0.25300  0.34400  Biso   1.000  H
  H661     1.0000 0.08033  0.71567  0.01067  Biso   1.000  H
  H662     1.0000 0.28433  0.36467  0.01067  Biso   1.000  H
  H663     1.0000 0.63533  0.91967  0.01067  Biso   1.000  H
  H664     1.0000 0.41367  0.38233  0.67733  Biso   1.000  H
  H665     1.0000 0.61767  0.03133  0.67733  Biso   1.000  H
  H666     1.0000 0.96867  0.58633  0.67733  Biso   1.000  H
  H667     1.0000 0.27000  0.91800  0.56800  Biso   1.000  H
  H668     1.0000 0.08200  0.35200  0.56800  Biso   1.000  H
  H669     1.0000 0.64800  0.73000  0.56800  Biso   1.000  H
  H670     1.0000 0.60333  0.58467  0.23467  Biso   1.000  H
  H671     1.0000 0.41533  0.01867  0.23467  Biso   1.000  H
  H672     1.0000 0.98133  0.39667  0.23467  Biso   1.000  H
  H673     1.0000 0.93667  0.25133  0.90133  Biso   1.000  H
  H674     1.0000 0.74867  0.68533  0.90133  Biso   1.000  H
  H675     1.0000 0.31467  0.06333  0.90133  Biso   1.000  H
  H676     1.0000 0.73000  0.08200  0.43200  Biso   1.000  H
  H677     1.0000 0.91800  0.64800  0.43200  Biso   1.000  H
  H678     1.0000 0.35200  0.27000  0.43200  Biso   1.000  H
  H679     1.0000 0.06333  0.74867  0.09867  Biso   1.000  H
  H680     1.0000 0.25133  0.31467  0.09867  Biso   1.000  H
  H681     1.0000 0.68533  0.93667  0.09867  Biso   1.000  H
  H682     1.0000 0.39667  0.41533  0.76533  Biso   1.000  H
  H683     1.0000 0.58467  0.98133  0.76533  Biso   1.000  H
  H684     1.0000 0.01867  0.60333  0.76533  Biso   1.000  H
  H685     1.0000 0.25900  0.91000  0.54660  Biso   1.000  H
  H686     1.0000 0.09000  0.34900  0.54660  Biso   1.000  H
  H687     1.0000 0.65100  0.74100  0.54660  Biso   1.000  H
  H688     1.0000 0.59233  0.57667  0.21327  Biso   1.000  H
  H689     1.0000 0.42333  0.01567  0.21327  Biso   1.000  H
  H690     1.0000 0.98433  0.40767  0.21327  Biso   1.000  H
  H691     1.0000 0.92567  0.24333  0.87993  Biso   1.000  H
  H692     1.0000 0.75667  0.68233  0.87993  Biso   1.000  H
  H693     1.0000 0.31767  0.07433  0.87993  Biso   1.000  H
  H694     1.0000 0.74100  0.09000  0.45340  Biso   1.000  H
  H695     1.0000 0.91000  0.65100  0.45340  Biso   1.000  H
  H696     1.0000 0.34900  0.25900  0.45340  Biso   1.000  H
  H697     1.0000 0.07433  0.75667  0.12007  Biso   1.000  H
  H698     1.0000 0.24333  0.31767  0.12007  Biso   1.000  H
  H699     1.0000 0.68233  0.92567  0.12007  Biso   1.000  H
  H700     1.0000 0.40767  0.42333  0.78673  Biso   1.000  H
  H701     1.0000 0.57667  0.98433  0.78673  Biso   1.000  H
  H702     1.0000 0.01567  0.59233  0.78673  Biso   1.000  H
  H703     1.0000 0.32620  0.97020  0.55250  Biso   1.000  H
  H704     1.0000 0.02980  0.35600  0.55250  Biso   1.000  H
  H705     1.0000 0.64400  0.67380  0.55250  Biso   1.000  H
  H706     1.0000 0.65953  0.63687  0.21917  Biso   1.000  H
  H707     1.0000 0.36313  0.02267  0.21917  Biso   1.000  H
  H708     1.0000 0.97733  0.34047  0.21917  Biso   1.000  H
  H709     1.0000 0.99287  0.30353  0.88583  Biso   1.000  H
  H710     1.0000 0.69647  0.68933  0.88583  Biso   1.000  H
  H711     1.0000 0.31067  0.00713  0.88583  Biso   1.000  H
  H712     1.0000 0.67380  0.02980  0.44750  Biso   1.000  H
  H713     1.0000 0.97020  0.64400  0.44750  Biso   1.000  H
  H714     1.0000 0.35600  0.32620  0.44750  Biso   1.000  H
  H715     1.0000 0.00713  0.69647  0.11417  Biso   1.000  H
  H716     1.0000 0.30353  0.31067  0.11417  Biso   1.000  H
  H717     1.0000 0.68933  0.99287  0.11417  Biso   1.000  H
  H718     1.0000 0.34047  0.36313  0.78083  Biso   1.000  H
  H719     1.0000 0.63687  0.97733  0.78083  Biso   1.000  H
  H720     1.0000 0.02267  0.65953  0.78083  Biso   1.000  H
  H721     1.0000 0.28000  0.95290  0.66810  Biso   1.000  H
  H722     1.0000 0.04710  0.32710  0.66810  Biso   1.000  H
  H723     1.0000 0.67290  0.72000  0.66810  Biso   1.000  H
  H724     1.0000 0.61333  0.61957  0.33477  Biso   1.000  H
  H725     1.0000 0.38043  0.99377  0.33477  Biso   1.000  H
  H726     1.0000 0.00623  0.38667  0.33477  Biso   1.000  H
  H727     1.0000 0.94667  0.28623  0.00143  Biso   1.000  H
  H728     1.0000 0.71377  0.66043  0.00143  Biso   1.000  H
  H729     1.0000 0.33957  0.05333  0.00143  Biso   1.000  H
  H730     1.0000 0.72000  0.04710  0.33190  Biso   1.000  H
  H731     1.0000 0.95290  0.67290  0.33190  Biso   1.000  H
  H732     1.0000 0.32710  0.28000  0.33190  Biso   1.000  H
  H733     1.0000 0.05333  0.71377  0.99857  Biso   1.000  H
  H734     1.0000 0.28623  0.33957  0.99857  Biso   1.000  H
  H735     1.0000 0.66043  0.94667  0.99857  Biso   1.000  H
  H736     1.0000 0.38667  0.38043  0.66523  Biso   1.000  H
  H737     1.0000 0.61957  0.00623  0.66523  Biso   1.000  H
  H738     1.0000 0.99377  0.61333  0.66523  Biso   1.000  H
  H739     1.0000 0.31720  0.81250  0.63610  Biso   1.000  H
  H740     1.0000 0.18750  0.50470  0.63610  Biso   1.000  H
  H741     1.0000 0.49530  0.68280  0.63610  Biso   1.000  H
  H742     1.0000 0.65053  0.47917  0.30277  Biso   1.000  H
  H743     1.0000 0.52083  0.17137  0.30277  Biso   1.000  H
  H744     1.0000 0.82863  0.34947  0.30277  Biso   1.000  H
  H745     1.0000 0.98387  0.14583  0.96943  Biso   1.000  H
  H746     1.0000 0.85417  0.83803  0.96943  Biso   1.000  H
  H747     1.0000 0.16197  0.01613  0.96943  Biso   1.000  H
  H748     1.0000 0.68280  0.18750  0.36390  Biso   1.000  H
  H749     1.0000 0.81250  0.49530  0.36390  Biso   1.000  H
  H750     1.0000 0.50470  0.31720  0.36390  Biso   1.000  H
  H751     1.0000 0.01613  0.85417  0.03057  Biso   1.000  H
  H752     1.0000 0.14583  0.16197  0.03057  Biso   1.000  H
  H753     1.0000 0.83803  0.98387  0.03057  Biso   1.000  H
  H754     1.0000 0.34947  0.52083  0.69723  Biso   1.000  H
  H755     1.0000 0.47917  0.82863  0.69723  Biso   1.000  H
  H756     1.0000 0.17137  0.65053  0.69723  Biso   1.000  H
  H757     1.0000 0.31680  0.84380  0.50620  Biso   1.000  H
  H758     1.0000 0.15620  0.47300  0.50620  Biso   1.000  H
  H759     1.0000 0.52700  0.68320  0.50620  Biso   1.000  H
  H760     1.0000 0.65013  0.51047  0.17287  Biso   1.000  H
  H761     1.0000 0.48953  0.13967  0.17287  Biso   1.000  H
  H762     1.0000 0.86033  0.34987  0.17287  Biso   1.000  H
  H763     1.0000 0.98347  0.17713  0.83953  Biso   1.000  H
  H764     1.0000 0.82287  0.80633  0.83953  Biso   1.000  H
  H765     1.0000 0.19367  0.01653  0.83953  Biso   1.000  H
  H766     1.0000 0.68320  0.15620  0.49380  Biso   1.000  H
  H767     1.0000 0.84380  0.52700  0.49380  Biso   1.000  H
  H768     1.0000 0.47300  0.31680  0.49380  Biso   1.000  H
  H769     1.0000 0.01653  0.82287  0.16047  Biso   1.000  H
  H770     1.0000 0.17713  0.19367  0.16047  Biso   1.000  H
  H771     1.0000 0.80633  0.98347  0.16047  Biso   1.000  H
  H772     1.0000 0.34987  0.48953  0.82713  Biso   1.000  H
  H773     1.0000 0.51047  0.86033  0.82713  Biso   1.000  H
  H774     1.0000 0.13967  0.65013  0.82713  Biso   1.000  H
  H775     1.0000 0.25560  0.81080  0.58940  Biso   1.000  H
  H776     1.0000 0.18920  0.44480  0.58940  Biso   1.000  H
  H777     1.0000 0.55520  0.74440  0.58940  Biso   1.000  H
  H778     1.0000 0.58893  0.47747  0.25607  Biso   1.000  H
  H779     1.0000 0.52253  0.11147  0.25607  Biso   1.000  H
  H780     1.0000 0.88853  0.41107  0.25607  Biso   1.000  H
  H781     1.0000 0.92227  0.14413  0.92273  Biso   1.000  H
  H782     1.0000 0.85587  0.77813  0.92273  Biso   1.000  H
  H783     1.0000 0.22187  0.07773  0.92273  Biso   1.000  H
  H784     1.0000 0.74440  0.18920  0.41060  Biso   1.000  H
  H785     1.0000 0.81080  0.55520  0.41060  Biso   1.000  H
  H786     1.0000 0.44480  0.25560  0.41060  Biso   1.000  H
  H787     1.0000 0.07773  0.85587  0.07727  Biso   1.000  H
  H788     1.0000 0.14413  0.22187  0.07727  Biso   1.000  H
  H789     1.0000 0.77813  0.92227  0.07727  Biso   1.000  H
  H790     1.0000 0.41107  0.52253  0.74393  Biso   1.000  H
  H791     1.0000 0.47747  0.88853  0.74393  Biso   1.000  H
  H792     1.0000 0.11147  0.58893  0.74393  Biso   1.000  H
  H793     1.0000 0.34910  0.84300  0.81010  Biso   1.000  H
  H794     1.0000 0.15700  0.50610  0.81010  Biso   1.000  H
  H795     1.0000 0.49390  0.65090  0.81010  Biso   1.000  H
  H796     1.0000 0.68243  0.50967  0.47677  Biso   1.000  H
  H797     1.0000 0.49033  0.17277  0.47677  Biso   1.000  H
  H798     1.0000 0.82723  0.31757  0.47677  Biso   1.000  H
  H799     1.0000 0.01577  0.17633  0.14343  Biso   1.000  H
  H800     1.0000 0.82367  0.83943  0.14343  Biso   1.000  H
  H801     1.0000 0.16057  0.98423  0.14343  Biso   1.000  H
  H802     1.0000 0.65090  0.15700  0.18990  Biso   1.000  H
  H803     1.0000 0.84300  0.49390  0.18990  Biso   1.000  H
  H804     1.0000 0.50610  0.34910  0.18990  Biso   1.000  H
  H805     1.0000 0.98423  0.82367  0.85657  Biso   1.000  H
  H806     1.0000 0.17633  0.16057  0.85657  Biso   1.000  H
  H807     1.0000 0.83943  0.01577  0.85657  Biso   1.000  H
  H808     1.0000 0.31757  0.49033  0.52323  Biso   1.000  H
  H809     1.0000 0.50967  0.82723  0.52323  Biso   1.000  H
  H810     1.0000 0.17277  0.68243  0.52323  Biso   1.000  H
  H811     1.0000 0.28460  0.80840  0.88290  Biso   1.000  H
  H812     1.0000 0.19160  0.47620  0.88290  Biso   1.000  H
  H813     1.0000 0.52380  0.71540  0.88290  Biso   1.000  H
  H814     1.0000 0.61793  0.47507  0.54957  Biso   1.000  H
  H815     1.0000 0.52493  0.14287  0.54957  Biso   1.000  H
  H816     1.0000 0.85713  0.38207  0.54957  Biso   1.000  H
  H817     1.0000 0.95127  0.14173  0.21623  Biso   1.000  H
  H818     1.0000 0.85827  0.80953  0.21623  Biso   1.000  H
  H819     1.0000 0.19047  0.04873  0.21623  Biso   1.000  H
  H820     1.0000 0.71540  0.19160  0.11710  Biso   1.000  H
  H821     1.0000 0.80840  0.52380  0.11710  Biso   1.000  H
  H822     1.0000 0.47620  0.28460  0.11710  Biso   1.000  H
  H823     1.0000 0.04873  0.85827  0.78377  Biso   1.000  H
  H824     1.0000 0.14173  0.19047  0.78377  Biso   1.000  H
  H825     1.0000 0.80953  0.95127  0.78377  Biso   1.000  H
  H826     1.0000 0.38207  0.52493  0.45043  Biso   1.000  H
  H827     1.0000 0.47507  0.85713  0.45043  Biso   1.000  H
  H828     1.0000 0.14287  0.61793  0.45043  Biso   1.000  H
  H829     1.0000 0.33970  0.87230  0.93510  Biso   1.000  H
  H830     1.0000 0.12770  0.46740  0.93510  Biso   1.000  H
  H831     1.0000 0.53260  0.66030  0.93510  Biso   1.000  H
  H832     1.0000 0.67303  0.53897  0.60177  Biso   1.000  H
  H833     1.0000 0.46103  0.13407  0.60177  Biso   1.000  H
  H834     1.0000 0.86593  0.32697  0.60177  Biso   1.000  H
  H835     1.0000 0.00637  0.20563  0.26843  Biso   1.000  H
  H836     1.0000 0.79437  0.80073  0.26843  Biso   1.000  H
  H837     1.0000 0.19927  0.99363  0.26843  Biso   1.000  H
  H838     1.0000 0.66030  0.12770  0.06490  Biso   1.000  H
  H839     1.0000 0.87230  0.53260  0.06490  Biso   1.000  H
  H840     1.0000 0.46740  0.33970  0.06490  Biso   1.000  H
  H841     1.0000 0.99363  0.79437  0.73157  Biso   1.000  H
  H842     1.0000 0.20563  0.19927  0.73157  Biso   1.000  H
  H843     1.0000 0.80073  0.00637  0.73157  Biso   1.000  H
  H844     1.0000 0.32697  0.46103  0.39823  Biso   1.000  H
  H845     1.0000 0.53897  0.86593  0.39823  Biso   1.000  H
  H846     1.0000 0.13407  0.67303  0.39823  Biso   1.000  H
