data_image0
_cell_length_a       21.146
_cell_length_b       21.146
_cell_length_c       21.146
_cell_angle_alpha    90
_cell_angle_beta     90
_cell_angle_gamma    90

_symmetry_space_group_name_H-M    "P 1"
_symmetry_int_tables_number       1

loop_
  _symmetry_equiv_pos_as_xyz
  'x, y, z'

loop_
  _atom_site_label
  _atom_site_occupancy
  _atom_site_fract_x
  _atom_site_fract_y
  _atom_site_fract_z
  _atom_site_thermal_displace_type
  _atom_site_B_iso_or_equiv
  _atom_site_type_symbol
  Cu1      1.0000 0.67417  0.67417  0.78738  Biso   1.000  Cu
  Cu2      1.0000 0.32583  0.32583  0.78738  Biso   1.000  Cu
  Cu3      1.0000 0.32583  0.67417  0.21262  Biso   1.000  Cu
  Cu4      1.0000 0.67417  0.32583  0.21262  Biso   1.000  Cu
  Cu5      1.0000 0.78738  0.67417  0.67417  Biso   1.000  Cu
  Cu6      1.0000 0.78738  0.32583  0.32583  Biso   1.000  Cu
  Cu7      1.0000 0.21262  0.32583  0.67417  Biso   1.000  Cu
  Cu8      1.0000 0.21262  0.67417  0.32583  Biso   1.000  Cu
  Cu9      1.0000 0.67417  0.78738  0.67417  Biso   1.000  Cu
  Cu10     1.0000 0.32583  0.78738  0.32583  Biso   1.000  Cu
  Cu11     1.0000 0.67417  0.21262  0.32583  Biso   1.000  Cu
  Cu12     1.0000 0.32583  0.21262  0.67417  Biso   1.000  Cu
  Cu13     1.0000 0.17417  0.17417  0.28738  Biso   1.000  Cu
  Cu14     1.0000 0.82583  0.82583  0.28738  Biso   1.000  Cu
  Cu15     1.0000 0.82583  0.17417  0.71262  Biso   1.000  Cu
  Cu16     1.0000 0.17417  0.82583  0.71262  Biso   1.000  Cu
  Cu17     1.0000 0.28738  0.17417  0.17417  Biso   1.000  Cu
  Cu18     1.0000 0.28738  0.82583  0.82583  Biso   1.000  Cu
  Cu19     1.0000 0.71262  0.82583  0.17417  Biso   1.000  Cu
  Cu20     1.0000 0.71262  0.17417  0.82583  Biso   1.000  Cu
  Cu21     1.0000 0.17417  0.28738  0.17417  Biso   1.000  Cu
  Cu22     1.0000 0.82583  0.28738  0.82583  Biso   1.000  Cu
  Cu23     1.0000 0.17417  0.71262  0.82583  Biso   1.000  Cu
  Cu24     1.0000 0.82583  0.71262  0.17417  Biso   1.000  Cu
  O1       1.0000 0.70020  0.70020  0.70020  Biso   1.000  O
  O2       1.0000 0.29980  0.29980  0.70020  Biso   1.000  O
  O3       1.0000 0.29980  0.70020  0.29980  Biso   1.000  O
  O4       1.0000 0.70020  0.29980  0.29980  Biso   1.000  O
  O5       1.0000 0.20020  0.20020  0.20020  Biso   1.000  O
  O6       1.0000 0.79980  0.79980  0.20020  Biso   1.000  O
  O7       1.0000 0.79980  0.20020  0.79980  Biso   1.000  O
  O8       1.0000 0.20020  0.79980  0.79980  Biso   1.000  O
  O9       1.0000 0.60630  0.60630  0.73030  Biso   1.000  O
  O10      1.0000 0.39370  0.39370  0.73030  Biso   1.000  O
  O11      1.0000 0.39370  0.60630  0.26970  Biso   1.000  O
  O12      1.0000 0.60630  0.39370  0.26970  Biso   1.000  O
  O13      1.0000 0.73030  0.60630  0.60630  Biso   1.000  O
  O14      1.0000 0.73030  0.39370  0.39370  Biso   1.000  O
  O15      1.0000 0.26970  0.39370  0.60630  Biso   1.000  O
  O16      1.0000 0.26970  0.60630  0.39370  Biso   1.000  O
  O17      1.0000 0.60630  0.73030  0.60630  Biso   1.000  O
  O18      1.0000 0.39370  0.73030  0.39370  Biso   1.000  O
  O19      1.0000 0.60630  0.26970  0.39370  Biso   1.000  O
  O20      1.0000 0.39370  0.26970  0.60630  Biso   1.000  O
  O21      1.0000 0.10630  0.10630  0.23030  Biso   1.000  O
  O22      1.0000 0.89370  0.89370  0.23030  Biso   1.000  O
  O23      1.0000 0.89370  0.10630  0.76970  Biso   1.000  O
  O24      1.0000 0.10630  0.89370  0.76970  Biso   1.000  O
  O25      1.0000 0.23030  0.10630  0.10630  Biso   1.000  O
  O26      1.0000 0.23030  0.89370  0.89370  Biso   1.000  O
  O27      1.0000 0.76970  0.89370  0.10630  Biso   1.000  O
  O28      1.0000 0.76970  0.10630  0.89370  Biso   1.000  O
  O29      1.0000 0.10630  0.23030  0.10630  Biso   1.000  O
  O30      1.0000 0.89370  0.23030  0.89370  Biso   1.000  O
  O31      1.0000 0.10630  0.76970  0.89370  Biso   1.000  O
  O32      1.0000 0.89370  0.76970  0.10630  Biso   1.000  O
  N1       1.0000 0.85250  0.37440  0.85250  Biso   1.000  N
  N2       1.0000 0.14750  0.62560  0.85250  Biso   1.000  N
  N3       1.0000 0.14750  0.37440  0.14750  Biso   1.000  N
  N4       1.0000 0.85250  0.62560  0.14750  Biso   1.000  N
  N5       1.0000 0.85250  0.85250  0.37440  Biso   1.000  N
  N6       1.0000 0.85250  0.14750  0.62560  Biso   1.000  N
  N7       1.0000 0.14750  0.14750  0.37440  Biso   1.000  N
  N8       1.0000 0.14750  0.85250  0.62560  Biso   1.000  N
  N9       1.0000 0.37440  0.85250  0.85250  Biso   1.000  N
  N10      1.0000 0.62560  0.85250  0.14750  Biso   1.000  N
  N11      1.0000 0.37440  0.14750  0.14750  Biso   1.000  N
  N12      1.0000 0.62560  0.14750  0.85250  Biso   1.000  N
  N13      1.0000 0.35250  0.87440  0.35250  Biso   1.000  N
  N14      1.0000 0.64750  0.12560  0.35250  Biso   1.000  N
  N15      1.0000 0.64750  0.87440  0.64750  Biso   1.000  N
  N16      1.0000 0.35250  0.12560  0.64750  Biso   1.000  N
  N17      1.0000 0.35250  0.35250  0.87440  Biso   1.000  N
  N18      1.0000 0.35250  0.64750  0.12560  Biso   1.000  N
  N19      1.0000 0.64750  0.64750  0.87440  Biso   1.000  N
  N20      1.0000 0.64750  0.35250  0.12560  Biso   1.000  N
  N21      1.0000 0.87440  0.35250  0.35250  Biso   1.000  N
  N22      1.0000 0.12560  0.35250  0.64750  Biso   1.000  N
  N23      1.0000 0.87440  0.64750  0.64750  Biso   1.000  N
  N24      1.0000 0.12560  0.64750  0.35250  Biso   1.000  N
  N25      1.0000 0.81090  0.53740  0.81090  Biso   1.000  N
  N26      1.0000 0.18910  0.46260  0.81090  Biso   1.000  N
  N27      1.0000 0.18910  0.53740  0.18910  Biso   1.000  N
  N28      1.0000 0.81090  0.46260  0.18910  Biso   1.000  N
  N29      1.0000 0.81090  0.81090  0.53740  Biso   1.000  N
  N30      1.0000 0.81090  0.18910  0.46260  Biso   1.000  N
  N31      1.0000 0.18910  0.18910  0.53740  Biso   1.000  N
  N32      1.0000 0.18910  0.81090  0.46260  Biso   1.000  N
  N33      1.0000 0.53740  0.81090  0.81090  Biso   1.000  N
  N34      1.0000 0.46260  0.81090  0.18910  Biso   1.000  N
  N35      1.0000 0.53740  0.18910  0.18910  Biso   1.000  N
  N36      1.0000 0.46260  0.18910  0.81090  Biso   1.000  N
  N37      1.0000 0.31090  0.03740  0.31090  Biso   1.000  N
  N38      1.0000 0.68910  0.96260  0.31090  Biso   1.000  N
  N39      1.0000 0.68910  0.03740  0.68910  Biso   1.000  N
  N40      1.0000 0.31090  0.96260  0.68910  Biso   1.000  N
  N41      1.0000 0.31090  0.31090  0.03740  Biso   1.000  N
  N42      1.0000 0.31090  0.68910  0.96260  Biso   1.000  N
  N43      1.0000 0.68910  0.68910  0.03740  Biso   1.000  N
  N44      1.0000 0.68910  0.31090  0.96260  Biso   1.000  N
  N45      1.0000 0.03740  0.31090  0.31090  Biso   1.000  N
  N46      1.0000 0.96260  0.31090  0.68910  Biso   1.000  N
  N47      1.0000 0.03740  0.68910  0.68910  Biso   1.000  N
  N48      1.0000 0.96260  0.68910  0.31090  Biso   1.000  N
  N49      1.0000 0.74270  0.60950  0.78860  Biso   1.000  N
  N50      1.0000 0.25730  0.39050  0.78860  Biso   1.000  N
  N51      1.0000 0.25730  0.60950  0.21140  Biso   1.000  N
  N52      1.0000 0.74270  0.39050  0.21140  Biso   1.000  N
  N53      1.0000 0.78860  0.74270  0.60950  Biso   1.000  N
  N54      1.0000 0.78860  0.25730  0.39050  Biso   1.000  N
  N55      1.0000 0.21140  0.25730  0.60950  Biso   1.000  N
  N56      1.0000 0.21140  0.74270  0.39050  Biso   1.000  N
  N57      1.0000 0.60950  0.78860  0.74270  Biso   1.000  N
  N58      1.0000 0.39050  0.78860  0.25730  Biso   1.000  N
  N59      1.0000 0.60950  0.21140  0.25730  Biso   1.000  N
  N60      1.0000 0.39050  0.21140  0.74270  Biso   1.000  N
  N61      1.0000 0.60950  0.74270  0.78860  Biso   1.000  N
  N62      1.0000 0.39050  0.25730  0.78860  Biso   1.000  N
  N63      1.0000 0.60950  0.25730  0.21140  Biso   1.000  N
  N64      1.0000 0.39050  0.74270  0.21140  Biso   1.000  N
  N65      1.0000 0.74270  0.78860  0.60950  Biso   1.000  N
  N66      1.0000 0.25730  0.78860  0.39050  Biso   1.000  N
  N67      1.0000 0.25730  0.21140  0.60950  Biso   1.000  N
  N68      1.0000 0.74270  0.21140  0.39050  Biso   1.000  N
  N69      1.0000 0.78860  0.60950  0.74270  Biso   1.000  N
  N70      1.0000 0.78860  0.39050  0.25730  Biso   1.000  N
  N71      1.0000 0.21140  0.60950  0.25730  Biso   1.000  N
  N72      1.0000 0.21140  0.39050  0.74270  Biso   1.000  N
  N73      1.0000 0.24270  0.10950  0.28860  Biso   1.000  N
  N74      1.0000 0.75730  0.89050  0.28860  Biso   1.000  N
  N75      1.0000 0.75730  0.10950  0.71140  Biso   1.000  N
  N76      1.0000 0.24270  0.89050  0.71140  Biso   1.000  N
  N77      1.0000 0.28860  0.24270  0.10950  Biso   1.000  N
  N78      1.0000 0.28860  0.75730  0.89050  Biso   1.000  N
  N79      1.0000 0.71140  0.75730  0.10950  Biso   1.000  N
  N80      1.0000 0.71140  0.24270  0.89050  Biso   1.000  N
  N81      1.0000 0.10950  0.28860  0.24270  Biso   1.000  N
  N82      1.0000 0.89050  0.28860  0.75730  Biso   1.000  N
  N83      1.0000 0.10950  0.71140  0.75730  Biso   1.000  N
  N84      1.0000 0.89050  0.71140  0.24270  Biso   1.000  N
  N85      1.0000 0.10950  0.24270  0.28860  Biso   1.000  N
  N86      1.0000 0.89050  0.75730  0.28860  Biso   1.000  N
  N87      1.0000 0.10950  0.75730  0.71140  Biso   1.000  N
  N88      1.0000 0.89050  0.24270  0.71140  Biso   1.000  N
  N89      1.0000 0.24270  0.28860  0.10950  Biso   1.000  N
  N90      1.0000 0.75730  0.28860  0.89050  Biso   1.000  N
  N91      1.0000 0.75730  0.71140  0.10950  Biso   1.000  N
  N92      1.0000 0.24270  0.71140  0.89050  Biso   1.000  N
  N93      1.0000 0.28860  0.10950  0.24270  Biso   1.000  N
  N94      1.0000 0.28860  0.89050  0.75730  Biso   1.000  N
  N95      1.0000 0.71140  0.10950  0.75730  Biso   1.000  N
  N96      1.0000 0.71140  0.89050  0.24270  Biso   1.000  N
  C1       1.0000 0.82550  0.42480  0.82550  Biso   1.000  C
  C2       1.0000 0.17450  0.57520  0.82550  Biso   1.000  C
  C3       1.0000 0.17450  0.42480  0.17450  Biso   1.000  C
  C4       1.0000 0.82550  0.57520  0.17450  Biso   1.000  C
  C5       1.0000 0.82550  0.82550  0.42480  Biso   1.000  C
  C6       1.0000 0.82550  0.17450  0.57520  Biso   1.000  C
  C7       1.0000 0.17450  0.17450  0.42480  Biso   1.000  C
  C8       1.0000 0.17450  0.82550  0.57520  Biso   1.000  C
  C9       1.0000 0.42480  0.82550  0.82550  Biso   1.000  C
  C10      1.0000 0.57520  0.82550  0.17450  Biso   1.000  C
  C11      1.0000 0.42480  0.17450  0.17450  Biso   1.000  C
  C12      1.0000 0.57520  0.17450  0.82550  Biso   1.000  C
  C13      1.0000 0.32550  0.92480  0.32550  Biso   1.000  C
  C14      1.0000 0.67450  0.07520  0.32550  Biso   1.000  C
  C15      1.0000 0.67450  0.92480  0.67450  Biso   1.000  C
  C16      1.0000 0.32550  0.07520  0.67450  Biso   1.000  C
  C17      1.0000 0.32550  0.32550  0.92480  Biso   1.000  C
  C18      1.0000 0.32550  0.67450  0.07520  Biso   1.000  C
  C19      1.0000 0.67450  0.67450  0.92480  Biso   1.000  C
  C20      1.0000 0.67450  0.32550  0.07520  Biso   1.000  C
  C21      1.0000 0.92480  0.32550  0.32550  Biso   1.000  C
  C22      1.0000 0.07520  0.32550  0.67450  Biso   1.000  C
  C23      1.0000 0.92480  0.67450  0.67450  Biso   1.000  C
  C24      1.0000 0.07520  0.67450  0.32550  Biso   1.000  C
  H1       1.0000 0.79460  0.41900  0.79460  Biso   1.000  H
  H2       1.0000 0.20540  0.58100  0.79460  Biso   1.000  H
  H3       1.0000 0.20540  0.41900  0.20540  Biso   1.000  H
  H4       1.0000 0.79460  0.58100  0.20540  Biso   1.000  H
  H5       1.0000 0.79460  0.79460  0.41900  Biso   1.000  H
  H6       1.0000 0.79460  0.20540  0.58100  Biso   1.000  H
  H7       1.0000 0.20540  0.20540  0.41900  Biso   1.000  H
  H8       1.0000 0.20540  0.79460  0.58100  Biso   1.000  H
  H9       1.0000 0.41900  0.79460  0.79460  Biso   1.000  H
  H10      1.0000 0.58100  0.79460  0.20540  Biso   1.000  H
  H11      1.0000 0.41900  0.20540  0.20540  Biso   1.000  H
  H12      1.0000 0.58100  0.20540  0.79460  Biso   1.000  H
  H13      1.0000 0.29460  0.91900  0.29460  Biso   1.000  H
  H14      1.0000 0.70540  0.08100  0.29460  Biso   1.000  H
  H15      1.0000 0.70540  0.91900  0.70540  Biso   1.000  H
  H16      1.0000 0.29460  0.08100  0.70540  Biso   1.000  H
  H17      1.0000 0.29460  0.29460  0.91900  Biso   1.000  H
  H18      1.0000 0.29460  0.70540  0.08100  Biso   1.000  H
  H19      1.0000 0.70540  0.70540  0.91900  Biso   1.000  H
  H20      1.0000 0.70540  0.29460  0.08100  Biso   1.000  H
  H21      1.0000 0.91900  0.29460  0.29460  Biso   1.000  H
  H22      1.0000 0.08100  0.29460  0.70540  Biso   1.000  H
  H23      1.0000 0.91900  0.70540  0.70540  Biso   1.000  H
  H24      1.0000 0.08100  0.70540  0.29460  Biso   1.000  H
  C25      1.0000 0.89670  0.38480  0.89670  Biso   1.000  C
  C26      1.0000 0.10330  0.61520  0.89670  Biso   1.000  C
  C27      1.0000 0.10330  0.38480  0.10330  Biso   1.000  C
  C28      1.0000 0.89670  0.61520  0.10330  Biso   1.000  C
  C29      1.0000 0.89670  0.89670  0.38480  Biso   1.000  C
  C30      1.0000 0.89670  0.10330  0.61520  Biso   1.000  C
  C31      1.0000 0.10330  0.10330  0.38480  Biso   1.000  C
  C32      1.0000 0.10330  0.89670  0.61520  Biso   1.000  C
  C33      1.0000 0.38480  0.89670  0.89670  Biso   1.000  C
  C34      1.0000 0.61520  0.89670  0.10330  Biso   1.000  C
  C35      1.0000 0.38480  0.10330  0.10330  Biso   1.000  C
  C36      1.0000 0.61520  0.10330  0.89670  Biso   1.000  C
  C37      1.0000 0.39670  0.88480  0.39670  Biso   1.000  C
  C38      1.0000 0.60330  0.11520  0.39670  Biso   1.000  C
  C39      1.0000 0.60330  0.88480  0.60330  Biso   1.000  C
  C40      1.0000 0.39670  0.11520  0.60330  Biso   1.000  C
  C41      1.0000 0.39670  0.39670  0.88480  Biso   1.000  C
  C42      1.0000 0.39670  0.60330  0.11520  Biso   1.000  C
  C43      1.0000 0.60330  0.60330  0.88480  Biso   1.000  C
  C44      1.0000 0.60330  0.39670  0.11520  Biso   1.000  C
  C45      1.0000 0.88480  0.39670  0.39670  Biso   1.000  C
  C46      1.0000 0.11520  0.39670  0.60330  Biso   1.000  C
  C47      1.0000 0.88480  0.60330  0.60330  Biso   1.000  C
  C48      1.0000 0.11520  0.60330  0.39670  Biso   1.000  C
  H25      1.0000 0.91580  0.35020  0.91580  Biso   1.000  H
  H26      1.0000 0.08420  0.64980  0.91580  Biso   1.000  H
  H27      1.0000 0.08420  0.35020  0.08420  Biso   1.000  H
  H28      1.0000 0.91580  0.64980  0.08420  Biso   1.000  H
  H29      1.0000 0.91580  0.91580  0.35020  Biso   1.000  H
  H30      1.0000 0.91580  0.08420  0.64980  Biso   1.000  H
  H31      1.0000 0.08420  0.08420  0.35020  Biso   1.000  H
  H32      1.0000 0.08420  0.91580  0.64980  Biso   1.000  H
  H33      1.0000 0.35020  0.91580  0.91580  Biso   1.000  H
  H34      1.0000 0.64980  0.91580  0.08420  Biso   1.000  H
  H35      1.0000 0.35020  0.08420  0.08420  Biso   1.000  H
  H36      1.0000 0.64980  0.08420  0.91580  Biso   1.000  H
  H37      1.0000 0.41580  0.85020  0.41580  Biso   1.000  H
  H38      1.0000 0.58420  0.14980  0.41580  Biso   1.000  H
  H39      1.0000 0.58420  0.85020  0.58420  Biso   1.000  H
  H40      1.0000 0.41580  0.14980  0.58420  Biso   1.000  H
  H41      1.0000 0.41580  0.41580  0.85020  Biso   1.000  H
  H42      1.0000 0.41580  0.58420  0.14980  Biso   1.000  H
  H43      1.0000 0.58420  0.58420  0.85020  Biso   1.000  H
  H44      1.0000 0.58420  0.41580  0.14980  Biso   1.000  H
  H45      1.0000 0.85020  0.41580  0.41580  Biso   1.000  H
  H46      1.0000 0.14980  0.41580  0.58420  Biso   1.000  H
  H47      1.0000 0.85020  0.58420  0.58420  Biso   1.000  H
  H48      1.0000 0.14980  0.58420  0.41580  Biso   1.000  H
  C49      1.0000 0.91460  0.44260  0.91460  Biso   1.000  C
  C50      1.0000 0.08540  0.55740  0.91460  Biso   1.000  C
  C51      1.0000 0.08540  0.44260  0.08540  Biso   1.000  C
  C52      1.0000 0.91460  0.55740  0.08540  Biso   1.000  C
  C53      1.0000 0.91460  0.91460  0.44260  Biso   1.000  C
  C54      1.0000 0.91460  0.08540  0.55740  Biso   1.000  C
  C55      1.0000 0.08540  0.08540  0.44260  Biso   1.000  C
  C56      1.0000 0.08540  0.91460  0.55740  Biso   1.000  C
  C57      1.0000 0.44260  0.91460  0.91460  Biso   1.000  C
  C58      1.0000 0.55740  0.91460  0.08540  Biso   1.000  C
  C59      1.0000 0.44260  0.08540  0.08540  Biso   1.000  C
  C60      1.0000 0.55740  0.08540  0.91460  Biso   1.000  C
  C61      1.0000 0.41460  0.94260  0.41460  Biso   1.000  C
  C62      1.0000 0.58540  0.05740  0.41460  Biso   1.000  C
  C63      1.0000 0.58540  0.94260  0.58540  Biso   1.000  C
  C64      1.0000 0.41460  0.05740  0.58540  Biso   1.000  C
  C65      1.0000 0.41460  0.41460  0.94260  Biso   1.000  C
  C66      1.0000 0.41460  0.58540  0.05740  Biso   1.000  C
  C67      1.0000 0.58540  0.58540  0.94260  Biso   1.000  C
  C68      1.0000 0.58540  0.41460  0.05740  Biso   1.000  C
  C69      1.0000 0.94260  0.41460  0.41460  Biso   1.000  C
  C70      1.0000 0.05740  0.41460  0.58540  Biso   1.000  C
  C71      1.0000 0.94260  0.58540  0.58540  Biso   1.000  C
  C72      1.0000 0.05740  0.58540  0.41460  Biso   1.000  C
  H49      1.0000 0.94550  0.44770  0.94550  Biso   1.000  H
  H50      1.0000 0.05450  0.55230  0.94550  Biso   1.000  H
  H51      1.0000 0.05450  0.44770  0.05450  Biso   1.000  H
  H52      1.0000 0.94550  0.55230  0.05450  Biso   1.000  H
  H53      1.0000 0.94550  0.94550  0.44770  Biso   1.000  H
  H54      1.0000 0.94550  0.05450  0.55230  Biso   1.000  H
  H55      1.0000 0.05450  0.05450  0.44770  Biso   1.000  H
  H56      1.0000 0.05450  0.94550  0.55230  Biso   1.000  H
  H57      1.0000 0.44770  0.94550  0.94550  Biso   1.000  H
  H58      1.0000 0.55230  0.94550  0.05450  Biso   1.000  H
  H59      1.0000 0.44770  0.05450  0.05450  Biso   1.000  H
  H60      1.0000 0.55230  0.05450  0.94550  Biso   1.000  H
  H61      1.0000 0.44550  0.94770  0.44550  Biso   1.000  H
  H62      1.0000 0.55450  0.05230  0.44550  Biso   1.000  H
  H63      1.0000 0.55450  0.94770  0.55450  Biso   1.000  H
  H64      1.0000 0.44550  0.05230  0.55450  Biso   1.000  H
  H65      1.0000 0.44550  0.44550  0.94770  Biso   1.000  H
  H66      1.0000 0.44550  0.55450  0.05230  Biso   1.000  H
  H67      1.0000 0.55450  0.55450  0.94770  Biso   1.000  H
  H68      1.0000 0.55450  0.44550  0.05230  Biso   1.000  H
  H69      1.0000 0.94770  0.44550  0.44550  Biso   1.000  H
  H70      1.0000 0.05230  0.44550  0.55450  Biso   1.000  H
  H71      1.0000 0.94770  0.55450  0.55450  Biso   1.000  H
  H72      1.0000 0.05230  0.55450  0.44550  Biso   1.000  H
  C73      1.0000 0.88620  0.49580  0.88620  Biso   1.000  C
  C74      1.0000 0.11380  0.50420  0.88620  Biso   1.000  C
  C75      1.0000 0.11380  0.49580  0.11380  Biso   1.000  C
  C76      1.0000 0.88620  0.50420  0.11380  Biso   1.000  C
  C77      1.0000 0.88620  0.88620  0.49580  Biso   1.000  C
  C78      1.0000 0.88620  0.11380  0.50420  Biso   1.000  C
  C79      1.0000 0.11380  0.11380  0.49580  Biso   1.000  C
  C80      1.0000 0.11380  0.88620  0.50420  Biso   1.000  C
  C81      1.0000 0.49580  0.88620  0.88620  Biso   1.000  C
  C82      1.0000 0.50420  0.88620  0.11380  Biso   1.000  C
  C83      1.0000 0.49580  0.11380  0.11380  Biso   1.000  C
  C84      1.0000 0.50420  0.11380  0.88620  Biso   1.000  C
  C85      1.0000 0.38620  0.99580  0.38620  Biso   1.000  C
  C86      1.0000 0.61380  0.00420  0.38620  Biso   1.000  C
  C87      1.0000 0.61380  0.99580  0.61380  Biso   1.000  C
  C88      1.0000 0.38620  0.00420  0.61380  Biso   1.000  C
  C89      1.0000 0.38620  0.38620  0.99580  Biso   1.000  C
  C90      1.0000 0.38620  0.61380  0.00420  Biso   1.000  C
  C91      1.0000 0.61380  0.61380  0.99580  Biso   1.000  C
  C92      1.0000 0.61380  0.38620  0.00420  Biso   1.000  C
  C93      1.0000 0.99580  0.38620  0.38620  Biso   1.000  C
  C94      1.0000 0.00420  0.38620  0.61380  Biso   1.000  C
  C95      1.0000 0.99580  0.61380  0.61380  Biso   1.000  C
  C96      1.0000 0.00420  0.61380  0.38620  Biso   1.000  C
  H73      1.0000 0.89760  0.53670  0.89760  Biso   1.000  H
  H74      1.0000 0.10240  0.46330  0.89760  Biso   1.000  H
  H75      1.0000 0.10240  0.53670  0.10240  Biso   1.000  H
  H76      1.0000 0.89760  0.46330  0.10240  Biso   1.000  H
  H77      1.0000 0.89760  0.89760  0.53670  Biso   1.000  H
  H78      1.0000 0.89760  0.10240  0.46330  Biso   1.000  H
  H79      1.0000 0.10240  0.10240  0.53670  Biso   1.000  H
  H80      1.0000 0.10240  0.89760  0.46330  Biso   1.000  H
  H81      1.0000 0.53670  0.89760  0.89760  Biso   1.000  H
  H82      1.0000 0.46330  0.89760  0.10240  Biso   1.000  H
  H83      1.0000 0.53670  0.10240  0.10240  Biso   1.000  H
  H84      1.0000 0.46330  0.10240  0.89760  Biso   1.000  H
  H85      1.0000 0.39760  0.03670  0.39760  Biso   1.000  H
  H86      1.0000 0.60240  0.96330  0.39760  Biso   1.000  H
  H87      1.0000 0.60240  0.03670  0.60240  Biso   1.000  H
  H88      1.0000 0.39760  0.96330  0.60240  Biso   1.000  H
  H89      1.0000 0.39760  0.39760  0.03670  Biso   1.000  H
  H90      1.0000 0.39760  0.60240  0.96330  Biso   1.000  H
  H91      1.0000 0.60240  0.60240  0.03670  Biso   1.000  H
  H92      1.0000 0.60240  0.39760  0.96330  Biso   1.000  H
  H93      1.0000 0.03670  0.39760  0.39760  Biso   1.000  H
  H94      1.0000 0.96330  0.39760  0.60240  Biso   1.000  H
  H95      1.0000 0.03670  0.60240  0.60240  Biso   1.000  H
  H96      1.0000 0.96330  0.60240  0.39760  Biso   1.000  H
  C97      1.0000 0.84250  0.48490  0.84250  Biso   1.000  C
  C98      1.0000 0.15750  0.51510  0.84250  Biso   1.000  C
  C99      1.0000 0.15750  0.48490  0.15750  Biso   1.000  C
  C100     1.0000 0.84250  0.51510  0.15750  Biso   1.000  C
  C101     1.0000 0.84250  0.84250  0.48490  Biso   1.000  C
  C102     1.0000 0.84250  0.15750  0.51510  Biso   1.000  C
  C103     1.0000 0.15750  0.15750  0.48490  Biso   1.000  C
  C104     1.0000 0.15750  0.84250  0.51510  Biso   1.000  C
  C105     1.0000 0.48490  0.84250  0.84250  Biso   1.000  C
  C106     1.0000 0.51510  0.84250  0.15750  Biso   1.000  C
  C107     1.0000 0.48490  0.15750  0.15750  Biso   1.000  C
  C108     1.0000 0.51510  0.15750  0.84250  Biso   1.000  C
  C109     1.0000 0.34250  0.98490  0.34250  Biso   1.000  C
  C110     1.0000 0.65750  0.01510  0.34250  Biso   1.000  C
  C111     1.0000 0.65750  0.98490  0.65750  Biso   1.000  C
  C112     1.0000 0.34250  0.01510  0.65750  Biso   1.000  C
  C113     1.0000 0.34250  0.34250  0.98490  Biso   1.000  C
  C114     1.0000 0.34250  0.65750  0.01510  Biso   1.000  C
  C115     1.0000 0.65750  0.65750  0.98490  Biso   1.000  C
  C116     1.0000 0.65750  0.34250  0.01510  Biso   1.000  C
  C117     1.0000 0.98490  0.34250  0.34250  Biso   1.000  C
  C118     1.0000 0.01510  0.34250  0.65750  Biso   1.000  C
  C119     1.0000 0.98490  0.65750  0.65750  Biso   1.000  C
  C120     1.0000 0.01510  0.65750  0.34250  Biso   1.000  C
  C121     1.0000 0.75660  0.56610  0.82850  Biso   1.000  C
  C122     1.0000 0.24340  0.43390  0.82850  Biso   1.000  C
  C123     1.0000 0.24340  0.56610  0.17150  Biso   1.000  C
  C124     1.0000 0.75660  0.43390  0.17150  Biso   1.000  C
  C125     1.0000 0.82850  0.75660  0.56610  Biso   1.000  C
  C126     1.0000 0.82850  0.24340  0.43390  Biso   1.000  C
  C127     1.0000 0.17150  0.24340  0.56610  Biso   1.000  C
  C128     1.0000 0.17150  0.75660  0.43390  Biso   1.000  C
  C129     1.0000 0.56610  0.82850  0.75660  Biso   1.000  C
  C130     1.0000 0.43390  0.82850  0.24340  Biso   1.000  C
  C131     1.0000 0.56610  0.17150  0.24340  Biso   1.000  C
  C132     1.0000 0.43390  0.17150  0.75660  Biso   1.000  C
  C133     1.0000 0.56610  0.75660  0.82850  Biso   1.000  C
  C134     1.0000 0.43390  0.24340  0.82850  Biso   1.000  C
  C135     1.0000 0.56610  0.24340  0.17150  Biso   1.000  C
  C136     1.0000 0.43390  0.75660  0.17150  Biso   1.000  C
  C137     1.0000 0.75660  0.82850  0.56610  Biso   1.000  C
  C138     1.0000 0.24340  0.82850  0.43390  Biso   1.000  C
  C139     1.0000 0.24340  0.17150  0.56610  Biso   1.000  C
  C140     1.0000 0.75660  0.17150  0.43390  Biso   1.000  C
  C141     1.0000 0.82850  0.56610  0.75660  Biso   1.000  C
  C142     1.0000 0.82850  0.43390  0.24340  Biso   1.000  C
  C143     1.0000 0.17150  0.56610  0.24340  Biso   1.000  C
  C144     1.0000 0.17150  0.43390  0.75660  Biso   1.000  C
  C145     1.0000 0.25660  0.06610  0.32850  Biso   1.000  C
  C146     1.0000 0.74340  0.93390  0.32850  Biso   1.000  C
  C147     1.0000 0.74340  0.06610  0.67150  Biso   1.000  C
  C148     1.0000 0.25660  0.93390  0.67150  Biso   1.000  C
  C149     1.0000 0.32850  0.25660  0.06610  Biso   1.000  C
  C150     1.0000 0.32850  0.74340  0.93390  Biso   1.000  C
  C151     1.0000 0.67150  0.74340  0.06610  Biso   1.000  C
  C152     1.0000 0.67150  0.25660  0.93390  Biso   1.000  C
  C153     1.0000 0.06610  0.32850  0.25660  Biso   1.000  C
  C154     1.0000 0.93390  0.32850  0.74340  Biso   1.000  C
  C155     1.0000 0.06610  0.67150  0.74340  Biso   1.000  C
  C156     1.0000 0.93390  0.67150  0.25660  Biso   1.000  C
  C157     1.0000 0.06610  0.25660  0.32850  Biso   1.000  C
  C158     1.0000 0.93390  0.74340  0.32850  Biso   1.000  C
  C159     1.0000 0.06610  0.74340  0.67150  Biso   1.000  C
  C160     1.0000 0.93390  0.25660  0.67150  Biso   1.000  C
  C161     1.0000 0.25660  0.32850  0.06610  Biso   1.000  C
  C162     1.0000 0.74340  0.32850  0.93390  Biso   1.000  C
  C163     1.0000 0.74340  0.67150  0.06610  Biso   1.000  C
  C164     1.0000 0.25660  0.67150  0.93390  Biso   1.000  C
  C165     1.0000 0.32850  0.06610  0.25660  Biso   1.000  C
  C166     1.0000 0.32850  0.93390  0.74340  Biso   1.000  C
  C167     1.0000 0.67150  0.06610  0.74340  Biso   1.000  C
  C168     1.0000 0.67150  0.93390  0.25660  Biso   1.000  C
  H97      1.0000 0.73300  0.55580  0.86410  Biso   1.000  H
  H98      1.0000 0.26700  0.44420  0.86410  Biso   1.000  H
  H99      1.0000 0.26700  0.55580  0.13590  Biso   1.000  H
  H100     1.0000 0.73300  0.44420  0.13590  Biso   1.000  H
  H101     1.0000 0.86410  0.73300  0.55580  Biso   1.000  H
  H102     1.0000 0.86410  0.26700  0.44420  Biso   1.000  H
  H103     1.0000 0.13590  0.26700  0.55580  Biso   1.000  H
  H104     1.0000 0.13590  0.73300  0.44420  Biso   1.000  H
  H105     1.0000 0.55580  0.86410  0.73300  Biso   1.000  H
  H106     1.0000 0.44420  0.86410  0.26700  Biso   1.000  H
  H107     1.0000 0.55580  0.13590  0.26700  Biso   1.000  H
  H108     1.0000 0.44420  0.13590  0.73300  Biso   1.000  H
  H109     1.0000 0.55580  0.73300  0.86410  Biso   1.000  H
  H110     1.0000 0.44420  0.26700  0.86410  Biso   1.000  H
  H111     1.0000 0.55580  0.26700  0.13590  Biso   1.000  H
  H112     1.0000 0.44420  0.73300  0.13590  Biso   1.000  H
  H113     1.0000 0.73300  0.86410  0.55580  Biso   1.000  H
  H114     1.0000 0.26700  0.86410  0.44420  Biso   1.000  H
  H115     1.0000 0.26700  0.13590  0.55580  Biso   1.000  H
  H116     1.0000 0.73300  0.13590  0.44420  Biso   1.000  H
  H117     1.0000 0.86410  0.55580  0.73300  Biso   1.000  H
  H118     1.0000 0.86410  0.44420  0.26700  Biso   1.000  H
  H119     1.0000 0.13590  0.55580  0.26700  Biso   1.000  H
  H120     1.0000 0.13590  0.44420  0.73300  Biso   1.000  H
  H121     1.0000 0.23300  0.05580  0.36410  Biso   1.000  H
  H122     1.0000 0.76700  0.94420  0.36410  Biso   1.000  H
  H123     1.0000 0.76700  0.05580  0.63590  Biso   1.000  H
  H124     1.0000 0.23300  0.94420  0.63590  Biso   1.000  H
  H125     1.0000 0.36410  0.23300  0.05580  Biso   1.000  H
  H126     1.0000 0.36410  0.76700  0.94420  Biso   1.000  H
  H127     1.0000 0.63590  0.76700  0.05580  Biso   1.000  H
  H128     1.0000 0.63590  0.23300  0.94420  Biso   1.000  H
  H129     1.0000 0.05580  0.36410  0.23300  Biso   1.000  H
  H130     1.0000 0.94420  0.36410  0.76700  Biso   1.000  H
  H131     1.0000 0.05580  0.63590  0.76700  Biso   1.000  H
  H132     1.0000 0.94420  0.63590  0.23300  Biso   1.000  H
  H133     1.0000 0.05580  0.23300  0.36410  Biso   1.000  H
  H134     1.0000 0.94420  0.76700  0.36410  Biso   1.000  H
  H135     1.0000 0.05580  0.76700  0.63590  Biso   1.000  H
  H136     1.0000 0.94420  0.23300  0.63590  Biso   1.000  H
  H137     1.0000 0.23300  0.36410  0.05580  Biso   1.000  H
  H138     1.0000 0.76700  0.36410  0.94420  Biso   1.000  H
  H139     1.0000 0.76700  0.63590  0.05580  Biso   1.000  H
  H140     1.0000 0.23300  0.63590  0.94420  Biso   1.000  H
  H141     1.0000 0.36410  0.05580  0.23300  Biso   1.000  H
  H142     1.0000 0.36410  0.94420  0.76700  Biso   1.000  H
  H143     1.0000 0.63590  0.05580  0.76700  Biso   1.000  H
  H144     1.0000 0.63590  0.94420  0.23300  Biso   1.000  H
  Cl1      1.0000 0.70990  0.70990  0.29010  Biso   1.000  Cl
  Cl2      1.0000 0.29010  0.29010  0.29010  Biso   1.000  Cl
  Cl3      1.0000 0.29010  0.70990  0.70990  Biso   1.000  Cl
  Cl4      1.0000 0.70990  0.29010  0.70990  Biso   1.000  Cl
  Cl5      1.0000 0.20990  0.20990  0.79010  Biso   1.000  Cl
  Cl6      1.0000 0.79010  0.79010  0.79010  Biso   1.000  Cl
  Cl7      1.0000 0.79010  0.20990  0.20990  Biso   1.000  Cl
  Cl8      1.0000 0.20990  0.79010  0.20990  Biso   1.000  Cl
  O33      1.0000 0.74790  0.67170  0.25210  Biso   1.000  O
  O34      1.0000 0.25210  0.32830  0.25210  Biso   1.000  O
  O35      1.0000 0.25210  0.67170  0.74790  Biso   1.000  O
  O36      1.0000 0.74790  0.32830  0.74790  Biso   1.000  O
  O37      1.0000 0.25210  0.74790  0.67170  Biso   1.000  O
  O38      1.0000 0.25210  0.25210  0.32830  Biso   1.000  O
  O39      1.0000 0.74790  0.25210  0.67170  Biso   1.000  O
  O40      1.0000 0.74790  0.74790  0.32830  Biso   1.000  O
  O41      1.0000 0.67170  0.25210  0.74790  Biso   1.000  O
  O42      1.0000 0.32830  0.25210  0.25210  Biso   1.000  O
  O43      1.0000 0.67170  0.74790  0.25210  Biso   1.000  O
  O44      1.0000 0.32830  0.74790  0.74790  Biso   1.000  O
  O45      1.0000 0.24790  0.17170  0.75210  Biso   1.000  O
  O46      1.0000 0.75210  0.82830  0.75210  Biso   1.000  O
  O47      1.0000 0.75210  0.17170  0.24790  Biso   1.000  O
  O48      1.0000 0.24790  0.82830  0.24790  Biso   1.000  O
  O49      1.0000 0.75210  0.24790  0.17170  Biso   1.000  O
  O50      1.0000 0.75210  0.75210  0.82830  Biso   1.000  O
  O51      1.0000 0.24790  0.75210  0.17170  Biso   1.000  O
  O52      1.0000 0.24790  0.24790  0.82830  Biso   1.000  O
  O53      1.0000 0.17170  0.75210  0.24790  Biso   1.000  O
  O54      1.0000 0.82830  0.75210  0.75210  Biso   1.000  O
  O55      1.0000 0.17170  0.24790  0.75210  Biso   1.000  O
  O56      1.0000 0.82830  0.24790  0.24790  Biso   1.000  O
  O57      1.0000 0.67200  0.67200  0.32800  Biso   1.000  O
  O58      1.0000 0.32800  0.32800  0.32800  Biso   1.000  O
  O59      1.0000 0.32800  0.67200  0.67200  Biso   1.000  O
  O60      1.0000 0.67200  0.32800  0.67200  Biso   1.000  O
  O61      1.0000 0.17200  0.17200  0.82800  Biso   1.000  O
  O62      1.0000 0.82800  0.82800  0.82800  Biso   1.000  O
  O63      1.0000 0.82800  0.17200  0.17200  Biso   1.000  O
  O64      1.0000 0.17200  0.82800  0.17200  Biso   1.000  O
  Cl9      1.0000 0.75000  0.00000  0.50000  Biso   1.000  Cl
  Cl10     1.0000 0.25000  0.00000  0.50000  Biso   1.000  Cl
  Cl11     1.0000 0.50000  0.75000  0.00000  Biso   1.000  Cl
  Cl12     1.0000 0.50000  0.25000  0.00000  Biso   1.000  Cl
  Cl13     1.0000 0.00000  0.50000  0.75000  Biso   1.000  Cl
  Cl14     1.0000 0.00000  0.50000  0.25000  Biso   1.000  Cl
  Cl15     1.0000 0.00000  0.75000  0.50000  Biso   1.000  Cl
  Cl16     1.0000 0.00000  0.25000  0.50000  Biso   1.000  Cl
  Cl17     1.0000 0.75000  0.50000  0.00000  Biso   1.000  Cl
  Cl18     1.0000 0.25000  0.50000  0.00000  Biso   1.000  Cl
  Cl19     1.0000 0.50000  0.00000  0.75000  Biso   1.000  Cl
  Cl20     1.0000 0.50000  0.00000  0.25000  Biso   1.000  Cl
  O65      1.0000 0.78910  0.98340  0.55320  Biso   1.000  O
  O66      1.0000 0.21090  0.01660  0.55320  Biso   1.000  O
  O67      1.0000 0.21090  0.98340  0.44680  Biso   1.000  O
  O68      1.0000 0.78910  0.01660  0.44680  Biso   1.000  O
  O69      1.0000 0.55320  0.78910  0.98340  Biso   1.000  O
  O70      1.0000 0.55320  0.21090  0.01660  Biso   1.000  O
  O71      1.0000 0.44680  0.21090  0.98340  Biso   1.000  O
  O72      1.0000 0.44680  0.78910  0.01660  Biso   1.000  O
  O73      1.0000 0.98340  0.55320  0.78910  Biso   1.000  O
  O74      1.0000 0.01660  0.55320  0.21090  Biso   1.000  O
  O75      1.0000 0.98340  0.44680  0.21090  Biso   1.000  O
  O76      1.0000 0.01660  0.44680  0.78910  Biso   1.000  O
  O77      1.0000 0.98340  0.78910  0.55320  Biso   1.000  O
  O78      1.0000 0.01660  0.21090  0.55320  Biso   1.000  O
  O79      1.0000 0.98340  0.21090  0.44680  Biso   1.000  O
  O80      1.0000 0.01660  0.78910  0.44680  Biso   1.000  O
  O81      1.0000 0.78910  0.55320  0.98340  Biso   1.000  O
  O82      1.0000 0.21090  0.55320  0.01660  Biso   1.000  O
  O83      1.0000 0.21090  0.44680  0.98340  Biso   1.000  O
  O84      1.0000 0.78910  0.44680  0.01660  Biso   1.000  O
  O85      1.0000 0.55320  0.98340  0.78910  Biso   1.000  O
  O86      1.0000 0.55320  0.01660  0.21090  Biso   1.000  O
  O87      1.0000 0.44680  0.98340  0.21090  Biso   1.000  O
  O88      1.0000 0.44680  0.01660  0.78910  Biso   1.000  O
  O89      1.0000 0.28910  0.48340  0.05320  Biso   1.000  O
  O90      1.0000 0.71090  0.51660  0.05320  Biso   1.000  O
  O91      1.0000 0.71090  0.48340  0.94680  Biso   1.000  O
  O92      1.0000 0.28910  0.51660  0.94680  Biso   1.000  O
  O93      1.0000 0.05320  0.28910  0.48340  Biso   1.000  O
  O94      1.0000 0.05320  0.71090  0.51660  Biso   1.000  O
  O95      1.0000 0.94680  0.71090  0.48340  Biso   1.000  O
  O96      1.0000 0.94680  0.28910  0.51660  Biso   1.000  O
  O97      1.0000 0.48340  0.05320  0.28910  Biso   1.000  O
  O98      1.0000 0.51660  0.05320  0.71090  Biso   1.000  O
  O99      1.0000 0.48340  0.94680  0.71090  Biso   1.000  O
  O100     1.0000 0.51660  0.94680  0.28910  Biso   1.000  O
  O101     1.0000 0.48340  0.28910  0.05320  Biso   1.000  O
  O102     1.0000 0.51660  0.71090  0.05320  Biso   1.000  O
  O103     1.0000 0.48340  0.71090  0.94680  Biso   1.000  O
  O104     1.0000 0.51660  0.28910  0.94680  Biso   1.000  O
  O105     1.0000 0.28910  0.05320  0.48340  Biso   1.000  O
  O106     1.0000 0.71090  0.05320  0.51660  Biso   1.000  O
  O107     1.0000 0.71090  0.94680  0.48340  Biso   1.000  O
  O108     1.0000 0.28910  0.94680  0.51660  Biso   1.000  O
  O109     1.0000 0.05320  0.48340  0.28910  Biso   1.000  O
  O110     1.0000 0.05320  0.51660  0.71090  Biso   1.000  O
  O111     1.0000 0.94680  0.48340  0.71090  Biso   1.000  O
  O112     1.0000 0.94680  0.51660  0.28910  Biso   1.000  O
  B1       1.0000 0.92610  0.32430  0.10210  Biso   1.000  B
  B2       1.0000 0.07390  0.67570  0.10210  Biso   1.000  B
  B3       1.0000 0.07390  0.32430  0.89790  Biso   1.000  B
  B4       1.0000 0.92610  0.67570  0.89790  Biso   1.000  B
  B5       1.0000 0.10210  0.92610  0.32430  Biso   1.000  B
  B6       1.0000 0.10210  0.07390  0.67570  Biso   1.000  B
  B7       1.0000 0.89790  0.07390  0.32430  Biso   1.000  B
  B8       1.0000 0.89790  0.92610  0.67570  Biso   1.000  B
  B9       1.0000 0.32430  0.10210  0.92610  Biso   1.000  B
  B10      1.0000 0.67570  0.10210  0.07390  Biso   1.000  B
  B11      1.0000 0.32430  0.89790  0.07390  Biso   1.000  B
  B12      1.0000 0.67570  0.89790  0.92610  Biso   1.000  B
  B13      1.0000 0.32430  0.92610  0.10210  Biso   1.000  B
  B14      1.0000 0.67570  0.07390  0.10210  Biso   1.000  B
  B15      1.0000 0.32430  0.07390  0.89790  Biso   1.000  B
  B16      1.0000 0.67570  0.92610  0.89790  Biso   1.000  B
  B17      1.0000 0.92610  0.10210  0.32430  Biso   1.000  B
  B18      1.0000 0.07390  0.10210  0.67570  Biso   1.000  B
  B19      1.0000 0.07390  0.89790  0.32430  Biso   1.000  B
  B20      1.0000 0.92610  0.89790  0.67570  Biso   1.000  B
  B21      1.0000 0.10210  0.32430  0.92610  Biso   1.000  B
  B22      1.0000 0.10210  0.67570  0.07390  Biso   1.000  B
  B23      1.0000 0.89790  0.32430  0.07390  Biso   1.000  B
  B24      1.0000 0.89790  0.67570  0.92610  Biso   1.000  B
  B25      1.0000 0.42610  0.82430  0.60210  Biso   1.000  B
  B26      1.0000 0.57390  0.17570  0.60210  Biso   1.000  B
  B27      1.0000 0.57390  0.82430  0.39790  Biso   1.000  B
  B28      1.0000 0.42610  0.17570  0.39790  Biso   1.000  B
  B29      1.0000 0.60210  0.42610  0.82430  Biso   1.000  B
  B30      1.0000 0.60210  0.57390  0.17570  Biso   1.000  B
  B31      1.0000 0.39790  0.57390  0.82430  Biso   1.000  B
  B32      1.0000 0.39790  0.42610  0.17570  Biso   1.000  B
  B33      1.0000 0.82430  0.60210  0.42610  Biso   1.000  B
  B34      1.0000 0.17570  0.60210  0.57390  Biso   1.000  B
  B35      1.0000 0.82430  0.39790  0.57390  Biso   1.000  B
  B36      1.0000 0.17570  0.39790  0.42610  Biso   1.000  B
  B37      1.0000 0.82430  0.42610  0.60210  Biso   1.000  B
  B38      1.0000 0.17570  0.57390  0.60210  Biso   1.000  B
  B39      1.0000 0.82430  0.57390  0.39790  Biso   1.000  B
  B40      1.0000 0.17570  0.42610  0.39790  Biso   1.000  B
  B41      1.0000 0.42610  0.60210  0.82430  Biso   1.000  B
  B42      1.0000 0.57390  0.60210  0.17570  Biso   1.000  B
  B43      1.0000 0.57390  0.39790  0.82430  Biso   1.000  B
  B44      1.0000 0.42610  0.39790  0.17570  Biso   1.000  B
  B45      1.0000 0.60210  0.82430  0.42610  Biso   1.000  B
  B46      1.0000 0.60210  0.17570  0.57390  Biso   1.000  B
  B47      1.0000 0.39790  0.82430  0.57390  Biso   1.000  B
  B48      1.0000 0.39790  0.17570  0.42610  Biso   1.000  B
  F1       1.0000 0.87110  0.34370  0.12890  Biso   1.000  F
  F2       1.0000 0.12890  0.65630  0.12890  Biso   1.000  F
  F3       1.0000 0.12890  0.34370  0.87110  Biso   1.000  F
  F4       1.0000 0.87110  0.65630  0.87110  Biso   1.000  F
  F5       1.0000 0.12890  0.87110  0.34370  Biso   1.000  F
  F6       1.0000 0.12890  0.12890  0.65630  Biso   1.000  F
  F7       1.0000 0.87110  0.12890  0.34370  Biso   1.000  F
  F8       1.0000 0.87110  0.87110  0.65630  Biso   1.000  F
  F9       1.0000 0.34370  0.12890  0.87110  Biso   1.000  F
  F10      1.0000 0.65630  0.12890  0.12890  Biso   1.000  F
  F11      1.0000 0.34370  0.87110  0.12890  Biso   1.000  F
  F12      1.0000 0.65630  0.87110  0.87110  Biso   1.000  F
  F13      1.0000 0.37110  0.84370  0.62890  Biso   1.000  F
  F14      1.0000 0.62890  0.15630  0.62890  Biso   1.000  F
  F15      1.0000 0.62890  0.84370  0.37110  Biso   1.000  F
  F16      1.0000 0.37110  0.15630  0.37110  Biso   1.000  F
  F17      1.0000 0.62890  0.37110  0.84370  Biso   1.000  F
  F18      1.0000 0.62890  0.62890  0.15630  Biso   1.000  F
  F19      1.0000 0.37110  0.62890  0.84370  Biso   1.000  F
  F20      1.0000 0.37110  0.37110  0.15630  Biso   1.000  F
  F21      1.0000 0.84370  0.62890  0.37110  Biso   1.000  F
  F22      1.0000 0.15630  0.62890  0.62890  Biso   1.000  F
  F23      1.0000 0.84370  0.37110  0.62890  Biso   1.000  F
  F24      1.0000 0.15630  0.37110  0.37110  Biso   1.000  F
  F25      1.0000 0.92050  0.26460  0.07950  Biso   1.000  F
  F26      1.0000 0.07950  0.73540  0.07950  Biso   1.000  F
  F27      1.0000 0.07950  0.26460  0.92050  Biso   1.000  F
  F28      1.0000 0.92050  0.73540  0.92050  Biso   1.000  F
  F29      1.0000 0.07950  0.92050  0.26460  Biso   1.000  F
  F30      1.0000 0.07950  0.07950  0.73540  Biso   1.000  F
  F31      1.0000 0.92050  0.07950  0.26460  Biso   1.000  F
  F32      1.0000 0.92050  0.92050  0.73540  Biso   1.000  F
  F33      1.0000 0.26460  0.07950  0.92050  Biso   1.000  F
  F34      1.0000 0.73540  0.07950  0.07950  Biso   1.000  F
  F35      1.0000 0.26460  0.92050  0.07950  Biso   1.000  F
  F36      1.0000 0.73540  0.92050  0.92050  Biso   1.000  F
  F37      1.0000 0.42050  0.76460  0.57950  Biso   1.000  F
  F38      1.0000 0.57950  0.23540  0.57950  Biso   1.000  F
  F39      1.0000 0.57950  0.76460  0.42050  Biso   1.000  F
  F40      1.0000 0.42050  0.23540  0.42050  Biso   1.000  F
  F41      1.0000 0.57950  0.42050  0.76460  Biso   1.000  F
  F42      1.0000 0.57950  0.57950  0.23540  Biso   1.000  F
  F43      1.0000 0.42050  0.57950  0.76460  Biso   1.000  F
  F44      1.0000 0.42050  0.42050  0.23540  Biso   1.000  F
  F45      1.0000 0.76460  0.57950  0.42050  Biso   1.000  F
  F46      1.0000 0.23540  0.57950  0.57950  Biso   1.000  F
  F47      1.0000 0.76460  0.42050  0.57950  Biso   1.000  F
  F48      1.0000 0.23540  0.42050  0.42050  Biso   1.000  F
  F49      1.0000 0.94410  0.36550  0.05590  Biso   1.000  F
  F50      1.0000 0.05590  0.63450  0.05590  Biso   1.000  F
  F51      1.0000 0.05590  0.36550  0.94410  Biso   1.000  F
  F52      1.0000 0.94410  0.63450  0.94410  Biso   1.000  F
  F53      1.0000 0.05590  0.94410  0.36550  Biso   1.000  F
  F54      1.0000 0.05590  0.05590  0.63450  Biso   1.000  F
  F55      1.0000 0.94410  0.05590  0.36550  Biso   1.000  F
  F56      1.0000 0.94410  0.94410  0.63450  Biso   1.000  F
  F57      1.0000 0.36550  0.05590  0.94410  Biso   1.000  F
  F58      1.0000 0.63450  0.05590  0.05590  Biso   1.000  F
  F59      1.0000 0.36550  0.94410  0.05590  Biso   1.000  F
  F60      1.0000 0.63450  0.94410  0.94410  Biso   1.000  F
  F61      1.0000 0.44410  0.86550  0.55590  Biso   1.000  F
  F62      1.0000 0.55590  0.13450  0.55590  Biso   1.000  F
  F63      1.0000 0.55590  0.86550  0.44410  Biso   1.000  F
  F64      1.0000 0.44410  0.13450  0.44410  Biso   1.000  F
  F65      1.0000 0.55590  0.44410  0.86550  Biso   1.000  F
  F66      1.0000 0.55590  0.55590  0.13450  Biso   1.000  F
  F67      1.0000 0.44410  0.55590  0.86550  Biso   1.000  F
  F68      1.0000 0.44410  0.44410  0.13450  Biso   1.000  F
  F69      1.0000 0.86550  0.55590  0.44410  Biso   1.000  F
  F70      1.0000 0.13450  0.55590  0.55590  Biso   1.000  F
  F71      1.0000 0.86550  0.44410  0.55590  Biso   1.000  F
  F72      1.0000 0.13450  0.44410  0.44410  Biso   1.000  F
  F73      1.0000 0.97170  0.32300  0.14840  Biso   1.000  F
  F74      1.0000 0.02830  0.67700  0.14840  Biso   1.000  F
  F75      1.0000 0.02830  0.32300  0.85160  Biso   1.000  F
  F76      1.0000 0.97170  0.67700  0.85160  Biso   1.000  F
  F77      1.0000 0.14840  0.97170  0.32300  Biso   1.000  F
  F78      1.0000 0.14840  0.02830  0.67700  Biso   1.000  F
  F79      1.0000 0.85160  0.02830  0.32300  Biso   1.000  F
  F80      1.0000 0.85160  0.97170  0.67700  Biso   1.000  F
  F81      1.0000 0.32300  0.14840  0.97170  Biso   1.000  F
  F82      1.0000 0.67700  0.14840  0.02830  Biso   1.000  F
  F83      1.0000 0.32300  0.85160  0.02830  Biso   1.000  F
  F84      1.0000 0.67700  0.85160  0.97170  Biso   1.000  F
  F85      1.0000 0.32300  0.97170  0.14840  Biso   1.000  F
  F86      1.0000 0.67700  0.02830  0.14840  Biso   1.000  F
  F87      1.0000 0.32300  0.02830  0.85160  Biso   1.000  F
  F88      1.0000 0.67700  0.97170  0.85160  Biso   1.000  F
  F89      1.0000 0.97170  0.14840  0.32300  Biso   1.000  F
  F90      1.0000 0.02830  0.14840  0.67700  Biso   1.000  F
  F91      1.0000 0.02830  0.85160  0.32300  Biso   1.000  F
  F92      1.0000 0.97170  0.85160  0.67700  Biso   1.000  F
  F93      1.0000 0.14840  0.32300  0.97170  Biso   1.000  F
  F94      1.0000 0.14840  0.67700  0.02830  Biso   1.000  F
  F95      1.0000 0.85160  0.32300  0.02830  Biso   1.000  F
  F96      1.0000 0.85160  0.67700  0.97170  Biso   1.000  F
  F97      1.0000 0.47170  0.82300  0.64840  Biso   1.000  F
  F98      1.0000 0.52830  0.17700  0.64840  Biso   1.000  F
  F99      1.0000 0.52830  0.82300  0.35160  Biso   1.000  F
  F100     1.0000 0.47170  0.17700  0.35160  Biso   1.000  F
  F101     1.0000 0.64840  0.47170  0.82300  Biso   1.000  F
  F102     1.0000 0.64840  0.52830  0.17700  Biso   1.000  F
  F103     1.0000 0.35160  0.52830  0.82300  Biso   1.000  F
  F104     1.0000 0.35160  0.47170  0.17700  Biso   1.000  F
  F105     1.0000 0.82300  0.64840  0.47170  Biso   1.000  F
  F106     1.0000 0.17700  0.64840  0.52830  Biso   1.000  F
  F107     1.0000 0.82300  0.35160  0.52830  Biso   1.000  F
  F108     1.0000 0.17700  0.35160  0.47170  Biso   1.000  F
  F109     1.0000 0.82300  0.47170  0.64840  Biso   1.000  F
  F110     1.0000 0.17700  0.52830  0.64840  Biso   1.000  F
  F111     1.0000 0.82300  0.52830  0.35160  Biso   1.000  F
  F112     1.0000 0.17700  0.47170  0.35160  Biso   1.000  F
  F113     1.0000 0.47170  0.64840  0.82300  Biso   1.000  F
  F114     1.0000 0.52830  0.64840  0.17700  Biso   1.000  F
  F115     1.0000 0.52830  0.35160  0.82300  Biso   1.000  F
  F116     1.0000 0.47170  0.35160  0.17700  Biso   1.000  F
  F117     1.0000 0.64840  0.82300  0.47170  Biso   1.000  F
  F118     1.0000 0.64840  0.17700  0.52830  Biso   1.000  F
  F119     1.0000 0.35160  0.82300  0.52830  Biso   1.000  F
  F120     1.0000 0.35160  0.17700  0.47170  Biso   1.000  F
  O113     1.0000 0.91200  0.31740  0.08800  Biso   1.000  O
  O114     1.0000 0.08800  0.68260  0.08800  Biso   1.000  O
  O115     1.0000 0.08800  0.31740  0.91200  Biso   1.000  O
  O116     1.0000 0.91200  0.68260  0.91200  Biso   1.000  O
  O117     1.0000 0.08800  0.91200  0.31740  Biso   1.000  O
  O118     1.0000 0.08800  0.08800  0.68260  Biso   1.000  O
  O119     1.0000 0.91200  0.08800  0.31740  Biso   1.000  O
  O120     1.0000 0.91200  0.91200  0.68260  Biso   1.000  O
  O121     1.0000 0.31740  0.08800  0.91200  Biso   1.000  O
  O122     1.0000 0.68260  0.08800  0.08800  Biso   1.000  O
  O123     1.0000 0.31740  0.91200  0.08800  Biso   1.000  O
  O124     1.0000 0.68260  0.91200  0.91200  Biso   1.000  O
  O125     1.0000 0.41200  0.81740  0.58800  Biso   1.000  O
  O126     1.0000 0.58800  0.18260  0.58800  Biso   1.000  O
  O127     1.0000 0.58800  0.81740  0.41200  Biso   1.000  O
  O128     1.0000 0.41200  0.18260  0.41200  Biso   1.000  O
  O129     1.0000 0.58800  0.41200  0.81740  Biso   1.000  O
  O130     1.0000 0.58800  0.58800  0.18260  Biso   1.000  O
  O131     1.0000 0.41200  0.58800  0.81740  Biso   1.000  O
  O132     1.0000 0.41200  0.41200  0.18260  Biso   1.000  O
  O133     1.0000 0.81740  0.58800  0.41200  Biso   1.000  O
  O134     1.0000 0.18260  0.58800  0.58800  Biso   1.000  O
  O135     1.0000 0.81740  0.41200  0.58800  Biso   1.000  O
  O136     1.0000 0.18260  0.41200  0.41200  Biso   1.000  O
  O137     1.0000 0.70790  0.48390  0.70790  Biso   1.000  O
  O138     1.0000 0.29210  0.51610  0.70790  Biso   1.000  O
  O139     1.0000 0.29210  0.48390  0.29210  Biso   1.000  O
  O140     1.0000 0.70790  0.51610  0.29210  Biso   1.000  O
  O141     1.0000 0.70790  0.70790  0.48390  Biso   1.000  O
  O142     1.0000 0.70790  0.29210  0.51610  Biso   1.000  O
  O143     1.0000 0.29210  0.29210  0.48390  Biso   1.000  O
  O144     1.0000 0.29210  0.70790  0.51610  Biso   1.000  O
  O145     1.0000 0.48390  0.70790  0.70790  Biso   1.000  O
  O146     1.0000 0.51610  0.70790  0.29210  Biso   1.000  O
  O147     1.0000 0.48390  0.29210  0.29210  Biso   1.000  O
  O148     1.0000 0.51610  0.29210  0.70790  Biso   1.000  O
  O149     1.0000 0.20790  0.98390  0.20790  Biso   1.000  O
  O150     1.0000 0.79210  0.01610  0.20790  Biso   1.000  O
  O151     1.0000 0.79210  0.98390  0.79210  Biso   1.000  O
  O152     1.0000 0.20790  0.01610  0.79210  Biso   1.000  O
  O153     1.0000 0.20790  0.20790  0.98390  Biso   1.000  O
  O154     1.0000 0.20790  0.79210  0.01610  Biso   1.000  O
  O155     1.0000 0.79210  0.79210  0.98390  Biso   1.000  O
  O156     1.0000 0.79210  0.20790  0.01610  Biso   1.000  O
  O157     1.0000 0.98390  0.20790  0.20790  Biso   1.000  O
  O158     1.0000 0.01610  0.20790  0.79210  Biso   1.000  O
  O159     1.0000 0.98390  0.79210  0.79210  Biso   1.000  O
  O160     1.0000 0.01610  0.79210  0.20790  Biso   1.000  O
