data_image0
_cell_length_a       21.1318
_cell_length_b       21.1318
_cell_length_c       21.1318
_cell_angle_alpha    90
_cell_angle_beta     90
_cell_angle_gamma    90

_symmetry_space_group_name_H-M    "P 1"
_symmetry_int_tables_number       1

loop_
  _symmetry_equiv_pos_as_xyz
  'x, y, z'

loop_
  _atom_site_label
  _atom_site_occupancy
  _atom_site_fract_x
  _atom_site_fract_y
  _atom_site_fract_z
  _atom_site_thermal_displace_type
  _atom_site_B_iso_or_equiv
  _atom_site_type_symbol
  Cu1      1.0000 0.71390  0.82825  0.82825  Biso   1.000  Cu
  Cu2      1.0000 0.28610  0.17175  0.82825  Biso   1.000  Cu
  Cu3      1.0000 0.28610  0.82825  0.17175  Biso   1.000  Cu
  Cu4      1.0000 0.71390  0.17175  0.17175  Biso   1.000  Cu
  Cu5      1.0000 0.82825  0.71390  0.82825  Biso   1.000  Cu
  Cu6      1.0000 0.82825  0.28610  0.17175  Biso   1.000  Cu
  Cu7      1.0000 0.17175  0.28610  0.82825  Biso   1.000  Cu
  Cu8      1.0000 0.17175  0.71390  0.17175  Biso   1.000  Cu
  Cu9      1.0000 0.82825  0.82825  0.71390  Biso   1.000  Cu
  Cu10     1.0000 0.17175  0.82825  0.28610  Biso   1.000  Cu
  Cu11     1.0000 0.82825  0.17175  0.28610  Biso   1.000  Cu
  Cu12     1.0000 0.17175  0.17175  0.71390  Biso   1.000  Cu
  Cu13     1.0000 0.21390  0.32825  0.32825  Biso   1.000  Cu
  Cu14     1.0000 0.78610  0.67175  0.32825  Biso   1.000  Cu
  Cu15     1.0000 0.78610  0.32825  0.67175  Biso   1.000  Cu
  Cu16     1.0000 0.21390  0.67175  0.67175  Biso   1.000  Cu
  Cu17     1.0000 0.32825  0.21390  0.32825  Biso   1.000  Cu
  Cu18     1.0000 0.32825  0.78610  0.67175  Biso   1.000  Cu
  Cu19     1.0000 0.67175  0.78610  0.32825  Biso   1.000  Cu
  Cu20     1.0000 0.67175  0.21390  0.67175  Biso   1.000  Cu
  Cu21     1.0000 0.32825  0.32825  0.21390  Biso   1.000  Cu
  Cu22     1.0000 0.67175  0.32825  0.78610  Biso   1.000  Cu
  Cu23     1.0000 0.32825  0.67175  0.78610  Biso   1.000  Cu
  Cu24     1.0000 0.67175  0.67175  0.21390  Biso   1.000  Cu
  Cl1      1.0000 0.20900  0.20900  0.20900  Biso   1.000  Cl
  Cl2      1.0000 0.79100  0.79100  0.20900  Biso   1.000  Cl
  Cl3      1.0000 0.79100  0.20900  0.79100  Biso   1.000  Cl
  Cl4      1.0000 0.20900  0.79100  0.79100  Biso   1.000  Cl
  Cl5      1.0000 0.70900  0.70900  0.70900  Biso   1.000  Cl
  Cl6      1.0000 0.29100  0.29100  0.70900  Biso   1.000  Cl
  Cl7      1.0000 0.29100  0.70900  0.29100  Biso   1.000  Cl
  Cl8      1.0000 0.70900  0.29100  0.29100  Biso   1.000  Cl
  Cl9      1.0000 0.50000  0.25000  0.00000  Biso   1.000  Cl
  Cl10     1.0000 0.50000  0.75000  0.00000  Biso   1.000  Cl
  Cl11     1.0000 0.00000  0.50000  0.25000  Biso   1.000  Cl
  Cl12     1.0000 0.00000  0.50000  0.75000  Biso   1.000  Cl
  Cl13     1.0000 0.25000  0.00000  0.50000  Biso   1.000  Cl
  Cl14     1.0000 0.75000  0.00000  0.50000  Biso   1.000  Cl
  Cl15     1.0000 0.25000  0.50000  0.00000  Biso   1.000  Cl
  Cl16     1.0000 0.75000  0.50000  0.00000  Biso   1.000  Cl
  Cl17     1.0000 0.50000  0.00000  0.25000  Biso   1.000  Cl
  Cl18     1.0000 0.50000  0.00000  0.75000  Biso   1.000  Cl
  Cl19     1.0000 0.00000  0.25000  0.50000  Biso   1.000  Cl
  Cl20     1.0000 0.00000  0.75000  0.50000  Biso   1.000  Cl
  O1       1.0000 0.80070  0.80070  0.80070  Biso   1.000  O
  O2       1.0000 0.19930  0.19930  0.80070  Biso   1.000  O
  O3       1.0000 0.19930  0.80070  0.19930  Biso   1.000  O
  O4       1.0000 0.80070  0.19930  0.19930  Biso   1.000  O
  O5       1.0000 0.30070  0.30070  0.30070  Biso   1.000  O
  O6       1.0000 0.69930  0.69930  0.30070  Biso   1.000  O
  O7       1.0000 0.69930  0.30070  0.69930  Biso   1.000  O
  O8       1.0000 0.30070  0.69930  0.69930  Biso   1.000  O
  O9       1.0000 0.89460  0.89460  0.76860  Biso   1.000  O
  O10      1.0000 0.10540  0.10540  0.76860  Biso   1.000  O
  O11      1.0000 0.10540  0.89460  0.23140  Biso   1.000  O
  O12      1.0000 0.89460  0.10540  0.23140  Biso   1.000  O
  O13      1.0000 0.76860  0.89460  0.89460  Biso   1.000  O
  O14      1.0000 0.76860  0.10540  0.10540  Biso   1.000  O
  O15      1.0000 0.23140  0.10540  0.89460  Biso   1.000  O
  O16      1.0000 0.23140  0.89460  0.10540  Biso   1.000  O
  O17      1.0000 0.89460  0.76860  0.89460  Biso   1.000  O
  O18      1.0000 0.10540  0.76860  0.10540  Biso   1.000  O
  O19      1.0000 0.89460  0.23140  0.10540  Biso   1.000  O
  O20      1.0000 0.10540  0.23140  0.89460  Biso   1.000  O
  O21      1.0000 0.39460  0.39460  0.26860  Biso   1.000  O
  O22      1.0000 0.60540  0.60540  0.26860  Biso   1.000  O
  O23      1.0000 0.60540  0.39460  0.73140  Biso   1.000  O
  O24      1.0000 0.39460  0.60540  0.73140  Biso   1.000  O
  O25      1.0000 0.26860  0.39460  0.39460  Biso   1.000  O
  O26      1.0000 0.26860  0.60540  0.60540  Biso   1.000  O
  O27      1.0000 0.73140  0.60540  0.39460  Biso   1.000  O
  O28      1.0000 0.73140  0.39460  0.60540  Biso   1.000  O
  O29      1.0000 0.39460  0.26860  0.39460  Biso   1.000  O
  O30      1.0000 0.60540  0.26860  0.60540  Biso   1.000  O
  O31      1.0000 0.39460  0.73140  0.60540  Biso   1.000  O
  O32      1.0000 0.60540  0.73140  0.39460  Biso   1.000  O
  C1       1.0000 0.60180  0.11510  0.60180  Biso   1.000  C
  C2       1.0000 0.39820  0.88490  0.60180  Biso   1.000  C
  C3       1.0000 0.39820  0.11510  0.39820  Biso   1.000  C
  C4       1.0000 0.60180  0.88490  0.39820  Biso   1.000  C
  C5       1.0000 0.60180  0.60180  0.11510  Biso   1.000  C
  C6       1.0000 0.60180  0.39820  0.88490  Biso   1.000  C
  C7       1.0000 0.39820  0.39820  0.11510  Biso   1.000  C
  C8       1.0000 0.39820  0.60180  0.88490  Biso   1.000  C
  C9       1.0000 0.11510  0.60180  0.60180  Biso   1.000  C
  C10      1.0000 0.88490  0.60180  0.39820  Biso   1.000  C
  C11      1.0000 0.11510  0.39820  0.39820  Biso   1.000  C
  C12      1.0000 0.88490  0.39820  0.60180  Biso   1.000  C
  C13      1.0000 0.10180  0.61510  0.10180  Biso   1.000  C
  C14      1.0000 0.89820  0.38490  0.10180  Biso   1.000  C
  C15      1.0000 0.89820  0.61510  0.89820  Biso   1.000  C
  C16      1.0000 0.10180  0.38490  0.89820  Biso   1.000  C
  C17      1.0000 0.10180  0.10180  0.61510  Biso   1.000  C
  C18      1.0000 0.10180  0.89820  0.38490  Biso   1.000  C
  C19      1.0000 0.89820  0.89820  0.61510  Biso   1.000  C
  C20      1.0000 0.89820  0.10180  0.38490  Biso   1.000  C
  C21      1.0000 0.61510  0.10180  0.10180  Biso   1.000  C
  C22      1.0000 0.38490  0.10180  0.89820  Biso   1.000  C
  C23      1.0000 0.61510  0.89820  0.89820  Biso   1.000  C
  C24      1.0000 0.38490  0.89820  0.10180  Biso   1.000  C
  H1       1.0000 0.58230  0.14940  0.58230  Biso   1.000  H
  H2       1.0000 0.41770  0.85060  0.58230  Biso   1.000  H
  H3       1.0000 0.41770  0.14940  0.41770  Biso   1.000  H
  H4       1.0000 0.58230  0.85060  0.41770  Biso   1.000  H
  H5       1.0000 0.58230  0.58230  0.14940  Biso   1.000  H
  H6       1.0000 0.58230  0.41770  0.85060  Biso   1.000  H
  H7       1.0000 0.41770  0.41770  0.14940  Biso   1.000  H
  H8       1.0000 0.41770  0.58230  0.85060  Biso   1.000  H
  H9       1.0000 0.14940  0.58230  0.58230  Biso   1.000  H
  H10      1.0000 0.85060  0.58230  0.41770  Biso   1.000  H
  H11      1.0000 0.14940  0.41770  0.41770  Biso   1.000  H
  H12      1.0000 0.85060  0.41770  0.58230  Biso   1.000  H
  H13      1.0000 0.08230  0.64940  0.08230  Biso   1.000  H
  H14      1.0000 0.91770  0.35060  0.08230  Biso   1.000  H
  H15      1.0000 0.91770  0.64940  0.91770  Biso   1.000  H
  H16      1.0000 0.08230  0.35060  0.91770  Biso   1.000  H
  H17      1.0000 0.08230  0.08230  0.64940  Biso   1.000  H
  H18      1.0000 0.08230  0.91770  0.35060  Biso   1.000  H
  H19      1.0000 0.91770  0.91770  0.64940  Biso   1.000  H
  H20      1.0000 0.91770  0.08230  0.35060  Biso   1.000  H
  H21      1.0000 0.64940  0.08230  0.08230  Biso   1.000  H
  H22      1.0000 0.35060  0.08230  0.91770  Biso   1.000  H
  H23      1.0000 0.64940  0.91770  0.91770  Biso   1.000  H
  H24      1.0000 0.35060  0.91770  0.08230  Biso   1.000  H
  C25      1.0000 0.58490  0.05620  0.58490  Biso   1.000  C
  C26      1.0000 0.41510  0.94380  0.58490  Biso   1.000  C
  C27      1.0000 0.41510  0.05620  0.41510  Biso   1.000  C
  C28      1.0000 0.58490  0.94380  0.41510  Biso   1.000  C
  C29      1.0000 0.58490  0.58490  0.05620  Biso   1.000  C
  C30      1.0000 0.58490  0.41510  0.94380  Biso   1.000  C
  C31      1.0000 0.41510  0.41510  0.05620  Biso   1.000  C
  C32      1.0000 0.41510  0.58490  0.94380  Biso   1.000  C
  C33      1.0000 0.05620  0.58490  0.58490  Biso   1.000  C
  C34      1.0000 0.94380  0.58490  0.41510  Biso   1.000  C
  C35      1.0000 0.05620  0.41510  0.41510  Biso   1.000  C
  C36      1.0000 0.94380  0.41510  0.58490  Biso   1.000  C
  C37      1.0000 0.08490  0.55620  0.08490  Biso   1.000  C
  C38      1.0000 0.91510  0.44380  0.08490  Biso   1.000  C
  C39      1.0000 0.91510  0.55620  0.91510  Biso   1.000  C
  C40      1.0000 0.08490  0.44380  0.91510  Biso   1.000  C
  C41      1.0000 0.08490  0.08490  0.55620  Biso   1.000  C
  C42      1.0000 0.08490  0.91510  0.44380  Biso   1.000  C
  C43      1.0000 0.91510  0.91510  0.55620  Biso   1.000  C
  C44      1.0000 0.91510  0.08490  0.44380  Biso   1.000  C
  C45      1.0000 0.55620  0.08490  0.08490  Biso   1.000  C
  C46      1.0000 0.44380  0.08490  0.91510  Biso   1.000  C
  C47      1.0000 0.55620  0.91510  0.91510  Biso   1.000  C
  C48      1.0000 0.44380  0.91510  0.08490  Biso   1.000  C
  H25      1.0000 0.55400  0.05060  0.55400  Biso   1.000  H
  H26      1.0000 0.44600  0.94940  0.55400  Biso   1.000  H
  H27      1.0000 0.44600  0.05060  0.44600  Biso   1.000  H
  H28      1.0000 0.55400  0.94940  0.44600  Biso   1.000  H
  H29      1.0000 0.55400  0.55400  0.05060  Biso   1.000  H
  H30      1.0000 0.55400  0.44600  0.94940  Biso   1.000  H
  H31      1.0000 0.44600  0.44600  0.05060  Biso   1.000  H
  H32      1.0000 0.44600  0.55400  0.94940  Biso   1.000  H
  H33      1.0000 0.05060  0.55400  0.55400  Biso   1.000  H
  H34      1.0000 0.94940  0.55400  0.44600  Biso   1.000  H
  H35      1.0000 0.05060  0.44600  0.44600  Biso   1.000  H
  H36      1.0000 0.94940  0.44600  0.55400  Biso   1.000  H
  H37      1.0000 0.05400  0.55060  0.05400  Biso   1.000  H
  H38      1.0000 0.94600  0.44940  0.05400  Biso   1.000  H
  H39      1.0000 0.94600  0.55060  0.94600  Biso   1.000  H
  H40      1.0000 0.05400  0.44940  0.94600  Biso   1.000  H
  H41      1.0000 0.05400  0.05400  0.55060  Biso   1.000  H
  H42      1.0000 0.05400  0.94600  0.44940  Biso   1.000  H
  H43      1.0000 0.94600  0.94600  0.55060  Biso   1.000  H
  H44      1.0000 0.94600  0.05400  0.44940  Biso   1.000  H
  H45      1.0000 0.55060  0.05400  0.05400  Biso   1.000  H
  H46      1.0000 0.44940  0.05400  0.94600  Biso   1.000  H
  H47      1.0000 0.55060  0.94600  0.94600  Biso   1.000  H
  H48      1.0000 0.44940  0.94600  0.05400  Biso   1.000  H
  C49      1.0000 0.61270  0.00360  0.61270  Biso   1.000  C
  C50      1.0000 0.38730  0.99640  0.61270  Biso   1.000  C
  C51      1.0000 0.38730  0.00360  0.38730  Biso   1.000  C
  C52      1.0000 0.61270  0.99640  0.38730  Biso   1.000  C
  C53      1.0000 0.61270  0.61270  0.00360  Biso   1.000  C
  C54      1.0000 0.61270  0.38730  0.99640  Biso   1.000  C
  C55      1.0000 0.38730  0.38730  0.00360  Biso   1.000  C
  C56      1.0000 0.38730  0.61270  0.99640  Biso   1.000  C
  C57      1.0000 0.00360  0.61270  0.61270  Biso   1.000  C
  C58      1.0000 0.99640  0.61270  0.38730  Biso   1.000  C
  C59      1.0000 0.00360  0.38730  0.38730  Biso   1.000  C
  C60      1.0000 0.99640  0.38730  0.61270  Biso   1.000  C
  C61      1.0000 0.11270  0.50360  0.11270  Biso   1.000  C
  C62      1.0000 0.88730  0.49640  0.11270  Biso   1.000  C
  C63      1.0000 0.88730  0.50360  0.88730  Biso   1.000  C
  C64      1.0000 0.11270  0.49640  0.88730  Biso   1.000  C
  C65      1.0000 0.11270  0.11270  0.50360  Biso   1.000  C
  C66      1.0000 0.11270  0.88730  0.49640  Biso   1.000  C
  C67      1.0000 0.88730  0.88730  0.50360  Biso   1.000  C
  C68      1.0000 0.88730  0.11270  0.49640  Biso   1.000  C
  C69      1.0000 0.50360  0.11270  0.11270  Biso   1.000  C
  C70      1.0000 0.49640  0.11270  0.88730  Biso   1.000  C
  C71      1.0000 0.50360  0.88730  0.88730  Biso   1.000  C
  C72      1.0000 0.49640  0.88730  0.11270  Biso   1.000  C
  H49      1.0000 0.60130  0.96270  0.60130  Biso   1.000  H
  H50      1.0000 0.39870  0.03730  0.60130  Biso   1.000  H
  H51      1.0000 0.39870  0.96270  0.39870  Biso   1.000  H
  H52      1.0000 0.60130  0.03730  0.39870  Biso   1.000  H
  H53      1.0000 0.60130  0.60130  0.96270  Biso   1.000  H
  H54      1.0000 0.60130  0.39870  0.03730  Biso   1.000  H
  H55      1.0000 0.39870  0.39870  0.96270  Biso   1.000  H
  H56      1.0000 0.39870  0.60130  0.03730  Biso   1.000  H
  H57      1.0000 0.96270  0.60130  0.60130  Biso   1.000  H
  H58      1.0000 0.03730  0.60130  0.39870  Biso   1.000  H
  H59      1.0000 0.96270  0.39870  0.39870  Biso   1.000  H
  H60      1.0000 0.03730  0.39870  0.60130  Biso   1.000  H
  H61      1.0000 0.10130  0.46270  0.10130  Biso   1.000  H
  H62      1.0000 0.89870  0.53730  0.10130  Biso   1.000  H
  H63      1.0000 0.89870  0.46270  0.89870  Biso   1.000  H
  H64      1.0000 0.10130  0.53730  0.89870  Biso   1.000  H
  H65      1.0000 0.10130  0.10130  0.46270  Biso   1.000  H
  H66      1.0000 0.10130  0.89870  0.53730  Biso   1.000  H
  H67      1.0000 0.89870  0.89870  0.46270  Biso   1.000  H
  H68      1.0000 0.89870  0.10130  0.53730  Biso   1.000  H
  H69      1.0000 0.46270  0.10130  0.10130  Biso   1.000  H
  H70      1.0000 0.53730  0.10130  0.89870  Biso   1.000  H
  H71      1.0000 0.46270  0.89870  0.89870  Biso   1.000  H
  H72      1.0000 0.53730  0.89870  0.10130  Biso   1.000  H
  C73      1.0000 0.65700  0.01480  0.65700  Biso   1.000  C
  C74      1.0000 0.34300  0.98520  0.65700  Biso   1.000  C
  C75      1.0000 0.34300  0.01480  0.34300  Biso   1.000  C
  C76      1.0000 0.65700  0.98520  0.34300  Biso   1.000  C
  C77      1.0000 0.65700  0.65700  0.01480  Biso   1.000  C
  C78      1.0000 0.65700  0.34300  0.98520  Biso   1.000  C
  C79      1.0000 0.34300  0.34300  0.01480  Biso   1.000  C
  C80      1.0000 0.34300  0.65700  0.98520  Biso   1.000  C
  C81      1.0000 0.01480  0.65700  0.65700  Biso   1.000  C
  C82      1.0000 0.98520  0.65700  0.34300  Biso   1.000  C
  C83      1.0000 0.01480  0.34300  0.34300  Biso   1.000  C
  C84      1.0000 0.98520  0.34300  0.65700  Biso   1.000  C
  C85      1.0000 0.15700  0.51480  0.15700  Biso   1.000  C
  C86      1.0000 0.84300  0.48520  0.15700  Biso   1.000  C
  C87      1.0000 0.84300  0.51480  0.84300  Biso   1.000  C
  C88      1.0000 0.15700  0.48520  0.84300  Biso   1.000  C
  C89      1.0000 0.15700  0.15700  0.51480  Biso   1.000  C
  C90      1.0000 0.15700  0.84300  0.48520  Biso   1.000  C
  C91      1.0000 0.84300  0.84300  0.51480  Biso   1.000  C
  C92      1.0000 0.84300  0.15700  0.48520  Biso   1.000  C
  C93      1.0000 0.51480  0.15700  0.15700  Biso   1.000  C
  C94      1.0000 0.48520  0.15700  0.84300  Biso   1.000  C
  C95      1.0000 0.51480  0.84300  0.84300  Biso   1.000  C
  C96      1.0000 0.48520  0.84300  0.15700  Biso   1.000  C
  C97      1.0000 0.67390  0.07600  0.67390  Biso   1.000  C
  C98      1.0000 0.32610  0.92400  0.67390  Biso   1.000  C
  C99      1.0000 0.32610  0.07600  0.32610  Biso   1.000  C
  C100     1.0000 0.67390  0.92400  0.32610  Biso   1.000  C
  C101     1.0000 0.67390  0.67390  0.07600  Biso   1.000  C
  C102     1.0000 0.67390  0.32610  0.92400  Biso   1.000  C
  C103     1.0000 0.32610  0.32610  0.07600  Biso   1.000  C
  C104     1.0000 0.32610  0.67390  0.92400  Biso   1.000  C
  C105     1.0000 0.07600  0.67390  0.67390  Biso   1.000  C
  C106     1.0000 0.92400  0.67390  0.32610  Biso   1.000  C
  C107     1.0000 0.07600  0.32610  0.32610  Biso   1.000  C
  C108     1.0000 0.92400  0.32610  0.67390  Biso   1.000  C
  C109     1.0000 0.17390  0.57600  0.17390  Biso   1.000  C
  C110     1.0000 0.82610  0.42400  0.17390  Biso   1.000  C
  C111     1.0000 0.82610  0.57600  0.82610  Biso   1.000  C
  C112     1.0000 0.17390  0.42400  0.82610  Biso   1.000  C
  C113     1.0000 0.17390  0.17390  0.57600  Biso   1.000  C
  C114     1.0000 0.17390  0.82610  0.42400  Biso   1.000  C
  C115     1.0000 0.82610  0.82610  0.57600  Biso   1.000  C
  C116     1.0000 0.82610  0.17390  0.42400  Biso   1.000  C
  C117     1.0000 0.57600  0.17390  0.17390  Biso   1.000  C
  C118     1.0000 0.42400  0.17390  0.82610  Biso   1.000  C
  C119     1.0000 0.57600  0.82610  0.82610  Biso   1.000  C
  C120     1.0000 0.42400  0.82610  0.17390  Biso   1.000  C
  H73      1.0000 0.70460  0.08290  0.70460  Biso   1.000  H
  H74      1.0000 0.29540  0.91710  0.70460  Biso   1.000  H
  H75      1.0000 0.29540  0.08290  0.29540  Biso   1.000  H
  H76      1.0000 0.70460  0.91710  0.29540  Biso   1.000  H
  H77      1.0000 0.70460  0.70460  0.08290  Biso   1.000  H
  H78      1.0000 0.70460  0.29540  0.91710  Biso   1.000  H
  H79      1.0000 0.29540  0.29540  0.08290  Biso   1.000  H
  H80      1.0000 0.29540  0.70460  0.91710  Biso   1.000  H
  H81      1.0000 0.08290  0.70460  0.70460  Biso   1.000  H
  H82      1.0000 0.91710  0.70460  0.29540  Biso   1.000  H
  H83      1.0000 0.08290  0.29540  0.29540  Biso   1.000  H
  H84      1.0000 0.91710  0.29540  0.70460  Biso   1.000  H
  H85      1.0000 0.20460  0.58290  0.20460  Biso   1.000  H
  H86      1.0000 0.79540  0.41710  0.20460  Biso   1.000  H
  H87      1.0000 0.79540  0.58290  0.79540  Biso   1.000  H
  H88      1.0000 0.20460  0.41710  0.79540  Biso   1.000  H
  H89      1.0000 0.20460  0.20460  0.58290  Biso   1.000  H
  H90      1.0000 0.20460  0.79540  0.41710  Biso   1.000  H
  H91      1.0000 0.79540  0.79540  0.58290  Biso   1.000  H
  H92      1.0000 0.79540  0.20460  0.41710  Biso   1.000  H
  H93      1.0000 0.58290  0.20460  0.20460  Biso   1.000  H
  H94      1.0000 0.41710  0.20460  0.79540  Biso   1.000  H
  H95      1.0000 0.58290  0.79540  0.79540  Biso   1.000  H
  H96      1.0000 0.41710  0.79540  0.20460  Biso   1.000  H
  C121     1.0000 0.67110  0.93400  0.74350  Biso   1.000  C
  C122     1.0000 0.32890  0.06600  0.74350  Biso   1.000  C
  C123     1.0000 0.32890  0.93400  0.25650  Biso   1.000  C
  C124     1.0000 0.67110  0.06600  0.25650  Biso   1.000  C
  C125     1.0000 0.74350  0.67110  0.93400  Biso   1.000  C
  C126     1.0000 0.74350  0.32890  0.06600  Biso   1.000  C
  C127     1.0000 0.25650  0.32890  0.93400  Biso   1.000  C
  C128     1.0000 0.25650  0.67110  0.06600  Biso   1.000  C
  C129     1.0000 0.93400  0.74350  0.67110  Biso   1.000  C
  C130     1.0000 0.06600  0.74350  0.32890  Biso   1.000  C
  C131     1.0000 0.93400  0.25650  0.32890  Biso   1.000  C
  C132     1.0000 0.06600  0.25650  0.67110  Biso   1.000  C
  C133     1.0000 0.93400  0.67110  0.74350  Biso   1.000  C
  C134     1.0000 0.06600  0.32890  0.74350  Biso   1.000  C
  C135     1.0000 0.93400  0.32890  0.25650  Biso   1.000  C
  C136     1.0000 0.06600  0.67110  0.25650  Biso   1.000  C
  C137     1.0000 0.67110  0.74350  0.93400  Biso   1.000  C
  C138     1.0000 0.32890  0.74350  0.06600  Biso   1.000  C
  C139     1.0000 0.32890  0.25650  0.93400  Biso   1.000  C
  C140     1.0000 0.67110  0.25650  0.06600  Biso   1.000  C
  C141     1.0000 0.74350  0.93400  0.67110  Biso   1.000  C
  C142     1.0000 0.74350  0.06600  0.32890  Biso   1.000  C
  C143     1.0000 0.25650  0.93400  0.32890  Biso   1.000  C
  C144     1.0000 0.25650  0.06600  0.67110  Biso   1.000  C
  C145     1.0000 0.17110  0.43400  0.24350  Biso   1.000  C
  C146     1.0000 0.82890  0.56600  0.24350  Biso   1.000  C
  C147     1.0000 0.82890  0.43400  0.75650  Biso   1.000  C
  C148     1.0000 0.17110  0.56600  0.75650  Biso   1.000  C
  C149     1.0000 0.24350  0.17110  0.43400  Biso   1.000  C
  C150     1.0000 0.24350  0.82890  0.56600  Biso   1.000  C
  C151     1.0000 0.75650  0.82890  0.43400  Biso   1.000  C
  C152     1.0000 0.75650  0.17110  0.56600  Biso   1.000  C
  C153     1.0000 0.43400  0.24350  0.17110  Biso   1.000  C
  C154     1.0000 0.56600  0.24350  0.82890  Biso   1.000  C
  C155     1.0000 0.43400  0.75650  0.82890  Biso   1.000  C
  C156     1.0000 0.56600  0.75650  0.17110  Biso   1.000  C
  C157     1.0000 0.43400  0.17110  0.24350  Biso   1.000  C
  C158     1.0000 0.56600  0.82890  0.24350  Biso   1.000  C
  C159     1.0000 0.43400  0.82890  0.75650  Biso   1.000  C
  C160     1.0000 0.56600  0.17110  0.75650  Biso   1.000  C
  C161     1.0000 0.17110  0.24350  0.43400  Biso   1.000  C
  C162     1.0000 0.82890  0.24350  0.56600  Biso   1.000  C
  C163     1.0000 0.82890  0.75650  0.43400  Biso   1.000  C
  C164     1.0000 0.17110  0.75650  0.56600  Biso   1.000  C
  C165     1.0000 0.24350  0.43400  0.17110  Biso   1.000  C
  C166     1.0000 0.24350  0.56600  0.82890  Biso   1.000  C
  C167     1.0000 0.75650  0.43400  0.82890  Biso   1.000  C
  C168     1.0000 0.75650  0.56600  0.17110  Biso   1.000  C
  H97      1.0000 0.63540  0.94390  0.76720  Biso   1.000  H
  H98      1.0000 0.36460  0.05610  0.76720  Biso   1.000  H
  H99      1.0000 0.36460  0.94390  0.23280  Biso   1.000  H
  H100     1.0000 0.63540  0.05610  0.23280  Biso   1.000  H
  H101     1.0000 0.76720  0.63540  0.94390  Biso   1.000  H
  H102     1.0000 0.76720  0.36460  0.05610  Biso   1.000  H
  H103     1.0000 0.23280  0.36460  0.94390  Biso   1.000  H
  H104     1.0000 0.23280  0.63540  0.05610  Biso   1.000  H
  H105     1.0000 0.94390  0.76720  0.63540  Biso   1.000  H
  H106     1.0000 0.05610  0.76720  0.36460  Biso   1.000  H
  H107     1.0000 0.94390  0.23280  0.36460  Biso   1.000  H
  H108     1.0000 0.05610  0.23280  0.63540  Biso   1.000  H
  H109     1.0000 0.94390  0.63540  0.76720  Biso   1.000  H
  H110     1.0000 0.05610  0.36460  0.76720  Biso   1.000  H
  H111     1.0000 0.94390  0.36460  0.23280  Biso   1.000  H
  H112     1.0000 0.05610  0.63540  0.23280  Biso   1.000  H
  H113     1.0000 0.63540  0.76720  0.94390  Biso   1.000  H
  H114     1.0000 0.36460  0.76720  0.05610  Biso   1.000  H
  H115     1.0000 0.36460  0.23280  0.94390  Biso   1.000  H
  H116     1.0000 0.63540  0.23280  0.05610  Biso   1.000  H
  H117     1.0000 0.76720  0.94390  0.63540  Biso   1.000  H
  H118     1.0000 0.76720  0.05610  0.36460  Biso   1.000  H
  H119     1.0000 0.23280  0.94390  0.36460  Biso   1.000  H
  H120     1.0000 0.23280  0.05610  0.63540  Biso   1.000  H
  H121     1.0000 0.13540  0.44390  0.26720  Biso   1.000  H
  H122     1.0000 0.86460  0.55610  0.26720  Biso   1.000  H
  H123     1.0000 0.86460  0.44390  0.73280  Biso   1.000  H
  H124     1.0000 0.13540  0.55610  0.73280  Biso   1.000  H
  H125     1.0000 0.26720  0.13540  0.44390  Biso   1.000  H
  H126     1.0000 0.26720  0.86460  0.55610  Biso   1.000  H
  H127     1.0000 0.73280  0.86460  0.44390  Biso   1.000  H
  H128     1.0000 0.73280  0.13540  0.55610  Biso   1.000  H
  H129     1.0000 0.44390  0.26720  0.13540  Biso   1.000  H
  H130     1.0000 0.55610  0.26720  0.86460  Biso   1.000  H
  H131     1.0000 0.44390  0.73280  0.86460  Biso   1.000  H
  H132     1.0000 0.55610  0.73280  0.13540  Biso   1.000  H
  H133     1.0000 0.44390  0.13540  0.26720  Biso   1.000  H
  H134     1.0000 0.55610  0.86460  0.26720  Biso   1.000  H
  H135     1.0000 0.44390  0.86460  0.73280  Biso   1.000  H
  H136     1.0000 0.55610  0.13540  0.73280  Biso   1.000  H
  H137     1.0000 0.13540  0.26720  0.44390  Biso   1.000  H
  H138     1.0000 0.86460  0.26720  0.55610  Biso   1.000  H
  H139     1.0000 0.86460  0.73280  0.44390  Biso   1.000  H
  H140     1.0000 0.13540  0.73280  0.55610  Biso   1.000  H
  H141     1.0000 0.26720  0.44390  0.13540  Biso   1.000  H
  H142     1.0000 0.26720  0.55610  0.86460  Biso   1.000  H
  H143     1.0000 0.73280  0.44390  0.86460  Biso   1.000  H
  H144     1.0000 0.73280  0.55610  0.13540  Biso   1.000  H
  O33      1.0000 0.17020  0.17020  0.17020  Biso   1.000  O
  O34      1.0000 0.82980  0.82980  0.17020  Biso   1.000  O
  O35      1.0000 0.82980  0.17020  0.82980  Biso   1.000  O
  O36      1.0000 0.17020  0.82980  0.82980  Biso   1.000  O
  O37      1.0000 0.67020  0.67020  0.67020  Biso   1.000  O
  O38      1.0000 0.32980  0.32980  0.67020  Biso   1.000  O
  O39      1.0000 0.32980  0.67020  0.32980  Biso   1.000  O
  O40      1.0000 0.67020  0.32980  0.32980  Biso   1.000  O
  O41      1.0000 0.24700  0.17140  0.24700  Biso   1.000  O
  O42      1.0000 0.75300  0.82860  0.24700  Biso   1.000  O
  O43      1.0000 0.75300  0.17140  0.75300  Biso   1.000  O
  O44      1.0000 0.24700  0.82860  0.75300  Biso   1.000  O
  O45      1.0000 0.24700  0.24700  0.17140  Biso   1.000  O
  O46      1.0000 0.24700  0.75300  0.82860  Biso   1.000  O
  O47      1.0000 0.75300  0.75300  0.17140  Biso   1.000  O
  O48      1.0000 0.75300  0.24700  0.82860  Biso   1.000  O
  O49      1.0000 0.17140  0.24700  0.24700  Biso   1.000  O
  O50      1.0000 0.82860  0.24700  0.75300  Biso   1.000  O
  O51      1.0000 0.17140  0.75300  0.75300  Biso   1.000  O
  O52      1.0000 0.82860  0.75300  0.24700  Biso   1.000  O
  O53      1.0000 0.74700  0.67140  0.74700  Biso   1.000  O
  O54      1.0000 0.25300  0.32860  0.74700  Biso   1.000  O
  O55      1.0000 0.25300  0.67140  0.25300  Biso   1.000  O
  O56      1.0000 0.74700  0.32860  0.25300  Biso   1.000  O
  O57      1.0000 0.74700  0.74700  0.67140  Biso   1.000  O
  O58      1.0000 0.74700  0.25300  0.32860  Biso   1.000  O
  O59      1.0000 0.25300  0.25300  0.67140  Biso   1.000  O
  O60      1.0000 0.25300  0.74700  0.32860  Biso   1.000  O
  O61      1.0000 0.67140  0.74700  0.74700  Biso   1.000  O
  O62      1.0000 0.32860  0.74700  0.25300  Biso   1.000  O
  O63      1.0000 0.67140  0.25300  0.25300  Biso   1.000  O
  O64      1.0000 0.32860  0.25300  0.74700  Biso   1.000  O
  O65      1.0000 0.51620  0.28980  0.05340  Biso   1.000  O
  O66      1.0000 0.48380  0.71020  0.05340  Biso   1.000  O
  O67      1.0000 0.48380  0.28980  0.94660  Biso   1.000  O
  O68      1.0000 0.51620  0.71020  0.94660  Biso   1.000  O
  O69      1.0000 0.05340  0.51620  0.28980  Biso   1.000  O
  O70      1.0000 0.05340  0.48380  0.71020  Biso   1.000  O
  O71      1.0000 0.94660  0.48380  0.28980  Biso   1.000  O
  O72      1.0000 0.94660  0.51620  0.71020  Biso   1.000  O
  O73      1.0000 0.28980  0.05340  0.51620  Biso   1.000  O
  O74      1.0000 0.71020  0.05340  0.48380  Biso   1.000  O
  O75      1.0000 0.28980  0.94660  0.48380  Biso   1.000  O
  O76      1.0000 0.71020  0.94660  0.51620  Biso   1.000  O
  O77      1.0000 0.28980  0.51620  0.05340  Biso   1.000  O
  O78      1.0000 0.71020  0.48380  0.05340  Biso   1.000  O
  O79      1.0000 0.28980  0.48380  0.94660  Biso   1.000  O
  O80      1.0000 0.71020  0.51620  0.94660  Biso   1.000  O
  O81      1.0000 0.51620  0.05340  0.28980  Biso   1.000  O
  O82      1.0000 0.48380  0.05340  0.71020  Biso   1.000  O
  O83      1.0000 0.48380  0.94660  0.28980  Biso   1.000  O
  O84      1.0000 0.51620  0.94660  0.71020  Biso   1.000  O
  O85      1.0000 0.05340  0.28980  0.51620  Biso   1.000  O
  O86      1.0000 0.05340  0.71020  0.48380  Biso   1.000  O
  O87      1.0000 0.94660  0.28980  0.48380  Biso   1.000  O
  O88      1.0000 0.94660  0.71020  0.51620  Biso   1.000  O
  O89      1.0000 0.01620  0.78980  0.55340  Biso   1.000  O
  O90      1.0000 0.98380  0.21020  0.55340  Biso   1.000  O
  O91      1.0000 0.98380  0.78980  0.44660  Biso   1.000  O
  O92      1.0000 0.01620  0.21020  0.44660  Biso   1.000  O
  O93      1.0000 0.55340  0.01620  0.78980  Biso   1.000  O
  O94      1.0000 0.55340  0.98380  0.21020  Biso   1.000  O
  O95      1.0000 0.44660  0.98380  0.78980  Biso   1.000  O
  O96      1.0000 0.44660  0.01620  0.21020  Biso   1.000  O
  O97      1.0000 0.78980  0.55340  0.01620  Biso   1.000  O
  O98      1.0000 0.21020  0.55340  0.98380  Biso   1.000  O
  O99      1.0000 0.78980  0.44660  0.98380  Biso   1.000  O
  O100     1.0000 0.21020  0.44660  0.01620  Biso   1.000  O
  O101     1.0000 0.78980  0.01620  0.55340  Biso   1.000  O
  O102     1.0000 0.21020  0.98380  0.55340  Biso   1.000  O
  O103     1.0000 0.78980  0.98380  0.44660  Biso   1.000  O
  O104     1.0000 0.21020  0.01620  0.44660  Biso   1.000  O
  O105     1.0000 0.01620  0.55340  0.78980  Biso   1.000  O
  O106     1.0000 0.98380  0.55340  0.21020  Biso   1.000  O
  O107     1.0000 0.98380  0.44660  0.78980  Biso   1.000  O
  O108     1.0000 0.01620  0.44660  0.21020  Biso   1.000  O
  O109     1.0000 0.55340  0.78980  0.01620  Biso   1.000  O
  O110     1.0000 0.55340  0.21020  0.98380  Biso   1.000  O
  O111     1.0000 0.44660  0.78980  0.98380  Biso   1.000  O
  O112     1.0000 0.44660  0.21020  0.01620  Biso   1.000  O
  N1       1.0000 0.64540  0.12560  0.64540  Biso   1.000  N
  N2       1.0000 0.35460  0.87440  0.64540  Biso   1.000  N
  N3       1.0000 0.35460  0.12560  0.35460  Biso   1.000  N
  N4       1.0000 0.64540  0.87440  0.35460  Biso   1.000  N
  N5       1.0000 0.64540  0.64540  0.12560  Biso   1.000  N
  N6       1.0000 0.64540  0.35460  0.87440  Biso   1.000  N
  N7       1.0000 0.35460  0.35460  0.12560  Biso   1.000  N
  N8       1.0000 0.35460  0.64540  0.87440  Biso   1.000  N
  N9       1.0000 0.12560  0.64540  0.64540  Biso   1.000  N
  N10      1.0000 0.87440  0.64540  0.35460  Biso   1.000  N
  N11      1.0000 0.12560  0.35460  0.35460  Biso   1.000  N
  N12      1.0000 0.87440  0.35460  0.64540  Biso   1.000  N
  N13      1.0000 0.14540  0.62560  0.14540  Biso   1.000  N
  N14      1.0000 0.85460  0.37440  0.14540  Biso   1.000  N
  N15      1.0000 0.85460  0.62560  0.85460  Biso   1.000  N
  N16      1.0000 0.14540  0.37440  0.85460  Biso   1.000  N
  N17      1.0000 0.14540  0.14540  0.62560  Biso   1.000  N
  N18      1.0000 0.14540  0.85460  0.37440  Biso   1.000  N
  N19      1.0000 0.85460  0.85460  0.62560  Biso   1.000  N
  N20      1.0000 0.85460  0.14540  0.37440  Biso   1.000  N
  N21      1.0000 0.62560  0.14540  0.14540  Biso   1.000  N
  N22      1.0000 0.37440  0.14540  0.85460  Biso   1.000  N
  N23      1.0000 0.62560  0.85460  0.85460  Biso   1.000  N
  N24      1.0000 0.37440  0.85460  0.14540  Biso   1.000  N
  N25      1.0000 0.68870  0.96310  0.68870  Biso   1.000  N
  N26      1.0000 0.31130  0.03690  0.68870  Biso   1.000  N
  N27      1.0000 0.31130  0.96310  0.31130  Biso   1.000  N
  N28      1.0000 0.68870  0.03690  0.31130  Biso   1.000  N
  N29      1.0000 0.68870  0.68870  0.96310  Biso   1.000  N
  N30      1.0000 0.68870  0.31130  0.03690  Biso   1.000  N
  N31      1.0000 0.31130  0.31130  0.96310  Biso   1.000  N
  N32      1.0000 0.31130  0.68870  0.03690  Biso   1.000  N
  N33      1.0000 0.96310  0.68870  0.68870  Biso   1.000  N
  N34      1.0000 0.03690  0.68870  0.31130  Biso   1.000  N
  N35      1.0000 0.96310  0.31130  0.31130  Biso   1.000  N
  N36      1.0000 0.03690  0.31130  0.68870  Biso   1.000  N
  N37      1.0000 0.18870  0.46310  0.18870  Biso   1.000  N
  N38      1.0000 0.81130  0.53690  0.18870  Biso   1.000  N
  N39      1.0000 0.81130  0.46310  0.81130  Biso   1.000  N
  N40      1.0000 0.18870  0.53690  0.81130  Biso   1.000  N
  N41      1.0000 0.18870  0.18870  0.46310  Biso   1.000  N
  N42      1.0000 0.18870  0.81130  0.53690  Biso   1.000  N
  N43      1.0000 0.81130  0.81130  0.46310  Biso   1.000  N
  N44      1.0000 0.81130  0.18870  0.53690  Biso   1.000  N
  N45      1.0000 0.46310  0.18870  0.18870  Biso   1.000  N
  N46      1.0000 0.53690  0.18870  0.81130  Biso   1.000  N
  N47      1.0000 0.46310  0.81130  0.81130  Biso   1.000  N
  N48      1.0000 0.53690  0.81130  0.18870  Biso   1.000  N
  N49      1.0000 0.71180  0.89080  0.75730  Biso   1.000  N
  N50      1.0000 0.28820  0.10920  0.75730  Biso   1.000  N
  N51      1.0000 0.28820  0.89080  0.24270  Biso   1.000  N
  N52      1.0000 0.71180  0.10920  0.24270  Biso   1.000  N
  N53      1.0000 0.75730  0.71180  0.89080  Biso   1.000  N
  N54      1.0000 0.75730  0.28820  0.10920  Biso   1.000  N
  N55      1.0000 0.24270  0.28820  0.89080  Biso   1.000  N
  N56      1.0000 0.24270  0.71180  0.10920  Biso   1.000  N
  N57      1.0000 0.89080  0.75730  0.71180  Biso   1.000  N
  N58      1.0000 0.10920  0.75730  0.28820  Biso   1.000  N
  N59      1.0000 0.89080  0.24270  0.28820  Biso   1.000  N
  N60      1.0000 0.10920  0.24270  0.71180  Biso   1.000  N
  N61      1.0000 0.89080  0.71180  0.75730  Biso   1.000  N
  N62      1.0000 0.10920  0.28820  0.75730  Biso   1.000  N
  N63      1.0000 0.89080  0.28820  0.24270  Biso   1.000  N
  N64      1.0000 0.10920  0.71180  0.24270  Biso   1.000  N
  N65      1.0000 0.71180  0.75730  0.89080  Biso   1.000  N
  N66      1.0000 0.28820  0.75730  0.10920  Biso   1.000  N
  N67      1.0000 0.28820  0.24270  0.89080  Biso   1.000  N
  N68      1.0000 0.71180  0.24270  0.10920  Biso   1.000  N
  N69      1.0000 0.75730  0.89080  0.71180  Biso   1.000  N
  N70      1.0000 0.75730  0.10920  0.28820  Biso   1.000  N
  N71      1.0000 0.24270  0.89080  0.28820  Biso   1.000  N
  N72      1.0000 0.24270  0.10920  0.71180  Biso   1.000  N
  N73      1.0000 0.21180  0.39080  0.25730  Biso   1.000  N
  N74      1.0000 0.78820  0.60920  0.25730  Biso   1.000  N
  N75      1.0000 0.78820  0.39080  0.74270  Biso   1.000  N
  N76      1.0000 0.21180  0.60920  0.74270  Biso   1.000  N
  N77      1.0000 0.25730  0.21180  0.39080  Biso   1.000  N
  N78      1.0000 0.25730  0.78820  0.60920  Biso   1.000  N
  N79      1.0000 0.74270  0.78820  0.39080  Biso   1.000  N
  N80      1.0000 0.74270  0.21180  0.60920  Biso   1.000  N
  N81      1.0000 0.39080  0.25730  0.21180  Biso   1.000  N
  N82      1.0000 0.60920  0.25730  0.78820  Biso   1.000  N
  N83      1.0000 0.39080  0.74270  0.78820  Biso   1.000  N
  N84      1.0000 0.60920  0.74270  0.21180  Biso   1.000  N
  N85      1.0000 0.39080  0.21180  0.25730  Biso   1.000  N
  N86      1.0000 0.60920  0.78820  0.25730  Biso   1.000  N
  N87      1.0000 0.39080  0.78820  0.74270  Biso   1.000  N
  N88      1.0000 0.60920  0.21180  0.74270  Biso   1.000  N
  N89      1.0000 0.21180  0.25730  0.39080  Biso   1.000  N
  N90      1.0000 0.78820  0.25730  0.60920  Biso   1.000  N
  N91      1.0000 0.78820  0.74270  0.39080  Biso   1.000  N
  N92      1.0000 0.21180  0.74270  0.60920  Biso   1.000  N
  N93      1.0000 0.25730  0.39080  0.21180  Biso   1.000  N
  N94      1.0000 0.25730  0.60920  0.78820  Biso   1.000  N
  N95      1.0000 0.74270  0.39080  0.78820  Biso   1.000  N
  N96      1.0000 0.74270  0.60920  0.21180  Biso   1.000  N
  Cl21     1.0000 0.57550  0.59670  0.81990  Biso   1.000  Cl
  Cl22     1.0000 0.42450  0.40330  0.81990  Biso   1.000  Cl
  Cl23     1.0000 0.42450  0.59670  0.18010  Biso   1.000  Cl
  Cl24     1.0000 0.57550  0.40330  0.18010  Biso   1.000  Cl
  Cl25     1.0000 0.81990  0.57550  0.59670  Biso   1.000  Cl
  Cl26     1.0000 0.81990  0.42450  0.40330  Biso   1.000  Cl
  Cl27     1.0000 0.18010  0.42450  0.59670  Biso   1.000  Cl
  Cl28     1.0000 0.18010  0.57550  0.40330  Biso   1.000  Cl
  Cl29     1.0000 0.59670  0.81990  0.57550  Biso   1.000  Cl
  Cl30     1.0000 0.40330  0.81990  0.42450  Biso   1.000  Cl
  Cl31     1.0000 0.59670  0.18010  0.42450  Biso   1.000  Cl
  Cl32     1.0000 0.40330  0.18010  0.57550  Biso   1.000  Cl
  Cl33     1.0000 0.59670  0.57550  0.81990  Biso   1.000  Cl
  Cl34     1.0000 0.40330  0.42450  0.81990  Biso   1.000  Cl
  Cl35     1.0000 0.59670  0.42450  0.18010  Biso   1.000  Cl
  Cl36     1.0000 0.40330  0.57550  0.18010  Biso   1.000  Cl
  Cl37     1.0000 0.57550  0.81990  0.59670  Biso   1.000  Cl
  Cl38     1.0000 0.42450  0.81990  0.40330  Biso   1.000  Cl
  Cl39     1.0000 0.42450  0.18010  0.59670  Biso   1.000  Cl
  Cl40     1.0000 0.57550  0.18010  0.40330  Biso   1.000  Cl
  Cl41     1.0000 0.81990  0.59670  0.57550  Biso   1.000  Cl
  Cl42     1.0000 0.81990  0.40330  0.42450  Biso   1.000  Cl
  Cl43     1.0000 0.18010  0.59670  0.42450  Biso   1.000  Cl
  Cl44     1.0000 0.18010  0.40330  0.57550  Biso   1.000  Cl
  Cl45     1.0000 0.07550  0.09670  0.31990  Biso   1.000  Cl
  Cl46     1.0000 0.92450  0.90330  0.31990  Biso   1.000  Cl
  Cl47     1.0000 0.92450  0.09670  0.68010  Biso   1.000  Cl
  Cl48     1.0000 0.07550  0.90330  0.68010  Biso   1.000  Cl
  Cl49     1.0000 0.31990  0.07550  0.09670  Biso   1.000  Cl
  Cl50     1.0000 0.31990  0.92450  0.90330  Biso   1.000  Cl
  Cl51     1.0000 0.68010  0.92450  0.09670  Biso   1.000  Cl
  Cl52     1.0000 0.68010  0.07550  0.90330  Biso   1.000  Cl
  Cl53     1.0000 0.09670  0.31990  0.07550  Biso   1.000  Cl
  Cl54     1.0000 0.90330  0.31990  0.92450  Biso   1.000  Cl
  Cl55     1.0000 0.09670  0.68010  0.92450  Biso   1.000  Cl
  Cl56     1.0000 0.90330  0.68010  0.07550  Biso   1.000  Cl
  Cl57     1.0000 0.09670  0.07550  0.31990  Biso   1.000  Cl
  Cl58     1.0000 0.90330  0.92450  0.31990  Biso   1.000  Cl
  Cl59     1.0000 0.09670  0.92450  0.68010  Biso   1.000  Cl
  Cl60     1.0000 0.90330  0.07550  0.68010  Biso   1.000  Cl
  Cl61     1.0000 0.07550  0.31990  0.09670  Biso   1.000  Cl
  Cl62     1.0000 0.92450  0.31990  0.90330  Biso   1.000  Cl
  Cl63     1.0000 0.92450  0.68010  0.09670  Biso   1.000  Cl
  Cl64     1.0000 0.07550  0.68010  0.90330  Biso   1.000  Cl
  Cl65     1.0000 0.31990  0.09670  0.07550  Biso   1.000  Cl
  Cl66     1.0000 0.31990  0.90330  0.92450  Biso   1.000  Cl
  Cl67     1.0000 0.68010  0.09670  0.92450  Biso   1.000  Cl
  Cl68     1.0000 0.68010  0.90330  0.07550  Biso   1.000  Cl
  O113     1.0000 0.55190  0.55190  0.86530  Biso   1.000  O
  O114     1.0000 0.44810  0.44810  0.86530  Biso   1.000  O
  O115     1.0000 0.44810  0.55190  0.13470  Biso   1.000  O
  O116     1.0000 0.55190  0.44810  0.13470  Biso   1.000  O
  O117     1.0000 0.86530  0.55190  0.55190  Biso   1.000  O
  O118     1.0000 0.86530  0.44810  0.44810  Biso   1.000  O
  O119     1.0000 0.13470  0.44810  0.55190  Biso   1.000  O
  O120     1.0000 0.13470  0.55190  0.44810  Biso   1.000  O
  O121     1.0000 0.55190  0.86530  0.55190  Biso   1.000  O
  O122     1.0000 0.44810  0.86530  0.44810  Biso   1.000  O
  O123     1.0000 0.55190  0.13470  0.44810  Biso   1.000  O
  O124     1.0000 0.44810  0.13470  0.55190  Biso   1.000  O
  O125     1.0000 0.05190  0.05190  0.36530  Biso   1.000  O
  O126     1.0000 0.94810  0.94810  0.36530  Biso   1.000  O
  O127     1.0000 0.94810  0.05190  0.63470  Biso   1.000  O
  O128     1.0000 0.05190  0.94810  0.63470  Biso   1.000  O
  O129     1.0000 0.36530  0.05190  0.05190  Biso   1.000  O
  O130     1.0000 0.36530  0.94810  0.94810  Biso   1.000  O
  O131     1.0000 0.63470  0.94810  0.05190  Biso   1.000  O
  O132     1.0000 0.63470  0.05190  0.94810  Biso   1.000  O
  O133     1.0000 0.05190  0.36530  0.05190  Biso   1.000  O
  O134     1.0000 0.94810  0.36530  0.94810  Biso   1.000  O
  O135     1.0000 0.05190  0.63470  0.94810  Biso   1.000  O
  O136     1.0000 0.94810  0.63470  0.05190  Biso   1.000  O
  O137     1.0000 0.64050  0.61160  0.83620  Biso   1.000  O
  O138     1.0000 0.35950  0.38840  0.83620  Biso   1.000  O
  O139     1.0000 0.35950  0.61160  0.16380  Biso   1.000  O
  O140     1.0000 0.64050  0.38840  0.16380  Biso   1.000  O
  O141     1.0000 0.83620  0.64050  0.61160  Biso   1.000  O
  O142     1.0000 0.83620  0.35950  0.38840  Biso   1.000  O
  O143     1.0000 0.16380  0.35950  0.61160  Biso   1.000  O
  O144     1.0000 0.16380  0.64050  0.38840  Biso   1.000  O
  O145     1.0000 0.61160  0.83620  0.64050  Biso   1.000  O
  O146     1.0000 0.38840  0.83620  0.35950  Biso   1.000  O
  O147     1.0000 0.61160  0.16380  0.35950  Biso   1.000  O
  O148     1.0000 0.38840  0.16380  0.64050  Biso   1.000  O
  O149     1.0000 0.61160  0.64050  0.83620  Biso   1.000  O
  O150     1.0000 0.38840  0.35950  0.83620  Biso   1.000  O
  O151     1.0000 0.61160  0.35950  0.16380  Biso   1.000  O
  O152     1.0000 0.38840  0.64050  0.16380  Biso   1.000  O
  O153     1.0000 0.64050  0.83620  0.61160  Biso   1.000  O
  O154     1.0000 0.35950  0.83620  0.38840  Biso   1.000  O
  O155     1.0000 0.35950  0.16380  0.61160  Biso   1.000  O
  O156     1.0000 0.64050  0.16380  0.38840  Biso   1.000  O
  O157     1.0000 0.83620  0.61160  0.64050  Biso   1.000  O
  O158     1.0000 0.83620  0.38840  0.35950  Biso   1.000  O
  O159     1.0000 0.16380  0.61160  0.35950  Biso   1.000  O
  O160     1.0000 0.16380  0.38840  0.64050  Biso   1.000  O
  O161     1.0000 0.14050  0.11160  0.33620  Biso   1.000  O
  O162     1.0000 0.85950  0.88840  0.33620  Biso   1.000  O
  O163     1.0000 0.85950  0.11160  0.66380  Biso   1.000  O
  O164     1.0000 0.14050  0.88840  0.66380  Biso   1.000  O
  O165     1.0000 0.33620  0.14050  0.11160  Biso   1.000  O
  O166     1.0000 0.33620  0.85950  0.88840  Biso   1.000  O
  O167     1.0000 0.66380  0.85950  0.11160  Biso   1.000  O
  O168     1.0000 0.66380  0.14050  0.88840  Biso   1.000  O
  O169     1.0000 0.11160  0.33620  0.14050  Biso   1.000  O
  O170     1.0000 0.88840  0.33620  0.85950  Biso   1.000  O
  O171     1.0000 0.11160  0.66380  0.85950  Biso   1.000  O
  O172     1.0000 0.88840  0.66380  0.14050  Biso   1.000  O
  O173     1.0000 0.11160  0.14050  0.33620  Biso   1.000  O
  O174     1.0000 0.88840  0.85950  0.33620  Biso   1.000  O
  O175     1.0000 0.11160  0.85950  0.66380  Biso   1.000  O
  O176     1.0000 0.88840  0.14050  0.66380  Biso   1.000  O
  O177     1.0000 0.14050  0.33620  0.11160  Biso   1.000  O
  O178     1.0000 0.85950  0.33620  0.88840  Biso   1.000  O
  O179     1.0000 0.85950  0.66380  0.11160  Biso   1.000  O
  O180     1.0000 0.14050  0.66380  0.88840  Biso   1.000  O
  O181     1.0000 0.33620  0.11160  0.14050  Biso   1.000  O
  O182     1.0000 0.33620  0.88840  0.85950  Biso   1.000  O
  O183     1.0000 0.66380  0.11160  0.85950  Biso   1.000  O
  O184     1.0000 0.66380  0.88840  0.14050  Biso   1.000  O
  O185     1.0000 0.57240  0.57240  0.75730  Biso   1.000  O
  O186     1.0000 0.42760  0.42760  0.75730  Biso   1.000  O
  O187     1.0000 0.42760  0.57240  0.24270  Biso   1.000  O
  O188     1.0000 0.57240  0.42760  0.24270  Biso   1.000  O
  O189     1.0000 0.75730  0.57240  0.57240  Biso   1.000  O
  O190     1.0000 0.75730  0.42760  0.42760  Biso   1.000  O
  O191     1.0000 0.24270  0.42760  0.57240  Biso   1.000  O
  O192     1.0000 0.24270  0.57240  0.42760  Biso   1.000  O
  O193     1.0000 0.57240  0.75730  0.57240  Biso   1.000  O
  O194     1.0000 0.42760  0.75730  0.42760  Biso   1.000  O
  O195     1.0000 0.57240  0.24270  0.42760  Biso   1.000  O
  O196     1.0000 0.42760  0.24270  0.57240  Biso   1.000  O
  O197     1.0000 0.07240  0.07240  0.25730  Biso   1.000  O
  O198     1.0000 0.92760  0.92760  0.25730  Biso   1.000  O
  O199     1.0000 0.92760  0.07240  0.74270  Biso   1.000  O
  O200     1.0000 0.07240  0.92760  0.74270  Biso   1.000  O
  O201     1.0000 0.25730  0.07240  0.07240  Biso   1.000  O
  O202     1.0000 0.25730  0.92760  0.92760  Biso   1.000  O
  O203     1.0000 0.74270  0.92760  0.07240  Biso   1.000  O
  O204     1.0000 0.74270  0.07240  0.92760  Biso   1.000  O
  O205     1.0000 0.07240  0.25730  0.07240  Biso   1.000  O
  O206     1.0000 0.92760  0.25730  0.92760  Biso   1.000  O
  O207     1.0000 0.07240  0.74270  0.92760  Biso   1.000  O
  O208     1.0000 0.92760  0.74270  0.07240  Biso   1.000  O
  O209     1.0000 0.53870  0.65420  0.82410  Biso   1.000  O
  O210     1.0000 0.46130  0.34580  0.82410  Biso   1.000  O
  O211     1.0000 0.46130  0.65420  0.17590  Biso   1.000  O
  O212     1.0000 0.53870  0.34580  0.17590  Biso   1.000  O
  O213     1.0000 0.82410  0.53870  0.65420  Biso   1.000  O
  O214     1.0000 0.82410  0.46130  0.34580  Biso   1.000  O
  O215     1.0000 0.17590  0.46130  0.65420  Biso   1.000  O
  O216     1.0000 0.17590  0.53870  0.34580  Biso   1.000  O
  O217     1.0000 0.65420  0.82410  0.53870  Biso   1.000  O
  O218     1.0000 0.34580  0.82410  0.46130  Biso   1.000  O
  O219     1.0000 0.65420  0.17590  0.46130  Biso   1.000  O
  O220     1.0000 0.34580  0.17590  0.53870  Biso   1.000  O
  O221     1.0000 0.65420  0.53870  0.82410  Biso   1.000  O
  O222     1.0000 0.34580  0.46130  0.82410  Biso   1.000  O
  O223     1.0000 0.65420  0.46130  0.17590  Biso   1.000  O
  O224     1.0000 0.34580  0.53870  0.17590  Biso   1.000  O
  O225     1.0000 0.53870  0.82410  0.65420  Biso   1.000  O
  O226     1.0000 0.46130  0.82410  0.34580  Biso   1.000  O
  O227     1.0000 0.46130  0.17590  0.65420  Biso   1.000  O
  O228     1.0000 0.53870  0.17590  0.34580  Biso   1.000  O
  O229     1.0000 0.82410  0.65420  0.53870  Biso   1.000  O
  O230     1.0000 0.82410  0.34580  0.46130  Biso   1.000  O
  O231     1.0000 0.17590  0.65420  0.46130  Biso   1.000  O
  O232     1.0000 0.17590  0.34580  0.53870  Biso   1.000  O
  O233     1.0000 0.03870  0.15420  0.32410  Biso   1.000  O
  O234     1.0000 0.96130  0.84580  0.32410  Biso   1.000  O
  O235     1.0000 0.96130  0.15420  0.67590  Biso   1.000  O
  O236     1.0000 0.03870  0.84580  0.67590  Biso   1.000  O
  O237     1.0000 0.32410  0.03870  0.15420  Biso   1.000  O
  O238     1.0000 0.32410  0.96130  0.84580  Biso   1.000  O
  O239     1.0000 0.67590  0.96130  0.15420  Biso   1.000  O
  O240     1.0000 0.67590  0.03870  0.84580  Biso   1.000  O
  O241     1.0000 0.15420  0.32410  0.03870  Biso   1.000  O
  O242     1.0000 0.84580  0.32410  0.96130  Biso   1.000  O
  O243     1.0000 0.15420  0.67590  0.96130  Biso   1.000  O
  O244     1.0000 0.84580  0.67590  0.03870  Biso   1.000  O
  O245     1.0000 0.15420  0.03870  0.32410  Biso   1.000  O
  O246     1.0000 0.84580  0.96130  0.32410  Biso   1.000  O
  O247     1.0000 0.15420  0.96130  0.67590  Biso   1.000  O
  O248     1.0000 0.84580  0.03870  0.67590  Biso   1.000  O
  O249     1.0000 0.03870  0.32410  0.15420  Biso   1.000  O
  O250     1.0000 0.96130  0.32410  0.84580  Biso   1.000  O
  O251     1.0000 0.96130  0.67590  0.15420  Biso   1.000  O
  O252     1.0000 0.03870  0.67590  0.84580  Biso   1.000  O
  O253     1.0000 0.32410  0.15420  0.03870  Biso   1.000  O
  O254     1.0000 0.32410  0.84580  0.96130  Biso   1.000  O
  O255     1.0000 0.67590  0.15420  0.96130  Biso   1.000  O
  O256     1.0000 0.67590  0.84580  0.03870  Biso   1.000  O
  O257     1.0000 0.59100  0.59100  0.81500  Biso   1.000  O
  O258     1.0000 0.40900  0.40900  0.81500  Biso   1.000  O
  O259     1.0000 0.40900  0.59100  0.18500  Biso   1.000  O
  O260     1.0000 0.59100  0.40900  0.18500  Biso   1.000  O
  O261     1.0000 0.81500  0.59100  0.59100  Biso   1.000  O
  O262     1.0000 0.81500  0.40900  0.40900  Biso   1.000  O
  O263     1.0000 0.18500  0.40900  0.59100  Biso   1.000  O
  O264     1.0000 0.18500  0.59100  0.40900  Biso   1.000  O
  O265     1.0000 0.59100  0.81500  0.59100  Biso   1.000  O
  O266     1.0000 0.40900  0.81500  0.40900  Biso   1.000  O
  O267     1.0000 0.59100  0.18500  0.40900  Biso   1.000  O
  O268     1.0000 0.40900  0.18500  0.59100  Biso   1.000  O
  O269     1.0000 0.09100  0.09100  0.31500  Biso   1.000  O
  O270     1.0000 0.90900  0.90900  0.31500  Biso   1.000  O
  O271     1.0000 0.90900  0.09100  0.68500  Biso   1.000  O
  O272     1.0000 0.09100  0.90900  0.68500  Biso   1.000  O
  O273     1.0000 0.31500  0.09100  0.09100  Biso   1.000  O
  O274     1.0000 0.31500  0.90900  0.90900  Biso   1.000  O
  O275     1.0000 0.68500  0.90900  0.09100  Biso   1.000  O
  O276     1.0000 0.68500  0.09100  0.90900  Biso   1.000  O
  O277     1.0000 0.09100  0.31500  0.09100  Biso   1.000  O
  O278     1.0000 0.90900  0.31500  0.90900  Biso   1.000  O
  O279     1.0000 0.09100  0.68500  0.90900  Biso   1.000  O
  O280     1.0000 0.90900  0.68500  0.09100  Biso   1.000  O
  O281     1.0000 0.84500  0.15500  0.99000  Biso   1.000  O
  O282     1.0000 0.15500  0.84500  0.99000  Biso   1.000  O
  O283     1.0000 0.15500  0.15500  0.01000  Biso   1.000  O
  O284     1.0000 0.84500  0.84500  0.01000  Biso   1.000  O
  O285     1.0000 0.99000  0.84500  0.15500  Biso   1.000  O
  O286     1.0000 0.99000  0.15500  0.84500  Biso   1.000  O
  O287     1.0000 0.01000  0.15500  0.15500  Biso   1.000  O
  O288     1.0000 0.01000  0.84500  0.84500  Biso   1.000  O
  O289     1.0000 0.15500  0.99000  0.84500  Biso   1.000  O
  O290     1.0000 0.84500  0.99000  0.15500  Biso   1.000  O
  O291     1.0000 0.15500  0.01000  0.15500  Biso   1.000  O
  O292     1.0000 0.84500  0.01000  0.84500  Biso   1.000  O
  O293     1.0000 0.34500  0.65500  0.49000  Biso   1.000  O
  O294     1.0000 0.65500  0.34500  0.49000  Biso   1.000  O
  O295     1.0000 0.65500  0.65500  0.51000  Biso   1.000  O
  O296     1.0000 0.34500  0.34500  0.51000  Biso   1.000  O
  O297     1.0000 0.49000  0.34500  0.65500  Biso   1.000  O
  O298     1.0000 0.49000  0.65500  0.34500  Biso   1.000  O
  O299     1.0000 0.51000  0.65500  0.65500  Biso   1.000  O
  O300     1.0000 0.51000  0.34500  0.34500  Biso   1.000  O
  O301     1.0000 0.65500  0.49000  0.34500  Biso   1.000  O
  O302     1.0000 0.34500  0.49000  0.65500  Biso   1.000  O
  O303     1.0000 0.65500  0.51000  0.65500  Biso   1.000  O
  O304     1.0000 0.34500  0.51000  0.34500  Biso   1.000  O
  O305     1.0000 0.79390  0.20610  0.98520  Biso   1.000  O
  O306     1.0000 0.20610  0.79390  0.98520  Biso   1.000  O
  O307     1.0000 0.20610  0.20610  0.01480  Biso   1.000  O
  O308     1.0000 0.79390  0.79390  0.01480  Biso   1.000  O
  O309     1.0000 0.98520  0.79390  0.20610  Biso   1.000  O
  O310     1.0000 0.98520  0.20610  0.79390  Biso   1.000  O
  O311     1.0000 0.01480  0.20610  0.20610  Biso   1.000  O
  O312     1.0000 0.01480  0.79390  0.79390  Biso   1.000  O
  O313     1.0000 0.20610  0.98520  0.79390  Biso   1.000  O
  O314     1.0000 0.79390  0.98520  0.20610  Biso   1.000  O
  O315     1.0000 0.20610  0.01480  0.20610  Biso   1.000  O
  O316     1.0000 0.79390  0.01480  0.79390  Biso   1.000  O
  O317     1.0000 0.29390  0.70610  0.48520  Biso   1.000  O
  O318     1.0000 0.70610  0.29390  0.48520  Biso   1.000  O
  O319     1.0000 0.70610  0.70610  0.51480  Biso   1.000  O
  O320     1.0000 0.29390  0.29390  0.51480  Biso   1.000  O
  O321     1.0000 0.48520  0.29390  0.70610  Biso   1.000  O
  O322     1.0000 0.48520  0.70610  0.29390  Biso   1.000  O
  O323     1.0000 0.51480  0.70610  0.70610  Biso   1.000  O
  O324     1.0000 0.51480  0.29390  0.29390  Biso   1.000  O
  O325     1.0000 0.70610  0.48520  0.29390  Biso   1.000  O
  O326     1.0000 0.29390  0.48520  0.70610  Biso   1.000  O
  O327     1.0000 0.70610  0.51480  0.70610  Biso   1.000  O
  O328     1.0000 0.29390  0.51480  0.29390  Biso   1.000  O
