data_image0
_cell_length_a       34.922
_cell_length_b       8.79
_cell_length_c       33.245
_cell_angle_alpha    90
_cell_angle_beta     93.836
_cell_angle_gamma    90

_symmetry_space_group_name_H-M    "P 1"
_symmetry_int_tables_number       1

loop_
  _symmetry_equiv_pos_as_xyz
  'x, y, z'

loop_
  _atom_site_label
  _atom_site_occupancy
  _atom_site_fract_x
  _atom_site_fract_y
  _atom_site_fract_z
  _atom_site_thermal_displace_type
  _atom_site_B_iso_or_equiv
  _atom_site_type_symbol
  N1       1.0000 0.47105  0.33750  0.07510  Biso   1.000  N
  N2       1.0000 0.97105  0.83750  0.57510  Biso   1.000  N
  N3       1.0000 0.97105  0.66250  0.07510  Biso   1.000  N
  N4       1.0000 0.47105  0.16250  0.57510  Biso   1.000  N
  N5       1.0000 0.52895  0.66250  0.92490  Biso   1.000  N
  N6       1.0000 0.02895  0.16250  0.42490  Biso   1.000  N
  N7       1.0000 0.02895  0.33750  0.92490  Biso   1.000  N
  N8       1.0000 0.52895  0.83750  0.42490  Biso   1.000  N
  N9       1.0000 0.52469  0.31290  0.01610  Biso   1.000  N
  N10      1.0000 0.02469  0.81290  0.51610  Biso   1.000  N
  N11      1.0000 0.02469  0.68710  0.01610  Biso   1.000  N
  N12      1.0000 0.52469  0.18710  0.51610  Biso   1.000  N
  N13      1.0000 0.47531  0.68710  0.98390  Biso   1.000  N
  N14      1.0000 0.97531  0.18710  0.48390  Biso   1.000  N
  N15      1.0000 0.97531  0.31290  0.98390  Biso   1.000  N
  N16      1.0000 0.47531  0.81290  0.48390  Biso   1.000  N
  N17      1.0000 0.47076  0.15160  0.96650  Biso   1.000  N
  N18      1.0000 0.97076  0.65160  0.46650  Biso   1.000  N
  N19      1.0000 0.97076  0.84840  0.96650  Biso   1.000  N
  N20      1.0000 0.47076  0.34840  0.46650  Biso   1.000  N
  N21      1.0000 0.52924  0.84840  0.03350  Biso   1.000  N
  N22      1.0000 0.02924  0.34840  0.53350  Biso   1.000  N
  N23      1.0000 0.02924  0.15160  0.03350  Biso   1.000  N
  N24      1.0000 0.52924  0.65160  0.53350  Biso   1.000  N
  N25      1.0000 0.41473  0.20910  0.02150  Biso   1.000  N
  N26      1.0000 0.91473  0.70910  0.52150  Biso   1.000  N
  N27      1.0000 0.91473  0.79090  0.02150  Biso   1.000  N
  N28      1.0000 0.41473  0.29090  0.52150  Biso   1.000  N
  N29      1.0000 0.58527  0.79090  0.97850  Biso   1.000  N
  N30      1.0000 0.08527  0.29090  0.47850  Biso   1.000  N
  N31      1.0000 0.08527  0.20910  0.97850  Biso   1.000  N
  N32      1.0000 0.58527  0.70910  0.47850  Biso   1.000  N
  C1       1.0000 0.39110  0.25150  0.05060  Biso   1.000  C
  C2       1.0000 0.89110  0.75150  0.55060  Biso   1.000  C
  C3       1.0000 0.89110  0.74850  0.05060  Biso   1.000  C
  C4       1.0000 0.39110  0.24850  0.55060  Biso   1.000  C
  C5       1.0000 0.60890  0.74850  0.94940  Biso   1.000  C
  C6       1.0000 0.10890  0.24850  0.44940  Biso   1.000  C
  C7       1.0000 0.10890  0.25150  0.94940  Biso   1.000  C
  C8       1.0000 0.60890  0.75150  0.44940  Biso   1.000  C
  C9       1.0000 0.40260  0.31170  0.08830  Biso   1.000  C
  C10      1.0000 0.90260  0.81170  0.58830  Biso   1.000  C
  C11      1.0000 0.90260  0.68830  0.08830  Biso   1.000  C
  C12      1.0000 0.40260  0.18830  0.58830  Biso   1.000  C
  C13      1.0000 0.59740  0.68830  0.91170  Biso   1.000  C
  C14      1.0000 0.09740  0.18830  0.41170  Biso   1.000  C
  C15      1.0000 0.09740  0.31170  0.91170  Biso   1.000  C
  C16      1.0000 0.59740  0.81170  0.41170  Biso   1.000  C
  C17      1.0000 0.44080  0.34180  0.10010  Biso   1.000  C
  C18      1.0000 0.94080  0.84180  0.60010  Biso   1.000  C
  C19      1.0000 0.94080  0.65820  0.10010  Biso   1.000  C
  C20      1.0000 0.44080  0.15820  0.60010  Biso   1.000  C
  C21      1.0000 0.55920  0.65820  0.89990  Biso   1.000  C
  C22      1.0000 0.05920  0.15820  0.39990  Biso   1.000  C
  C23      1.0000 0.05920  0.34180  0.89990  Biso   1.000  C
  C24      1.0000 0.55920  0.84180  0.39990  Biso   1.000  C
  C25      1.0000 0.45420  0.39260  0.13980  Biso   1.000  C
  C26      1.0000 0.95420  0.89260  0.63980  Biso   1.000  C
  C27      1.0000 0.95420  0.60740  0.13980  Biso   1.000  C
  C28      1.0000 0.45420  0.10740  0.63980  Biso   1.000  C
  C29      1.0000 0.54580  0.60740  0.86020  Biso   1.000  C
  C30      1.0000 0.04580  0.10740  0.36020  Biso   1.000  C
  C31      1.0000 0.04580  0.39260  0.86020  Biso   1.000  C
  C32      1.0000 0.54580  0.89260  0.36020  Biso   1.000  C
  H1       1.0000 0.43950  0.40470  0.16190  Biso   1.000  H
  H2       1.0000 0.93950  0.90470  0.66190  Biso   1.000  H
  H3       1.0000 0.93950  0.59530  0.16190  Biso   1.000  H
  H4       1.0000 0.43950  0.09530  0.66190  Biso   1.000  H
  H5       1.0000 0.56050  0.59530  0.83810  Biso   1.000  H
  H6       1.0000 0.06050  0.09530  0.33810  Biso   1.000  H
  H7       1.0000 0.06050  0.40470  0.83810  Biso   1.000  H
  H8       1.0000 0.56050  0.90470  0.33810  Biso   1.000  H
  C33      1.0000 0.49210  0.41920  0.13860  Biso   1.000  C
  C34      1.0000 0.99210  0.91920  0.63860  Biso   1.000  C
  C35      1.0000 0.99210  0.58080  0.13860  Biso   1.000  C
  C36      1.0000 0.49210  0.08080  0.63860  Biso   1.000  C
  C37      1.0000 0.50790  0.58080  0.86140  Biso   1.000  C
  C38      1.0000 0.00790  0.08080  0.36140  Biso   1.000  C
  C39      1.0000 0.00790  0.41920  0.86140  Biso   1.000  C
  C40      1.0000 0.50790  0.91920  0.36140  Biso   1.000  C
  H9       1.0000 0.50870  0.45040  0.16010  Biso   1.000  H
  H10      1.0000 0.00870  0.95040  0.66010  Biso   1.000  H
  H11      1.0000 0.00870  0.54960  0.16010  Biso   1.000  H
  H12      1.0000 0.50870  0.04960  0.66010  Biso   1.000  H
  H13      1.0000 0.49130  0.54960  0.83990  Biso   1.000  H
  H14      1.0000 0.99130  0.04960  0.33990  Biso   1.000  H
  H15      1.0000 0.99130  0.45040  0.83990  Biso   1.000  H
  H16      1.0000 0.49130  0.95040  0.33990  Biso   1.000  H
  C41      1.0000 0.50250  0.39060  0.09810  Biso   1.000  C
  C42      1.0000 0.00250  0.89060  0.59810  Biso   1.000  C
  C43      1.0000 0.00250  0.60940  0.09810  Biso   1.000  C
  C44      1.0000 0.50250  0.10940  0.59810  Biso   1.000  C
  C45      1.0000 0.49750  0.60940  0.90190  Biso   1.000  C
  C46      1.0000 0.99750  0.10940  0.40190  Biso   1.000  C
  C47      1.0000 0.99750  0.39060  0.90190  Biso   1.000  C
  C48      1.0000 0.49750  0.89060  0.40190  Biso   1.000  C
  C49      1.0000 0.53750  0.42060  0.08420  Biso   1.000  C
  C50      1.0000 0.03750  0.92060  0.58420  Biso   1.000  C
  C51      1.0000 0.03750  0.57940  0.08420  Biso   1.000  C
  C52      1.0000 0.53750  0.07940  0.58420  Biso   1.000  C
  C53      1.0000 0.46250  0.57940  0.91580  Biso   1.000  C
  C54      1.0000 0.96250  0.07940  0.41580  Biso   1.000  C
  C55      1.0000 0.96250  0.42060  0.91580  Biso   1.000  C
  C56      1.0000 0.46250  0.92060  0.41580  Biso   1.000  C
  C57      1.0000 0.54690  0.39350  0.04470  Biso   1.000  C
  C58      1.0000 0.04690  0.89350  0.54470  Biso   1.000  C
  C59      1.0000 0.04690  0.60650  0.04470  Biso   1.000  C
  C60      1.0000 0.54690  0.10650  0.54470  Biso   1.000  C
  C61      1.0000 0.45310  0.60650  0.95530  Biso   1.000  C
  C62      1.0000 0.95310  0.10650  0.45530  Biso   1.000  C
  C63      1.0000 0.95310  0.39350  0.95530  Biso   1.000  C
  C64      1.0000 0.45310  0.89350  0.45530  Biso   1.000  C
  C65      1.0000 0.58220  0.44000  0.02790  Biso   1.000  C
  C66      1.0000 0.08220  0.94000  0.52790  Biso   1.000  C
  C67      1.0000 0.08220  0.56000  0.02790  Biso   1.000  C
  C68      1.0000 0.58220  0.06000  0.52790  Biso   1.000  C
  C69      1.0000 0.41780  0.56000  0.97210  Biso   1.000  C
  C70      1.0000 0.91780  0.06000  0.47210  Biso   1.000  C
  C71      1.0000 0.91780  0.44000  0.97210  Biso   1.000  C
  C72      1.0000 0.41780  0.94000  0.47210  Biso   1.000  C
  H17      1.0000 0.60170  0.49680  0.04090  Biso   1.000  H
  H18      1.0000 0.10170  0.99680  0.54090  Biso   1.000  H
  H19      1.0000 0.10170  0.50320  0.04090  Biso   1.000  H
  H20      1.0000 0.60170  0.00320  0.54090  Biso   1.000  H
  H21      1.0000 0.39830  0.50320  0.95910  Biso   1.000  H
  H22      1.0000 0.89830  0.00320  0.45910  Biso   1.000  H
  H23      1.0000 0.89830  0.49680  0.95910  Biso   1.000  H
  H24      1.0000 0.39830  0.99680  0.45910  Biso   1.000  H
  C73      1.0000 0.58170  0.38640  0.99000  Biso   1.000  C
  C74      1.0000 0.08170  0.88640  0.49000  Biso   1.000  C
  C75      1.0000 0.08170  0.61360  0.99000  Biso   1.000  C
  C76      1.0000 0.58170  0.11360  0.49000  Biso   1.000  C
  C77      1.0000 0.41830  0.61360  0.01000  Biso   1.000  C
  C78      1.0000 0.91830  0.11360  0.51000  Biso   1.000  C
  C79      1.0000 0.91830  0.38640  0.01000  Biso   1.000  C
  C80      1.0000 0.41830  0.88640  0.51000  Biso   1.000  C
  H25      1.0000 0.60020  0.40180  0.97160  Biso   1.000  H
  H26      1.0000 0.10020  0.90180  0.47160  Biso   1.000  H
  H27      1.0000 0.10020  0.59820  0.97160  Biso   1.000  H
  H28      1.0000 0.60020  0.09820  0.47160  Biso   1.000  H
  H29      1.0000 0.39980  0.59820  0.02840  Biso   1.000  H
  H30      1.0000 0.89980  0.09820  0.52840  Biso   1.000  H
  H31      1.0000 0.89980  0.40180  0.02840  Biso   1.000  H
  H32      1.0000 0.39980  0.90180  0.52840  Biso   1.000  H
  C81      1.0000 0.54660  0.30040  0.98340  Biso   1.000  C
  C82      1.0000 0.04660  0.80040  0.48340  Biso   1.000  C
  C83      1.0000 0.04660  0.69960  0.98340  Biso   1.000  C
  C84      1.0000 0.54660  0.19960  0.48340  Biso   1.000  C
  C85      1.0000 0.45340  0.69960  0.01660  Biso   1.000  C
  C86      1.0000 0.95340  0.19960  0.51660  Biso   1.000  C
  C87      1.0000 0.95340  0.30040  0.01660  Biso   1.000  C
  C88      1.0000 0.45340  0.80040  0.51660  Biso   1.000  C
  C89      1.0000 0.53710  0.20960  0.94960  Biso   1.000  C
  C90      1.0000 0.03710  0.70960  0.44960  Biso   1.000  C
  C91      1.0000 0.03710  0.79040  0.94960  Biso   1.000  C
  C92      1.0000 0.53710  0.29040  0.44960  Biso   1.000  C
  C93      1.0000 0.46290  0.79040  0.05040  Biso   1.000  C
  C94      1.0000 0.96290  0.29040  0.55040  Biso   1.000  C
  C95      1.0000 0.96290  0.20960  0.05040  Biso   1.000  C
  C96      1.0000 0.46290  0.70960  0.55040  Biso   1.000  C
  C97      1.0000 0.50220  0.13340  0.94350  Biso   1.000  C
  C98      1.0000 0.00220  0.63340  0.44350  Biso   1.000  C
  C99      1.0000 0.00220  0.86660  0.94350  Biso   1.000  C
  C100     1.0000 0.50220  0.36660  0.44350  Biso   1.000  C
  C101     1.0000 0.49780  0.86660  0.05650  Biso   1.000  C
  C102     1.0000 0.99780  0.36660  0.55650  Biso   1.000  C
  C103     1.0000 0.99780  0.13340  0.05650  Biso   1.000  C
  C104     1.0000 0.49780  0.63340  0.55650  Biso   1.000  C
  C105     1.0000 0.49220  0.02950  0.91110  Biso   1.000  C
  C106     1.0000 0.99220  0.52950  0.41110  Biso   1.000  C
  C107     1.0000 0.99220  0.97050  0.91110  Biso   1.000  C
  C108     1.0000 0.49220  0.47050  0.41110  Biso   1.000  C
  C109     1.0000 0.50780  0.97050  0.08890  Biso   1.000  C
  C110     1.0000 0.00780  0.47050  0.58890  Biso   1.000  C
  C111     1.0000 0.00780  0.02950  0.08890  Biso   1.000  C
  C112     1.0000 0.50780  0.52950  0.58890  Biso   1.000  C
  H33      1.0000 0.50850  0.99630  0.89190  Biso   1.000  H
  H34      1.0000 0.00850  0.49630  0.39190  Biso   1.000  H
  H35      1.0000 0.00850  0.00370  0.89190  Biso   1.000  H
  H36      1.0000 0.50850  0.50370  0.39190  Biso   1.000  H
  H37      1.0000 0.49150  0.00370  0.10810  Biso   1.000  H
  H38      1.0000 0.99150  0.50370  0.60810  Biso   1.000  H
  H39      1.0000 0.99150  0.99630  0.10810  Biso   1.000  H
  H40      1.0000 0.49150  0.49630  0.60810  Biso   1.000  H
  C113     1.0000 0.45560  0.98890  0.91330  Biso   1.000  C
  C114     1.0000 0.95560  0.48890  0.41330  Biso   1.000  C
  C115     1.0000 0.95560  0.01110  0.91330  Biso   1.000  C
  C116     1.0000 0.45560  0.51110  0.41330  Biso   1.000  C
  C117     1.0000 0.54440  0.01110  0.08670  Biso   1.000  C
  C118     1.0000 0.04440  0.51110  0.58670  Biso   1.000  C
  C119     1.0000 0.04440  0.98890  0.08670  Biso   1.000  C
  C120     1.0000 0.54440  0.48890  0.58670  Biso   1.000  C
  H41      1.0000 0.44190  0.92160  0.89620  Biso   1.000  H
  H42      1.0000 0.94190  0.42160  0.39620  Biso   1.000  H
  H43      1.0000 0.94190  0.07840  0.89620  Biso   1.000  H
  H44      1.0000 0.44190  0.57840  0.39620  Biso   1.000  H
  H45      1.0000 0.55810  0.07840  0.10380  Biso   1.000  H
  H46      1.0000 0.05810  0.57840  0.60380  Biso   1.000  H
  H47      1.0000 0.05810  0.92160  0.10380  Biso   1.000  H
  H48      1.0000 0.55810  0.42160  0.60380  Biso   1.000  H
  C121     1.0000 0.44120  0.06900  0.94700  Biso   1.000  C
  C122     1.0000 0.94120  0.56900  0.44700  Biso   1.000  C
  C123     1.0000 0.94120  0.93100  0.94700  Biso   1.000  C
  C124     1.0000 0.44120  0.43100  0.44700  Biso   1.000  C
  C125     1.0000 0.55880  0.93100  0.05300  Biso   1.000  C
  C126     1.0000 0.05880  0.43100  0.55300  Biso   1.000  C
  C127     1.0000 0.05880  0.06900  0.05300  Biso   1.000  C
  C128     1.0000 0.55880  0.56900  0.55300  Biso   1.000  C
  C129     1.0000 0.40380  0.06700  0.95790  Biso   1.000  C
  C130     1.0000 0.90380  0.56700  0.45790  Biso   1.000  C
  C131     1.0000 0.90380  0.93300  0.95790  Biso   1.000  C
  C132     1.0000 0.40380  0.43300  0.45790  Biso   1.000  C
  C133     1.0000 0.59620  0.93300  0.04210  Biso   1.000  C
  C134     1.0000 0.09620  0.43300  0.54210  Biso   1.000  C
  C135     1.0000 0.09620  0.06700  0.04210  Biso   1.000  C
  C136     1.0000 0.59620  0.56700  0.54210  Biso   1.000  C
  C137     1.0000 0.39150  0.13880  0.99180  Biso   1.000  C
  C138     1.0000 0.89150  0.63880  0.49180  Biso   1.000  C
  C139     1.0000 0.89150  0.86120  0.99180  Biso   1.000  C
  C140     1.0000 0.39150  0.36120  0.49180  Biso   1.000  C
  C141     1.0000 0.60850  0.86120  0.00820  Biso   1.000  C
  C142     1.0000 0.10850  0.36120  0.50820  Biso   1.000  C
  C143     1.0000 0.10850  0.13880  0.00820  Biso   1.000  C
  C144     1.0000 0.60850  0.63880  0.50820  Biso   1.000  C
  C145     1.0000 0.35180  0.14490  0.00240  Biso   1.000  C
  C146     1.0000 0.85180  0.64490  0.50240  Biso   1.000  C
  C147     1.0000 0.85180  0.85510  0.00240  Biso   1.000  C
  C148     1.0000 0.35180  0.35510  0.50240  Biso   1.000  C
  C149     1.0000 0.64820  0.85510  0.99760  Biso   1.000  C
  C150     1.0000 0.14820  0.35510  0.49760  Biso   1.000  C
  C151     1.0000 0.14820  0.14490  0.99760  Biso   1.000  C
  C152     1.0000 0.64820  0.64490  0.49760  Biso   1.000  C
  H49      1.0000 0.33070  0.10800  0.98690  Biso   1.000  H
  H50      1.0000 0.83070  0.60800  0.48690  Biso   1.000  H
  H51      1.0000 0.83070  0.89200  0.98690  Biso   1.000  H
  H52      1.0000 0.33070  0.39200  0.48690  Biso   1.000  H
  H53      1.0000 0.66930  0.89200  0.01310  Biso   1.000  H
  H54      1.0000 0.16930  0.39200  0.51310  Biso   1.000  H
  H55      1.0000 0.16930  0.10800  0.01310  Biso   1.000  H
  H56      1.0000 0.66930  0.60800  0.51310  Biso   1.000  H
  C153     1.0000 0.35130  0.21280  0.03820  Biso   1.000  C
  C154     1.0000 0.85130  0.71280  0.53820  Biso   1.000  C
  C155     1.0000 0.85130  0.78720  0.03820  Biso   1.000  C
  C156     1.0000 0.35130  0.28720  0.53820  Biso   1.000  C
  C157     1.0000 0.64870  0.78720  0.96180  Biso   1.000  C
  C158     1.0000 0.14870  0.28720  0.46180  Biso   1.000  C
  C159     1.0000 0.14870  0.21280  0.96180  Biso   1.000  C
  C160     1.0000 0.64870  0.71280  0.46180  Biso   1.000  C
  H57      1.0000 0.32980  0.23190  0.05250  Biso   1.000  H
  H58      1.0000 0.82980  0.73190  0.55250  Biso   1.000  H
  H59      1.0000 0.82980  0.76810  0.05250  Biso   1.000  H
  H60      1.0000 0.32980  0.26810  0.55250  Biso   1.000  H
  H61      1.0000 0.67020  0.76810  0.94750  Biso   1.000  H
  H62      1.0000 0.17020  0.26810  0.44750  Biso   1.000  H
  H63      1.0000 0.17020  0.23190  0.94750  Biso   1.000  H
  H64      1.0000 0.67020  0.73190  0.44750  Biso   1.000  H
  C161     1.0000 0.37330  0.34000  0.11770  Biso   1.000  C
  C162     1.0000 0.87330  0.84000  0.61770  Biso   1.000  C
  C163     1.0000 0.87330  0.66000  0.11770  Biso   1.000  C
  C164     1.0000 0.37330  0.16000  0.61770  Biso   1.000  C
  C165     1.0000 0.62670  0.66000  0.88230  Biso   1.000  C
  C166     1.0000 0.12670  0.16000  0.38230  Biso   1.000  C
  C167     1.0000 0.12670  0.34000  0.88230  Biso   1.000  C
  C168     1.0000 0.62670  0.84000  0.38230  Biso   1.000  C
  C169     1.0000 0.34770  0.46250  0.11290  Biso   1.000  C
  C170     1.0000 0.84770  0.96250  0.61290  Biso   1.000  C
  C171     1.0000 0.84770  0.53750  0.11290  Biso   1.000  C
  C172     1.0000 0.34770  0.03750  0.61290  Biso   1.000  C
  C173     1.0000 0.65230  0.53750  0.88710  Biso   1.000  C
  C174     1.0000 0.15230  0.03750  0.38710  Biso   1.000  C
  C175     1.0000 0.15230  0.46250  0.88710  Biso   1.000  C
  C176     1.0000 0.65230  0.96250  0.38710  Biso   1.000  C
  H65      1.0000 0.34890  0.52610  0.09070  Biso   1.000  H
  H66      1.0000 0.84890  0.02610  0.59070  Biso   1.000  H
  H67      1.0000 0.84890  0.47390  0.09070  Biso   1.000  H
  H68      1.0000 0.34890  0.97390  0.59070  Biso   1.000  H
  H69      1.0000 0.65110  0.47390  0.90930  Biso   1.000  H
  H70      1.0000 0.15110  0.97390  0.40930  Biso   1.000  H
  H71      1.0000 0.15110  0.52610  0.90930  Biso   1.000  H
  H72      1.0000 0.65110  0.02610  0.40930  Biso   1.000  H
  C177     1.0000 0.32050  0.49090  0.14080  Biso   1.000  C
  C178     1.0000 0.82050  0.99090  0.64080  Biso   1.000  C
  C179     1.0000 0.82050  0.50910  0.14080  Biso   1.000  C
  C180     1.0000 0.32050  0.00910  0.64080  Biso   1.000  C
  C181     1.0000 0.67950  0.50910  0.85920  Biso   1.000  C
  C182     1.0000 0.17950  0.00910  0.35920  Biso   1.000  C
  C183     1.0000 0.17950  0.49090  0.85920  Biso   1.000  C
  C184     1.0000 0.67950  0.99090  0.35920  Biso   1.000  C
  H73      1.0000 0.30350  0.57170  0.13680  Biso   1.000  H
  H74      1.0000 0.80350  0.07170  0.63680  Biso   1.000  H
  H75      1.0000 0.80350  0.42830  0.13680  Biso   1.000  H
  H76      1.0000 0.30350  0.92830  0.63680  Biso   1.000  H
  H77      1.0000 0.69650  0.42830  0.86320  Biso   1.000  H
  H78      1.0000 0.19650  0.92830  0.36320  Biso   1.000  H
  H79      1.0000 0.19650  0.57170  0.86320  Biso   1.000  H
  H80      1.0000 0.69650  0.07170  0.36320  Biso   1.000  H
  C185     1.0000 0.31890  0.39920  0.17400  Biso   1.000  C
  C186     1.0000 0.81890  0.89920  0.67400  Biso   1.000  C
  C187     1.0000 0.81890  0.60080  0.17400  Biso   1.000  C
  C188     1.0000 0.31890  0.10080  0.67400  Biso   1.000  C
  C189     1.0000 0.68110  0.60080  0.82600  Biso   1.000  C
  C190     1.0000 0.18110  0.10080  0.32600  Biso   1.000  C
  C191     1.0000 0.18110  0.39920  0.82600  Biso   1.000  C
  C192     1.0000 0.68110  0.89920  0.32600  Biso   1.000  C
  C193     1.0000 0.34400  0.27540  0.17910  Biso   1.000  C
  C194     1.0000 0.84400  0.77540  0.67910  Biso   1.000  C
  C195     1.0000 0.84400  0.72460  0.17910  Biso   1.000  C
  C196     1.0000 0.34400  0.22460  0.67910  Biso   1.000  C
  C197     1.0000 0.65600  0.72460  0.82090  Biso   1.000  C
  C198     1.0000 0.15600  0.22460  0.32090  Biso   1.000  C
  C199     1.0000 0.15600  0.27540  0.82090  Biso   1.000  C
  C200     1.0000 0.65600  0.77540  0.32090  Biso   1.000  C
  H81      1.0000 0.34270  0.21200  0.20140  Biso   1.000  H
  H82      1.0000 0.84270  0.71200  0.70140  Biso   1.000  H
  H83      1.0000 0.84270  0.78800  0.20140  Biso   1.000  H
  H84      1.0000 0.34270  0.28800  0.70140  Biso   1.000  H
  H85      1.0000 0.65730  0.78800  0.79860  Biso   1.000  H
  H86      1.0000 0.15730  0.28800  0.29860  Biso   1.000  H
  H87      1.0000 0.15730  0.21200  0.79860  Biso   1.000  H
  H88      1.0000 0.65730  0.71200  0.29860  Biso   1.000  H
  C201     1.0000 0.37070  0.24750  0.15120  Biso   1.000  C
  C202     1.0000 0.87070  0.74750  0.65120  Biso   1.000  C
  C203     1.0000 0.87070  0.75250  0.15120  Biso   1.000  C
  C204     1.0000 0.37070  0.25250  0.65120  Biso   1.000  C
  C205     1.0000 0.62930  0.75250  0.84880  Biso   1.000  C
  C206     1.0000 0.12930  0.25250  0.34880  Biso   1.000  C
  C207     1.0000 0.12930  0.24750  0.84880  Biso   1.000  C
  C208     1.0000 0.62930  0.74750  0.34880  Biso   1.000  C
  H89      1.0000 0.38720  0.16510  0.15500  Biso   1.000  H
  H90      1.0000 0.88720  0.66510  0.65500  Biso   1.000  H
  H91      1.0000 0.88720  0.83490  0.15500  Biso   1.000  H
  H92      1.0000 0.38720  0.33490  0.65500  Biso   1.000  H
  H93      1.0000 0.61280  0.83490  0.84500  Biso   1.000  H
  H94      1.0000 0.11280  0.33490  0.34500  Biso   1.000  H
  H95      1.0000 0.11280  0.16510  0.84500  Biso   1.000  H
  H96      1.0000 0.61280  0.66510  0.34500  Biso   1.000  H
  C209     1.0000 0.29030  0.43120  0.20480  Biso   1.000  C
  C210     1.0000 0.79030  0.93120  0.70480  Biso   1.000  C
  C211     1.0000 0.79030  0.56880  0.20480  Biso   1.000  C
  C212     1.0000 0.29030  0.06880  0.70480  Biso   1.000  C
  C213     1.0000 0.70970  0.56880  0.79520  Biso   1.000  C
  C214     1.0000 0.20970  0.06880  0.29520  Biso   1.000  C
  C215     1.0000 0.20970  0.43120  0.79520  Biso   1.000  C
  C216     1.0000 0.70970  0.93120  0.29520  Biso   1.000  C
  O1       1.0000 0.26562  0.53180  0.19762  Biso   1.000  O
  O2       1.0000 0.76562  0.03180  0.69762  Biso   1.000  O
  O3       1.0000 0.76562  0.46820  0.19762  Biso   1.000  O
  O4       1.0000 0.26562  0.96820  0.69762  Biso   1.000  O
  O5       1.0000 0.73438  0.46820  0.80238  Biso   1.000  O
  O6       1.0000 0.23438  0.96820  0.30238  Biso   1.000  O
  O7       1.0000 0.23438  0.53180  0.80238  Biso   1.000  O
  O8       1.0000 0.73438  0.03180  0.30238  Biso   1.000  O
  O9       1.0000 0.29193  0.35200  0.23665  Biso   1.000  O
  O10      1.0000 0.79193  0.85200  0.73665  Biso   1.000  O
  O11      1.0000 0.79193  0.64800  0.23665  Biso   1.000  O
  O12      1.0000 0.29193  0.14800  0.73665  Biso   1.000  O
  O13      1.0000 0.70807  0.64800  0.76335  Biso   1.000  O
  O14      1.0000 0.20807  0.14800  0.26335  Biso   1.000  O
  O15      1.0000 0.20807  0.35200  0.76335  Biso   1.000  O
  O16      1.0000 0.70807  0.85200  0.26335  Biso   1.000  O
  C217     1.0000 0.56800  0.48440  0.11400  Biso   1.000  C
  C218     1.0000 0.06800  0.98440  0.61400  Biso   1.000  C
  C219     1.0000 0.06800  0.51560  0.11400  Biso   1.000  C
  C220     1.0000 0.56800  0.01560  0.61400  Biso   1.000  C
  C221     1.0000 0.43200  0.51560  0.88600  Biso   1.000  C
  C222     1.0000 0.93200  0.01560  0.38600  Biso   1.000  C
  C223     1.0000 0.93200  0.48440  0.88600  Biso   1.000  C
  C224     1.0000 0.43200  0.98440  0.38600  Biso   1.000  C
  C225     1.0000 0.56540  0.62840  0.12920  Biso   1.000  C
  C226     1.0000 0.06540  0.12840  0.62920  Biso   1.000  C
  C227     1.0000 0.06540  0.37160  0.12920  Biso   1.000  C
  C228     1.0000 0.56540  0.87160  0.62920  Biso   1.000  C
  C229     1.0000 0.43460  0.37160  0.87080  Biso   1.000  C
  C230     1.0000 0.93460  0.87160  0.37080  Biso   1.000  C
  C231     1.0000 0.93460  0.62840  0.87080  Biso   1.000  C
  C232     1.0000 0.43460  0.12840  0.37080  Biso   1.000  C
  H97      1.0000 0.54570  0.69240  0.11940  Biso   1.000  H
  H98      1.0000 0.04570  0.19240  0.61940  Biso   1.000  H
  H99      1.0000 0.04570  0.30760  0.11940  Biso   1.000  H
  H100     1.0000 0.54570  0.80760  0.61940  Biso   1.000  H
  H101     1.0000 0.45430  0.30760  0.88060  Biso   1.000  H
  H102     1.0000 0.95430  0.80760  0.38060  Biso   1.000  H
  H103     1.0000 0.95430  0.69240  0.88060  Biso   1.000  H
  H104     1.0000 0.45430  0.19240  0.38060  Biso   1.000  H
  C233     1.0000 0.59190  0.67970  0.15900  Biso   1.000  C
  C234     1.0000 0.09190  0.17970  0.65900  Biso   1.000  C
  C235     1.0000 0.09190  0.32030  0.15900  Biso   1.000  C
  C236     1.0000 0.59190  0.82030  0.65900  Biso   1.000  C
  C237     1.0000 0.40810  0.32030  0.84100  Biso   1.000  C
  C238     1.0000 0.90810  0.82030  0.34100  Biso   1.000  C
  C239     1.0000 0.90810  0.67970  0.84100  Biso   1.000  C
  C240     1.0000 0.40810  0.17970  0.34100  Biso   1.000  C
  H105     1.0000 0.58990  0.77790  0.16910  Biso   1.000  H
  H106     1.0000 0.08990  0.27790  0.66910  Biso   1.000  H
  H107     1.0000 0.08990  0.22210  0.16910  Biso   1.000  H
  H108     1.0000 0.58990  0.72210  0.66910  Biso   1.000  H
  H109     1.0000 0.41010  0.22210  0.83090  Biso   1.000  H
  H110     1.0000 0.91010  0.72210  0.33090  Biso   1.000  H
  H111     1.0000 0.91010  0.77790  0.83090  Biso   1.000  H
  H112     1.0000 0.41010  0.27790  0.33090  Biso   1.000  H
  C241     1.0000 0.62110  0.58630  0.17380  Biso   1.000  C
  C242     1.0000 0.12110  0.08630  0.67380  Biso   1.000  C
  C243     1.0000 0.12110  0.41370  0.17380  Biso   1.000  C
  C244     1.0000 0.62110  0.91370  0.67380  Biso   1.000  C
  C245     1.0000 0.37890  0.41370  0.82620  Biso   1.000  C
  C246     1.0000 0.87890  0.91370  0.32620  Biso   1.000  C
  C247     1.0000 0.87890  0.58630  0.82620  Biso   1.000  C
  C248     1.0000 0.37890  0.08630  0.32620  Biso   1.000  C
  C249     1.0000 0.62390  0.44150  0.15900  Biso   1.000  C
  C250     1.0000 0.12390  0.94150  0.65900  Biso   1.000  C
  C251     1.0000 0.12390  0.55850  0.15900  Biso   1.000  C
  C252     1.0000 0.62390  0.05850  0.65900  Biso   1.000  C
  C253     1.0000 0.37610  0.55850  0.84100  Biso   1.000  C
  C254     1.0000 0.87610  0.05850  0.34100  Biso   1.000  C
  C255     1.0000 0.87610  0.44150  0.84100  Biso   1.000  C
  C256     1.0000 0.37610  0.94150  0.34100  Biso   1.000  C
  H113     1.0000 0.64330  0.37720  0.16940  Biso   1.000  H
  H114     1.0000 0.14330  0.87720  0.66940  Biso   1.000  H
  H115     1.0000 0.14330  0.62280  0.16940  Biso   1.000  H
  H116     1.0000 0.64330  0.12280  0.66940  Biso   1.000  H
  H117     1.0000 0.35670  0.62280  0.83060  Biso   1.000  H
  H118     1.0000 0.85670  0.12280  0.33060  Biso   1.000  H
  H119     1.0000 0.85670  0.37720  0.83060  Biso   1.000  H
  H120     1.0000 0.35670  0.87720  0.33060  Biso   1.000  H
  C257     1.0000 0.59780  0.39060  0.12860  Biso   1.000  C
  C258     1.0000 0.09780  0.89060  0.62860  Biso   1.000  C
  C259     1.0000 0.09780  0.60940  0.12860  Biso   1.000  C
  C260     1.0000 0.59780  0.10940  0.62860  Biso   1.000  C
  C261     1.0000 0.40220  0.60940  0.87140  Biso   1.000  C
  C262     1.0000 0.90220  0.10940  0.37140  Biso   1.000  C
  C263     1.0000 0.90220  0.39060  0.87140  Biso   1.000  C
  C264     1.0000 0.40220  0.89060  0.37140  Biso   1.000  C
  H121     1.0000 0.60020  0.29340  0.11800  Biso   1.000  H
  H122     1.0000 0.10020  0.79340  0.61800  Biso   1.000  H
  H123     1.0000 0.10020  0.70660  0.11800  Biso   1.000  H
  H124     1.0000 0.60020  0.20660  0.61800  Biso   1.000  H
  H125     1.0000 0.39980  0.70660  0.88200  Biso   1.000  H
  H126     1.0000 0.89980  0.20660  0.38200  Biso   1.000  H
  H127     1.0000 0.89980  0.29340  0.88200  Biso   1.000  H
  H128     1.0000 0.39980  0.79340  0.38200  Biso   1.000  H
  C265     1.0000 0.64990  0.63710  0.20620  Biso   1.000  C
  C266     1.0000 0.14990  0.13710  0.70620  Biso   1.000  C
  C267     1.0000 0.14990  0.36290  0.20620  Biso   1.000  C
  C268     1.0000 0.64990  0.86290  0.70620  Biso   1.000  C
  C269     1.0000 0.35010  0.36290  0.79380  Biso   1.000  C
  C270     1.0000 0.85010  0.86290  0.29380  Biso   1.000  C
  C271     1.0000 0.85010  0.63710  0.79380  Biso   1.000  C
  C272     1.0000 0.35010  0.13710  0.29380  Biso   1.000  C
  O17      1.0000 0.67140  0.54920  0.22480  Biso   1.000  O
  O18      1.0000 0.17140  0.04920  0.72480  Biso   1.000  O
  O19      1.0000 0.17140  0.45080  0.22480  Biso   1.000  O
  O20      1.0000 0.67140  0.95080  0.72480  Biso   1.000  O
  O21      1.0000 0.32860  0.45080  0.77520  Biso   1.000  O
  O22      1.0000 0.82860  0.95080  0.27520  Biso   1.000  O
  O23      1.0000 0.82860  0.54920  0.77520  Biso   1.000  O
  O24      1.0000 0.32860  0.04920  0.27520  Biso   1.000  O
  O25      1.0000 0.64960  0.78250  0.21310  Biso   1.000  O
  O26      1.0000 0.14960  0.28250  0.71310  Biso   1.000  O
  O27      1.0000 0.14960  0.21750  0.21310  Biso   1.000  O
  O28      1.0000 0.64960  0.71750  0.71310  Biso   1.000  O
  O29      1.0000 0.35040  0.21750  0.78690  Biso   1.000  O
  O30      1.0000 0.85040  0.71750  0.28690  Biso   1.000  O
  O31      1.0000 0.85040  0.78250  0.78690  Biso   1.000  O
  O32      1.0000 0.35040  0.28250  0.28690  Biso   1.000  O
  H129     1.0000 0.66100  0.79400  0.22600  Biso   1.000  H
  H130     1.0000 0.16100  0.29400  0.72600  Biso   1.000  H
  H131     1.0000 0.16100  0.20600  0.22600  Biso   1.000  H
  H132     1.0000 0.66100  0.70600  0.72600  Biso   1.000  H
  H133     1.0000 0.33900  0.20600  0.77400  Biso   1.000  H
  H134     1.0000 0.83900  0.70600  0.27400  Biso   1.000  H
  H135     1.0000 0.83900  0.79400  0.77400  Biso   1.000  H
  H136     1.0000 0.33900  0.29400  0.27400  Biso   1.000  H
  C273     1.0000 0.56620  0.18990  0.91900  Biso   1.000  C
  C274     1.0000 0.06620  0.68990  0.41900  Biso   1.000  C
  C275     1.0000 0.06620  0.81010  0.91900  Biso   1.000  C
  C276     1.0000 0.56620  0.31010  0.41900  Biso   1.000  C
  C277     1.0000 0.43380  0.81010  0.08100  Biso   1.000  C
  C278     1.0000 0.93380  0.31010  0.58100  Biso   1.000  C
  C279     1.0000 0.93380  0.18990  0.08100  Biso   1.000  C
  C280     1.0000 0.43380  0.68990  0.58100  Biso   1.000  C
  C281     1.0000 0.60240  0.13160  0.92940  Biso   1.000  C
  C282     1.0000 0.10240  0.63160  0.42940  Biso   1.000  C
  C283     1.0000 0.10240  0.86840  0.92940  Biso   1.000  C
  C284     1.0000 0.60240  0.36840  0.42940  Biso   1.000  C
  C285     1.0000 0.39760  0.86840  0.07060  Biso   1.000  C
  C286     1.0000 0.89760  0.36840  0.57060  Biso   1.000  C
  C287     1.0000 0.89760  0.13160  0.07060  Biso   1.000  C
  C288     1.0000 0.39760  0.63160  0.57060  Biso   1.000  C
  H137     1.0000 0.60850  0.10260  0.95590  Biso   1.000  H
  H138     1.0000 0.10850  0.60260  0.45590  Biso   1.000  H
  H139     1.0000 0.10850  0.89740  0.95590  Biso   1.000  H
  H140     1.0000 0.60850  0.39740  0.45590  Biso   1.000  H
  H141     1.0000 0.39150  0.89740  0.04410  Biso   1.000  H
  H142     1.0000 0.89150  0.39740  0.54410  Biso   1.000  H
  H143     1.0000 0.89150  0.10260  0.04410  Biso   1.000  H
  H144     1.0000 0.39150  0.60260  0.54410  Biso   1.000  H
  C289     1.0000 0.62990  0.11520  0.90080  Biso   1.000  C
  C290     1.0000 0.12990  0.61520  0.40080  Biso   1.000  C
  C291     1.0000 0.12990  0.88480  0.90080  Biso   1.000  C
  C292     1.0000 0.62990  0.38480  0.40080  Biso   1.000  C
  C293     1.0000 0.37010  0.88480  0.09920  Biso   1.000  C
  C294     1.0000 0.87010  0.38480  0.59920  Biso   1.000  C
  C295     1.0000 0.87010  0.11520  0.09920  Biso   1.000  C
  C296     1.0000 0.37010  0.61520  0.59920  Biso   1.000  C
  H145     1.0000 0.65390  0.07450  0.90820  Biso   1.000  H
  H146     1.0000 0.15390  0.57450  0.40820  Biso   1.000  H
  H147     1.0000 0.15390  0.92550  0.90820  Biso   1.000  H
  H148     1.0000 0.65390  0.42550  0.40820  Biso   1.000  H
  H149     1.0000 0.34610  0.92550  0.09180  Biso   1.000  H
  H150     1.0000 0.84610  0.42550  0.59180  Biso   1.000  H
  H151     1.0000 0.84610  0.07450  0.09180  Biso   1.000  H
  H152     1.0000 0.34610  0.57450  0.59180  Biso   1.000  H
  C297     1.0000 0.62080  0.16040  0.86170  Biso   1.000  C
  C298     1.0000 0.12080  0.66040  0.36170  Biso   1.000  C
  C299     1.0000 0.12080  0.83960  0.86170  Biso   1.000  C
  C300     1.0000 0.62080  0.33960  0.36170  Biso   1.000  C
  C301     1.0000 0.37920  0.83960  0.13830  Biso   1.000  C
  C302     1.0000 0.87920  0.33960  0.63830  Biso   1.000  C
  C303     1.0000 0.87920  0.16040  0.13830  Biso   1.000  C
  C304     1.0000 0.37920  0.66040  0.63830  Biso   1.000  C
  C305     1.0000 0.58480  0.21690  0.85070  Biso   1.000  C
  C306     1.0000 0.08480  0.71690  0.35070  Biso   1.000  C
  C307     1.0000 0.08480  0.78310  0.85070  Biso   1.000  C
  C308     1.0000 0.58480  0.28310  0.35070  Biso   1.000  C
  C309     1.0000 0.41520  0.78310  0.14930  Biso   1.000  C
  C310     1.0000 0.91520  0.28310  0.64930  Biso   1.000  C
  C311     1.0000 0.91520  0.21690  0.14930  Biso   1.000  C
  C312     1.0000 0.41520  0.71690  0.64930  Biso   1.000  C
  H153     1.0000 0.57880  0.24650  0.82420  Biso   1.000  H
  H154     1.0000 0.07880  0.74650  0.32420  Biso   1.000  H
  H155     1.0000 0.07880  0.75350  0.82420  Biso   1.000  H
  H156     1.0000 0.57880  0.25350  0.32420  Biso   1.000  H
  H157     1.0000 0.42120  0.75350  0.17580  Biso   1.000  H
  H158     1.0000 0.92120  0.25350  0.67580  Biso   1.000  H
  H159     1.0000 0.92120  0.24650  0.17580  Biso   1.000  H
  H160     1.0000 0.42120  0.74650  0.67580  Biso   1.000  H
  C313     1.0000 0.55740  0.23010  0.87910  Biso   1.000  C
  C314     1.0000 0.05740  0.73010  0.37910  Biso   1.000  C
  C315     1.0000 0.05740  0.76990  0.87910  Biso   1.000  C
  C316     1.0000 0.55740  0.26990  0.37910  Biso   1.000  C
  C317     1.0000 0.44260  0.76990  0.12090  Biso   1.000  C
  C318     1.0000 0.94260  0.26990  0.62090  Biso   1.000  C
  C319     1.0000 0.94260  0.23010  0.12090  Biso   1.000  C
  C320     1.0000 0.44260  0.73010  0.62090  Biso   1.000  C
  H161     1.0000 0.53300  0.26620  0.87120  Biso   1.000  H
  H162     1.0000 0.03300  0.76620  0.37120  Biso   1.000  H
  H163     1.0000 0.03300  0.73380  0.87120  Biso   1.000  H
  H164     1.0000 0.53300  0.23380  0.37120  Biso   1.000  H
  H165     1.0000 0.46700  0.73380  0.12880  Biso   1.000  H
  H166     1.0000 0.96700  0.23380  0.62880  Biso   1.000  H
  H167     1.0000 0.96700  0.26620  0.12880  Biso   1.000  H
  H168     1.0000 0.46700  0.76620  0.62880  Biso   1.000  H
  C321     1.0000 0.65140  0.14280  0.83230  Biso   1.000  C
  C322     1.0000 0.15140  0.64280  0.33230  Biso   1.000  C
  C323     1.0000 0.15140  0.85720  0.83230  Biso   1.000  C
  C324     1.0000 0.65140  0.35720  0.33230  Biso   1.000  C
  C325     1.0000 0.34860  0.85720  0.16770  Biso   1.000  C
  C326     1.0000 0.84860  0.35720  0.66770  Biso   1.000  C
  C327     1.0000 0.84860  0.14280  0.16770  Biso   1.000  C
  C328     1.0000 0.34860  0.64280  0.66770  Biso   1.000  C
  O33      1.0000 0.68220  0.09030  0.84040  Biso   1.000  O
  O34      1.0000 0.18220  0.59030  0.34040  Biso   1.000  O
  O35      1.0000 0.18220  0.90970  0.84040  Biso   1.000  O
  O36      1.0000 0.68220  0.40970  0.34040  Biso   1.000  O
  O37      1.0000 0.31780  0.90970  0.15960  Biso   1.000  O
  O38      1.0000 0.81780  0.40970  0.65960  Biso   1.000  O
  O39      1.0000 0.81780  0.09030  0.15960  Biso   1.000  O
  O40      1.0000 0.31780  0.59030  0.65960  Biso   1.000  O
  O41      1.0000 0.64090  0.19760  0.79650  Biso   1.000  O
  O42      1.0000 0.14090  0.69760  0.29650  Biso   1.000  O
  O43      1.0000 0.14090  0.80240  0.79650  Biso   1.000  O
  O44      1.0000 0.64090  0.30240  0.29650  Biso   1.000  O
  O45      1.0000 0.35910  0.80240  0.20350  Biso   1.000  O
  O46      1.0000 0.85910  0.30240  0.70350  Biso   1.000  O
  O47      1.0000 0.85910  0.19760  0.20350  Biso   1.000  O
  O48      1.0000 0.35910  0.69760  0.70350  Biso   1.000  O
  H169     1.0000 0.67000  0.20300  0.79000  Biso   1.000  H
  H170     1.0000 0.17000  0.70300  0.29000  Biso   1.000  H
  H171     1.0000 0.17000  0.79700  0.79000  Biso   1.000  H
  H172     1.0000 0.67000  0.29700  0.29000  Biso   1.000  H
  H173     1.0000 0.33000  0.79700  0.21000  Biso   1.000  H
  H174     1.0000 0.83000  0.29700  0.71000  Biso   1.000  H
  H175     1.0000 0.83000  0.20300  0.21000  Biso   1.000  H
  H176     1.0000 0.33000  0.70300  0.71000  Biso   1.000  H
  C329     1.0000 0.37400  0.98830  0.93080  Biso   1.000  C
  C330     1.0000 0.87400  0.48830  0.43080  Biso   1.000  C
  C331     1.0000 0.87400  0.01170  0.93080  Biso   1.000  C
  C332     1.0000 0.37400  0.51170  0.43080  Biso   1.000  C
  C333     1.0000 0.62600  0.01170  0.06920  Biso   1.000  C
  C334     1.0000 0.12600  0.51170  0.56920  Biso   1.000  C
  C335     1.0000 0.12600  0.98830  0.06920  Biso   1.000  C
  C336     1.0000 0.62600  0.48830  0.56920  Biso   1.000  C
  C337     1.0000 0.36470  0.04080  0.89290  Biso   1.000  C
  C338     1.0000 0.86470  0.54080  0.39290  Biso   1.000  C
  C339     1.0000 0.86470  0.95920  0.89290  Biso   1.000  C
  C340     1.0000 0.36470  0.45920  0.39290  Biso   1.000  C
  C341     1.0000 0.63530  0.95920  0.10710  Biso   1.000  C
  C342     1.0000 0.13530  0.45920  0.60710  Biso   1.000  C
  C343     1.0000 0.13530  0.04080  0.10710  Biso   1.000  C
  C344     1.0000 0.63530  0.54080  0.60710  Biso   1.000  C
  H177     1.0000 0.37760  0.12560  0.88400  Biso   1.000  H
  H178     1.0000 0.87760  0.62560  0.38400  Biso   1.000  H
  H179     1.0000 0.87760  0.87440  0.88400  Biso   1.000  H
  H180     1.0000 0.37760  0.37440  0.38400  Biso   1.000  H
  H181     1.0000 0.62240  0.87440  0.11600  Biso   1.000  H
  H182     1.0000 0.12240  0.37440  0.61600  Biso   1.000  H
  H183     1.0000 0.12240  0.12560  0.11600  Biso   1.000  H
  H184     1.0000 0.62240  0.62560  0.61600  Biso   1.000  H
  C345     1.0000 0.33720  0.97520  0.86700  Biso   1.000  C
  C346     1.0000 0.83720  0.47520  0.36700  Biso   1.000  C
  C347     1.0000 0.83720  0.02480  0.86700  Biso   1.000  C
  C348     1.0000 0.33720  0.52480  0.36700  Biso   1.000  C
  C349     1.0000 0.66280  0.02480  0.13300  Biso   1.000  C
  C350     1.0000 0.16280  0.52480  0.63300  Biso   1.000  C
  C351     1.0000 0.16280  0.97520  0.13300  Biso   1.000  C
  C352     1.0000 0.66280  0.47520  0.63300  Biso   1.000  C
  H185     1.0000 0.33170  0.01500  0.84140  Biso   1.000  H
  H186     1.0000 0.83170  0.51500  0.34140  Biso   1.000  H
  H187     1.0000 0.83170  0.98500  0.84140  Biso   1.000  H
  H188     1.0000 0.33170  0.48500  0.34140  Biso   1.000  H
  H189     1.0000 0.66830  0.98500  0.15860  Biso   1.000  H
  H190     1.0000 0.16830  0.48500  0.65860  Biso   1.000  H
  H191     1.0000 0.16830  0.01500  0.15860  Biso   1.000  H
  H192     1.0000 0.66830  0.51500  0.65860  Biso   1.000  H
  C353     1.0000 0.31770  0.84950  0.87970  Biso   1.000  C
  C354     1.0000 0.81770  0.34950  0.37970  Biso   1.000  C
  C355     1.0000 0.81770  0.15050  0.87970  Biso   1.000  C
  C356     1.0000 0.31770  0.65050  0.37970  Biso   1.000  C
  C357     1.0000 0.68230  0.15050  0.12030  Biso   1.000  C
  C358     1.0000 0.18230  0.65050  0.62030  Biso   1.000  C
  C359     1.0000 0.18230  0.84950  0.12030  Biso   1.000  C
  C360     1.0000 0.68230  0.34950  0.62030  Biso   1.000  C
  C361     1.0000 0.32560  0.79150  0.91760  Biso   1.000  C
  C362     1.0000 0.82560  0.29150  0.41760  Biso   1.000  C
  C363     1.0000 0.82560  0.20850  0.91760  Biso   1.000  C
  C364     1.0000 0.32560  0.70850  0.41760  Biso   1.000  C
  C365     1.0000 0.67440  0.20850  0.08240  Biso   1.000  C
  C366     1.0000 0.17440  0.70850  0.58240  Biso   1.000  C
  C367     1.0000 0.17440  0.79150  0.08240  Biso   1.000  C
  C368     1.0000 0.67440  0.29150  0.58240  Biso   1.000  C
  H193     1.0000 0.31250  0.70710  0.92640  Biso   1.000  H
  H194     1.0000 0.81250  0.20710  0.42640  Biso   1.000  H
  H195     1.0000 0.81250  0.29290  0.92640  Biso   1.000  H
  H196     1.0000 0.31250  0.79290  0.42640  Biso   1.000  H
  H197     1.0000 0.68750  0.29290  0.07360  Biso   1.000  H
  H198     1.0000 0.18750  0.79290  0.57360  Biso   1.000  H
  H199     1.0000 0.18750  0.70710  0.07360  Biso   1.000  H
  H200     1.0000 0.68750  0.20710  0.57360  Biso   1.000  H
  C369     1.0000 0.35430  0.86270  0.94330  Biso   1.000  C
  C370     1.0000 0.85430  0.36270  0.44330  Biso   1.000  C
  C371     1.0000 0.85430  0.13730  0.94330  Biso   1.000  C
  C372     1.0000 0.35430  0.63730  0.44330  Biso   1.000  C
  C373     1.0000 0.64570  0.13730  0.05670  Biso   1.000  C
  C374     1.0000 0.14570  0.63730  0.55670  Biso   1.000  C
  C375     1.0000 0.14570  0.86270  0.05670  Biso   1.000  C
  C376     1.0000 0.64570  0.36270  0.55670  Biso   1.000  C
  H201     1.0000 0.35990  0.82400  0.96900  Biso   1.000  H
  H202     1.0000 0.85990  0.32400  0.46900  Biso   1.000  H
  H203     1.0000 0.85990  0.17600  0.96900  Biso   1.000  H
  H204     1.0000 0.35990  0.67600  0.46900  Biso   1.000  H
  H205     1.0000 0.64010  0.17600  0.03100  Biso   1.000  H
  H206     1.0000 0.14010  0.67600  0.53100  Biso   1.000  H
  H207     1.0000 0.14010  0.82400  0.03100  Biso   1.000  H
  H208     1.0000 0.64010  0.32400  0.53100  Biso   1.000  H
  C377     1.0000 0.28860  0.77750  0.85090  Biso   1.000  C
  C378     1.0000 0.78860  0.27750  0.35090  Biso   1.000  C
  C379     1.0000 0.78860  0.22250  0.85090  Biso   1.000  C
  C380     1.0000 0.28860  0.72250  0.35090  Biso   1.000  C
  C381     1.0000 0.71140  0.22250  0.14910  Biso   1.000  C
  C382     1.0000 0.21140  0.72250  0.64910  Biso   1.000  C
  C383     1.0000 0.21140  0.77750  0.14910  Biso   1.000  C
  C384     1.0000 0.71140  0.27750  0.64910  Biso   1.000  C
  O49      1.0000 0.28119  0.83080  0.81758  Biso   1.000  O
  O50      1.0000 0.78119  0.33080  0.31758  Biso   1.000  O
  O51      1.0000 0.78119  0.16920  0.81758  Biso   1.000  O
  O52      1.0000 0.28119  0.66920  0.31758  Biso   1.000  O
  O53      1.0000 0.71881  0.16920  0.18242  Biso   1.000  O
  O54      1.0000 0.21881  0.66920  0.68242  Biso   1.000  O
  O55      1.0000 0.21881  0.83080  0.18242  Biso   1.000  O
  O56      1.0000 0.71881  0.33080  0.68242  Biso   1.000  O
  O57      1.0000 0.27331  0.65210  0.86325  Biso   1.000  O
  O58      1.0000 0.77331  0.15210  0.36325  Biso   1.000  O
  O59      1.0000 0.77331  0.34790  0.86325  Biso   1.000  O
  O60      1.0000 0.27331  0.84790  0.36325  Biso   1.000  O
  O61      1.0000 0.72669  0.34790  0.13675  Biso   1.000  O
  O62      1.0000 0.22669  0.84790  0.63675  Biso   1.000  O
  O63      1.0000 0.22669  0.65210  0.13675  Biso   1.000  O
  O64      1.0000 0.72669  0.15210  0.63675  Biso   1.000  O
  Cu1      1.0000 0.47022  0.25271  0.01991  Biso   1.000  Cu
  Cu2      1.0000 0.97022  0.75271  0.51991  Biso   1.000  Cu
  Cu3      1.0000 0.97022  0.74729  0.01991  Biso   1.000  Cu
  Cu4      1.0000 0.47022  0.24729  0.51991  Biso   1.000  Cu
  Cu5      1.0000 0.52978  0.74729  0.98009  Biso   1.000  Cu
  Cu6      1.0000 0.02978  0.24729  0.48009  Biso   1.000  Cu
  Cu7      1.0000 0.02978  0.25271  0.98009  Biso   1.000  Cu
  Cu8      1.0000 0.52978  0.75271  0.48009  Biso   1.000  Cu
  K1       1.0000 0.23251  0.45460  0.27994  Biso   1.000  K
  K2       1.0000 0.73251  0.95460  0.77994  Biso   1.000  K
  K3       1.0000 0.73251  0.54540  0.27994  Biso   1.000  K
  K4       1.0000 0.23251  0.04540  0.77994  Biso   1.000  K
  K5       1.0000 0.76749  0.54540  0.72006  Biso   1.000  K
  K6       1.0000 0.26749  0.04540  0.22006  Biso   1.000  K
  K7       1.0000 0.26749  0.45460  0.72006  Biso   1.000  K
  K8       1.0000 0.76749  0.95460  0.22006  Biso   1.000  K
  O65      1.0000 0.20430  0.72860  0.25920  Biso   1.000  O
  O66      1.0000 0.70430  0.22860  0.75920  Biso   1.000  O
  O67      1.0000 0.70430  0.27140  0.25920  Biso   1.000  O
  O68      1.0000 0.20430  0.77140  0.75920  Biso   1.000  O
  O69      1.0000 0.79570  0.27140  0.74080  Biso   1.000  O
  O70      1.0000 0.29570  0.77140  0.24080  Biso   1.000  O
  O71      1.0000 0.29570  0.72860  0.74080  Biso   1.000  O
  O72      1.0000 0.79570  0.22860  0.24080  Biso   1.000  O
  C385     1.0000 0.45690  0.35650  0.26880  Biso   1.000  C
  C386     1.0000 0.95690  0.85650  0.76880  Biso   1.000  C
  C387     1.0000 0.95690  0.64350  0.26880  Biso   1.000  C
  C388     1.0000 0.45690  0.14350  0.76880  Biso   1.000  C
  C389     1.0000 0.54310  0.64350  0.73120  Biso   1.000  C
  C390     1.0000 0.04310  0.14350  0.23120  Biso   1.000  C
  C391     1.0000 0.04310  0.35650  0.73120  Biso   1.000  C
  C392     1.0000 0.54310  0.85650  0.23120  Biso   1.000  C
  C393     1.0000 0.42550  0.43800  0.24990  Biso   1.000  C
  C394     1.0000 0.92550  0.93800  0.74990  Biso   1.000  C
  C395     1.0000 0.92550  0.56200  0.24990  Biso   1.000  C
  C396     1.0000 0.42550  0.06200  0.74990  Biso   1.000  C
  C397     1.0000 0.57450  0.56200  0.75010  Biso   1.000  C
  C398     1.0000 0.07450  0.06200  0.25010  Biso   1.000  C
  C399     1.0000 0.07450  0.43800  0.75010  Biso   1.000  C
  C400     1.0000 0.57450  0.93800  0.25010  Biso   1.000  C
  C401     1.0000 0.42510  0.59900  0.26010  Biso   1.000  C
  C402     1.0000 0.92510  0.09900  0.76010  Biso   1.000  C
  C403     1.0000 0.92510  0.40100  0.26010  Biso   1.000  C
  C404     1.0000 0.42510  0.90100  0.76010  Biso   1.000  C
  C405     1.0000 0.57490  0.40100  0.73990  Biso   1.000  C
  C406     1.0000 0.07490  0.90100  0.23990  Biso   1.000  C
  C407     1.0000 0.07490  0.59900  0.73990  Biso   1.000  C
  C408     1.0000 0.57490  0.09900  0.23990  Biso   1.000  C
  C409     1.0000 0.45440  0.66100  0.28800  Biso   1.000  C
  C410     1.0000 0.95440  0.16100  0.78800  Biso   1.000  C
  C411     1.0000 0.95440  0.33900  0.28800  Biso   1.000  C
  C412     1.0000 0.45440  0.83900  0.78800  Biso   1.000  C
  C413     1.0000 0.54560  0.33900  0.71200  Biso   1.000  C
  C414     1.0000 0.04560  0.83900  0.21200  Biso   1.000  C
  C415     1.0000 0.04560  0.66100  0.71200  Biso   1.000  C
  C416     1.0000 0.54560  0.16100  0.21200  Biso   1.000  C
  C417     1.0000 0.48020  0.57300  0.30150  Biso   1.000  C
  C418     1.0000 0.98020  0.07300  0.80150  Biso   1.000  C
  C419     1.0000 0.98020  0.42700  0.30150  Biso   1.000  C
  C420     1.0000 0.48020  0.92700  0.80150  Biso   1.000  C
  C421     1.0000 0.51980  0.42700  0.69850  Biso   1.000  C
  C422     1.0000 0.01980  0.92700  0.19850  Biso   1.000  C
  C423     1.0000 0.01980  0.57300  0.69850  Biso   1.000  C
  C424     1.0000 0.51980  0.07300  0.19850  Biso   1.000  C
  C425     1.0000 0.48450  0.43420  0.29520  Biso   1.000  C
  C426     1.0000 0.98450  0.93420  0.79520  Biso   1.000  C
  C427     1.0000 0.98450  0.56580  0.29520  Biso   1.000  C
  C428     1.0000 0.48450  0.06580  0.79520  Biso   1.000  C
  C429     1.0000 0.51550  0.56580  0.70480  Biso   1.000  C
  C430     1.0000 0.01550  0.06580  0.20480  Biso   1.000  C
  C431     1.0000 0.01550  0.43420  0.70480  Biso   1.000  C
  C432     1.0000 0.51550  0.93420  0.20480  Biso   1.000  C
  N33      1.0000 0.45650  0.19900  0.26090  Biso   1.000  N
  N34      1.0000 0.95650  0.69900  0.76090  Biso   1.000  N
  N35      1.0000 0.95650  0.80100  0.26090  Biso   1.000  N
  N36      1.0000 0.45650  0.30100  0.76090  Biso   1.000  N
  N37      1.0000 0.54350  0.80100  0.73910  Biso   1.000  N
  N38      1.0000 0.04350  0.30100  0.23910  Biso   1.000  N
  N39      1.0000 0.04350  0.19900  0.73910  Biso   1.000  N
  N40      1.0000 0.54350  0.69900  0.23910  Biso   1.000  N
  O73      1.0000 0.47800  0.12300  0.27930  Biso   1.000  O
  O74      1.0000 0.97800  0.62300  0.77930  Biso   1.000  O
  O75      1.0000 0.97800  0.87700  0.27930  Biso   1.000  O
  O76      1.0000 0.47800  0.37700  0.77930  Biso   1.000  O
  O77      1.0000 0.52200  0.87700  0.72070  Biso   1.000  O
  O78      1.0000 0.02200  0.37700  0.22070  Biso   1.000  O
  O79      1.0000 0.02200  0.12300  0.72070  Biso   1.000  O
  O80      1.0000 0.52200  0.62300  0.22070  Biso   1.000  O
  O81      1.0000 0.43340  0.14400  0.23600  Biso   1.000  O
  O82      1.0000 0.93340  0.64400  0.73600  Biso   1.000  O
  O83      1.0000 0.93340  0.85600  0.23600  Biso   1.000  O
  O84      1.0000 0.43340  0.35600  0.73600  Biso   1.000  O
  O85      1.0000 0.56660  0.85600  0.76400  Biso   1.000  O
  O86      1.0000 0.06660  0.35600  0.26400  Biso   1.000  O
  O87      1.0000 0.06660  0.14400  0.76400  Biso   1.000  O
  O88      1.0000 0.56660  0.64400  0.26400  Biso   1.000  O
  O89      1.0000 0.26970  0.26700  0.33920  Biso   1.000  O
  O90      1.0000 0.76970  0.76700  0.83920  Biso   1.000  O
  O91      1.0000 0.76970  0.73300  0.33920  Biso   1.000  O
  O92      1.0000 0.26970  0.23300  0.83920  Biso   1.000  O
  O93      1.0000 0.73030  0.73300  0.66080  Biso   1.000  O
  O94      1.0000 0.23030  0.23300  0.16080  Biso   1.000  O
  O95      1.0000 0.23030  0.26700  0.66080  Biso   1.000  O
  O96      1.0000 0.73030  0.76700  0.16080  Biso   1.000  O
  O97      1.0000 0.26510  0.09900  0.09620  Biso   1.000  O
  O98      1.0000 0.76510  0.59900  0.59620  Biso   1.000  O
  O99      1.0000 0.76510  0.90100  0.09620  Biso   1.000  O
  O100     1.0000 0.26510  0.40100  0.59620  Biso   1.000  O
  O101     1.0000 0.73490  0.90100  0.90380  Biso   1.000  O
  O102     1.0000 0.23490  0.40100  0.40380  Biso   1.000  O
  O103     1.0000 0.23490  0.09900  0.90380  Biso   1.000  O
  O104     1.0000 0.73490  0.59900  0.40380  Biso   1.000  O
