data_image0
_cell_length_a       21.858
_cell_length_b       21.858
_cell_length_c       25.131
_cell_angle_alpha    90
_cell_angle_beta     90
_cell_angle_gamma    90

_symmetry_space_group_name_H-M    "P 1"
_symmetry_int_tables_number       1

loop_
  _symmetry_equiv_pos_as_xyz
  'x, y, z'

loop_
  _atom_site_label
  _atom_site_occupancy
  _atom_site_fract_x
  _atom_site_fract_y
  _atom_site_fract_z
  _atom_site_thermal_displace_type
  _atom_site_B_iso_or_equiv
  _atom_site_type_symbol
  Cu1      1.0000 0.02536  0.94152  0.47572  Biso   1.000  Cu
  Cu2      1.0000 0.30848  0.27536  0.72572  Biso   1.000  Cu
  Cu3      1.0000 0.19152  0.22464  0.72572  Biso   1.000  Cu
  Cu4      1.0000 0.19152  0.27536  0.77428  Biso   1.000  Cu
  Cu5      1.0000 0.30848  0.22464  0.77428  Biso   1.000  Cu
  Cu6      1.0000 0.52536  0.44152  0.97572  Biso   1.000  Cu
  Cu7      1.0000 0.52536  0.94152  0.02428  Biso   1.000  Cu
  Cu8      1.0000 0.52536  0.05848  0.47572  Biso   1.000  Cu
  Cu9      1.0000 0.97464  0.94152  0.97572  Biso   1.000  Cu
  Cu10     1.0000 0.02536  0.44152  0.52428  Biso   1.000  Cu
  Cu11     1.0000 0.02536  0.55848  0.97572  Biso   1.000  Cu
  Cu12     1.0000 0.47464  0.44152  0.47572  Biso   1.000  Cu
  Cu13     1.0000 0.19152  0.27536  0.72572  Biso   1.000  Cu
  Cu14     1.0000 0.97464  0.05848  0.52428  Biso   1.000  Cu
  Cu15     1.0000 0.19152  0.22464  0.77428  Biso   1.000  Cu
  Cu16     1.0000 0.30848  0.27536  0.77428  Biso   1.000  Cu
  Cu17     1.0000 0.30848  0.22464  0.72572  Biso   1.000  Cu
  Cu18     1.0000 0.47464  0.55848  0.02428  Biso   1.000  Cu
  Cu19     1.0000 0.47464  0.05848  0.97572  Biso   1.000  Cu
  Cu20     1.0000 0.47464  0.94152  0.52428  Biso   1.000  Cu
  Cu21     1.0000 0.02536  0.05848  0.02428  Biso   1.000  Cu
  Cu22     1.0000 0.97464  0.55848  0.47572  Biso   1.000  Cu
  Cu23     1.0000 0.97464  0.44152  0.02428  Biso   1.000  Cu
  Cu24     1.0000 0.52536  0.55848  0.52428  Biso   1.000  Cu
  Br1      1.0000 0.91961  0.95232  0.51232  Biso   1.000  Br
  Br2      1.0000 0.29768  0.16961  0.76232  Biso   1.000  Br
  Br3      1.0000 0.20232  0.33039  0.76232  Biso   1.000  Br
  Br4      1.0000 0.20232  0.16961  0.73768  Biso   1.000  Br
  Br5      1.0000 0.29768  0.33039  0.73768  Biso   1.000  Br
  Br6      1.0000 0.41961  0.45232  0.01232  Biso   1.000  Br
  Br7      1.0000 0.41961  0.95232  0.98768  Biso   1.000  Br
  Br8      1.0000 0.41961  0.04768  0.51232  Biso   1.000  Br
  Br9      1.0000 0.08039  0.95232  0.01232  Biso   1.000  Br
  Br10     1.0000 0.91961  0.45232  0.48768  Biso   1.000  Br
  Br11     1.0000 0.91961  0.54768  0.01232  Biso   1.000  Br
  Br12     1.0000 0.58039  0.45232  0.51232  Biso   1.000  Br
  Br13     1.0000 0.20232  0.16961  0.76232  Biso   1.000  Br
  Br14     1.0000 0.08039  0.04768  0.48768  Biso   1.000  Br
  Br15     1.0000 0.20232  0.33039  0.73768  Biso   1.000  Br
  Br16     1.0000 0.29768  0.16961  0.73768  Biso   1.000  Br
  Br17     1.0000 0.29768  0.33039  0.76232  Biso   1.000  Br
  Br18     1.0000 0.58039  0.54768  0.98768  Biso   1.000  Br
  Br19     1.0000 0.58039  0.04768  0.01232  Biso   1.000  Br
  Br20     1.0000 0.58039  0.95232  0.48768  Biso   1.000  Br
  Br21     1.0000 0.91961  0.04768  0.98768  Biso   1.000  Br
  Br22     1.0000 0.08039  0.54768  0.51232  Biso   1.000  Br
  Br23     1.0000 0.08039  0.45232  0.98768  Biso   1.000  Br
  Br24     1.0000 0.41961  0.54768  0.48768  Biso   1.000  Br
  Se1      1.0000 0.99633  0.80312  0.47466  Biso   1.000  Se
  Se2      1.0000 0.44688  0.24633  0.72466  Biso   1.000  Se
  Se3      1.0000 0.05312  0.25367  0.72466  Biso   1.000  Se
  Se4      1.0000 0.05312  0.24633  0.77534  Biso   1.000  Se
  Se5      1.0000 0.44688  0.25367  0.77534  Biso   1.000  Se
  Se6      1.0000 0.49633  0.30312  0.97466  Biso   1.000  Se
  Se7      1.0000 0.49633  0.80312  0.02534  Biso   1.000  Se
  Se8      1.0000 0.49633  0.19688  0.47466  Biso   1.000  Se
  Se9      1.0000 0.00367  0.80312  0.97466  Biso   1.000  Se
  Se10     1.0000 0.99633  0.30312  0.52534  Biso   1.000  Se
  Se11     1.0000 0.99633  0.69688  0.97466  Biso   1.000  Se
  Se12     1.0000 0.50367  0.30312  0.47466  Biso   1.000  Se
  Se13     1.0000 0.05312  0.24633  0.72466  Biso   1.000  Se
  Se14     1.0000 0.00367  0.19688  0.52534  Biso   1.000  Se
  Se15     1.0000 0.05312  0.25367  0.77534  Biso   1.000  Se
  Se16     1.0000 0.44688  0.24633  0.77534  Biso   1.000  Se
  Se17     1.0000 0.44688  0.25367  0.72466  Biso   1.000  Se
  Se18     1.0000 0.50367  0.69688  0.02534  Biso   1.000  Se
  Se19     1.0000 0.50367  0.19688  0.97466  Biso   1.000  Se
  Se20     1.0000 0.50367  0.80312  0.52534  Biso   1.000  Se
  Se21     1.0000 0.99633  0.19688  0.02534  Biso   1.000  Se
  Se22     1.0000 0.00367  0.69688  0.47466  Biso   1.000  Se
  Se23     1.0000 0.00367  0.30312  0.02534  Biso   1.000  Se
  Se24     1.0000 0.49633  0.69688  0.52534  Biso   1.000  Se
  Se25     1.0000 0.13698  0.94871  0.40152  Biso   1.000  Se
  Se26     1.0000 0.30129  0.38698  0.65152  Biso   1.000  Se
  Se27     1.0000 0.19871  0.11302  0.65152  Biso   1.000  Se
  Se28     1.0000 0.19871  0.38698  0.84848  Biso   1.000  Se
  Se29     1.0000 0.30129  0.11302  0.84848  Biso   1.000  Se
  Se30     1.0000 0.63698  0.44871  0.90152  Biso   1.000  Se
  Se31     1.0000 0.63698  0.94871  0.09848  Biso   1.000  Se
  Se32     1.0000 0.63698  0.05129  0.40152  Biso   1.000  Se
  Se33     1.0000 0.86302  0.94871  0.90152  Biso   1.000  Se
  Se34     1.0000 0.13698  0.44871  0.59848  Biso   1.000  Se
  Se35     1.0000 0.13698  0.55129  0.90152  Biso   1.000  Se
  Se36     1.0000 0.36302  0.44871  0.40152  Biso   1.000  Se
  Se37     1.0000 0.19871  0.38698  0.65152  Biso   1.000  Se
  Se38     1.0000 0.86302  0.05129  0.59848  Biso   1.000  Se
  Se39     1.0000 0.19871  0.11302  0.84848  Biso   1.000  Se
  Se40     1.0000 0.30129  0.38698  0.84848  Biso   1.000  Se
  Se41     1.0000 0.30129  0.11302  0.65152  Biso   1.000  Se
  Se42     1.0000 0.36302  0.55129  0.09848  Biso   1.000  Se
  Se43     1.0000 0.36302  0.05129  0.90152  Biso   1.000  Se
  Se44     1.0000 0.36302  0.94871  0.59848  Biso   1.000  Se
  Se45     1.0000 0.13698  0.05129  0.09848  Biso   1.000  Se
  Se46     1.0000 0.86302  0.55129  0.40152  Biso   1.000  Se
  Se47     1.0000 0.86302  0.44871  0.09848  Biso   1.000  Se
  Se48     1.0000 0.63698  0.55129  0.59848  Biso   1.000  Se
  N1       1.0000 0.06720  0.88560  0.52830  Biso   1.000  N
  N2       1.0000 0.36440  0.31720  0.77830  Biso   1.000  N
  N3       1.0000 0.13560  0.18280  0.77830  Biso   1.000  N
  N4       1.0000 0.13560  0.31720  0.72170  Biso   1.000  N
  N5       1.0000 0.36440  0.18280  0.72170  Biso   1.000  N
  N6       1.0000 0.56720  0.38560  0.02830  Biso   1.000  N
  N7       1.0000 0.56720  0.88560  0.97170  Biso   1.000  N
  N8       1.0000 0.56720  0.11440  0.52830  Biso   1.000  N
  N9       1.0000 0.93280  0.88560  0.02830  Biso   1.000  N
  N10      1.0000 0.06720  0.38560  0.47170  Biso   1.000  N
  N11      1.0000 0.06720  0.61440  0.02830  Biso   1.000  N
  N12      1.0000 0.43280  0.38560  0.52830  Biso   1.000  N
  N13      1.0000 0.13560  0.31720  0.77830  Biso   1.000  N
  N14      1.0000 0.93280  0.11440  0.47170  Biso   1.000  N
  N15      1.0000 0.13560  0.18280  0.72170  Biso   1.000  N
  N16      1.0000 0.36440  0.31720  0.72170  Biso   1.000  N
  N17      1.0000 0.36440  0.18280  0.77830  Biso   1.000  N
  N18      1.0000 0.43280  0.61440  0.97170  Biso   1.000  N
  N19      1.0000 0.43280  0.11440  0.02830  Biso   1.000  N
  N20      1.0000 0.43280  0.88560  0.47170  Biso   1.000  N
  N21      1.0000 0.06720  0.11440  0.97170  Biso   1.000  N
  N22      1.0000 0.93280  0.61440  0.52830  Biso   1.000  N
  N23      1.0000 0.93280  0.38560  0.97170  Biso   1.000  N
  N24      1.0000 0.56720  0.61440  0.47170  Biso   1.000  N
  C1       1.0000 0.05310  0.82600  0.52970  Biso   1.000  C
  C2       1.0000 0.42400  0.30310  0.77970  Biso   1.000  C
  C3       1.0000 0.07600  0.19690  0.77970  Biso   1.000  C
  C4       1.0000 0.07600  0.30310  0.72030  Biso   1.000  C
  C5       1.0000 0.42400  0.19690  0.72030  Biso   1.000  C
  C6       1.0000 0.55310  0.32600  0.02970  Biso   1.000  C
  C7       1.0000 0.55310  0.82600  0.97030  Biso   1.000  C
  C8       1.0000 0.55310  0.17400  0.52970  Biso   1.000  C
  C9       1.0000 0.94690  0.82600  0.02970  Biso   1.000  C
  C10      1.0000 0.05310  0.32600  0.47030  Biso   1.000  C
  C11      1.0000 0.05310  0.67400  0.02970  Biso   1.000  C
  C12      1.0000 0.44690  0.32600  0.52970  Biso   1.000  C
  C13      1.0000 0.07600  0.30310  0.77970  Biso   1.000  C
  C14      1.0000 0.94690  0.17400  0.47030  Biso   1.000  C
  C15      1.0000 0.07600  0.19690  0.72030  Biso   1.000  C
  C16      1.0000 0.42400  0.30310  0.72030  Biso   1.000  C
  C17      1.0000 0.42400  0.19690  0.77970  Biso   1.000  C
  C18      1.0000 0.44690  0.67400  0.97030  Biso   1.000  C
  C19      1.0000 0.44690  0.17400  0.02970  Biso   1.000  C
  C20      1.0000 0.44690  0.82600  0.47030  Biso   1.000  C
  C21      1.0000 0.05310  0.17400  0.97030  Biso   1.000  C
  C22      1.0000 0.94690  0.67400  0.52970  Biso   1.000  C
  C23      1.0000 0.94690  0.32600  0.97030  Biso   1.000  C
  C24      1.0000 0.55310  0.67400  0.47030  Biso   1.000  C
  C25      1.0000 0.07680  0.78610  0.56750  Biso   1.000  C
  C26      1.0000 0.46390  0.32680  0.81750  Biso   1.000  C
  C27      1.0000 0.03610  0.17320  0.81750  Biso   1.000  C
  C28      1.0000 0.03610  0.32680  0.68250  Biso   1.000  C
  C29      1.0000 0.46390  0.17320  0.68250  Biso   1.000  C
  C30      1.0000 0.57680  0.28610  0.06750  Biso   1.000  C
  C31      1.0000 0.57680  0.78610  0.93250  Biso   1.000  C
  C32      1.0000 0.57680  0.21390  0.56750  Biso   1.000  C
  C33      1.0000 0.92320  0.78610  0.06750  Biso   1.000  C
  C34      1.0000 0.07680  0.28610  0.43250  Biso   1.000  C
  C35      1.0000 0.07680  0.71390  0.06750  Biso   1.000  C
  C36      1.0000 0.42320  0.28610  0.56750  Biso   1.000  C
  C37      1.0000 0.03610  0.32680  0.81750  Biso   1.000  C
  C38      1.0000 0.92320  0.21390  0.43250  Biso   1.000  C
  C39      1.0000 0.03610  0.17320  0.68250  Biso   1.000  C
  C40      1.0000 0.46390  0.32680  0.68250  Biso   1.000  C
  C41      1.0000 0.46390  0.17320  0.81750  Biso   1.000  C
  C42      1.0000 0.42320  0.71390  0.93250  Biso   1.000  C
  C43      1.0000 0.42320  0.21390  0.06750  Biso   1.000  C
  C44      1.0000 0.42320  0.78610  0.43250  Biso   1.000  C
  C45      1.0000 0.07680  0.21390  0.93250  Biso   1.000  C
  C46      1.0000 0.92320  0.71390  0.56750  Biso   1.000  C
  C47      1.0000 0.92320  0.28610  0.93250  Biso   1.000  C
  C48      1.0000 0.57680  0.71390  0.43250  Biso   1.000  C
  H1       1.0000 0.06610  0.74400  0.56710  Biso   1.000  H
  H2       1.0000 0.50600  0.31610  0.81710  Biso   1.000  H
  H3       1.0000 0.99400  0.18390  0.81710  Biso   1.000  H
  H4       1.0000 0.99400  0.31610  0.68290  Biso   1.000  H
  H5       1.0000 0.50600  0.18390  0.68290  Biso   1.000  H
  H6       1.0000 0.56610  0.24400  0.06710  Biso   1.000  H
  H7       1.0000 0.56610  0.74400  0.93290  Biso   1.000  H
  H8       1.0000 0.56610  0.25600  0.56710  Biso   1.000  H
  H9       1.0000 0.93390  0.74400  0.06710  Biso   1.000  H
  H10      1.0000 0.06610  0.24400  0.43290  Biso   1.000  H
  H11      1.0000 0.06610  0.75600  0.06710  Biso   1.000  H
  H12      1.0000 0.43390  0.24400  0.56710  Biso   1.000  H
  H13      1.0000 0.99400  0.31610  0.81710  Biso   1.000  H
  H14      1.0000 0.93390  0.25600  0.43290  Biso   1.000  H
  H15      1.0000 0.99400  0.18390  0.68290  Biso   1.000  H
  H16      1.0000 0.50600  0.31610  0.68290  Biso   1.000  H
  H17      1.0000 0.50600  0.18390  0.81710  Biso   1.000  H
  H18      1.0000 0.43390  0.75600  0.93290  Biso   1.000  H
  H19      1.0000 0.43390  0.25600  0.06710  Biso   1.000  H
  H20      1.0000 0.43390  0.74400  0.43290  Biso   1.000  H
  H21      1.0000 0.06610  0.25600  0.93290  Biso   1.000  H
  H22      1.0000 0.93390  0.75600  0.56710  Biso   1.000  H
  H23      1.0000 0.93390  0.24400  0.93290  Biso   1.000  H
  H24      1.0000 0.56610  0.75600  0.43290  Biso   1.000  H
  C49      1.0000 0.11620  0.80910  0.60570  Biso   1.000  C
  C50      1.0000 0.44090  0.36620  0.85570  Biso   1.000  C
  C51      1.0000 0.05910  0.13380  0.85570  Biso   1.000  C
  C52      1.0000 0.05910  0.36620  0.64430  Biso   1.000  C
  C53      1.0000 0.44090  0.13380  0.64430  Biso   1.000  C
  C54      1.0000 0.61620  0.30910  0.10570  Biso   1.000  C
  C55      1.0000 0.61620  0.80910  0.89430  Biso   1.000  C
  C56      1.0000 0.61620  0.19090  0.60570  Biso   1.000  C
  C57      1.0000 0.88380  0.80910  0.10570  Biso   1.000  C
  C58      1.0000 0.11620  0.30910  0.39430  Biso   1.000  C
  C59      1.0000 0.11620  0.69090  0.10570  Biso   1.000  C
  C60      1.0000 0.38380  0.30910  0.60570  Biso   1.000  C
  C61      1.0000 0.05910  0.36620  0.85570  Biso   1.000  C
  C62      1.0000 0.88380  0.19090  0.39430  Biso   1.000  C
  C63      1.0000 0.05910  0.13380  0.64430  Biso   1.000  C
  C64      1.0000 0.44090  0.36620  0.64430  Biso   1.000  C
  C65      1.0000 0.44090  0.13380  0.85570  Biso   1.000  C
  C66      1.0000 0.38380  0.69090  0.89430  Biso   1.000  C
  C67      1.0000 0.38380  0.19090  0.10570  Biso   1.000  C
  C68      1.0000 0.38380  0.80910  0.39430  Biso   1.000  C
  C69      1.0000 0.11620  0.19090  0.89430  Biso   1.000  C
  C70      1.0000 0.88380  0.69090  0.60570  Biso   1.000  C
  C71      1.0000 0.88380  0.30910  0.89430  Biso   1.000  C
  C72      1.0000 0.61620  0.69090  0.39430  Biso   1.000  C
  H25      1.0000 0.13340  0.78290  0.63190  Biso   1.000  H
  H26      1.0000 0.46710  0.38340  0.88190  Biso   1.000  H
  H27      1.0000 0.03290  0.11660  0.88190  Biso   1.000  H
  H28      1.0000 0.03290  0.38340  0.61810  Biso   1.000  H
  H29      1.0000 0.46710  0.11660  0.61810  Biso   1.000  H
  H30      1.0000 0.63340  0.28290  0.13190  Biso   1.000  H
  H31      1.0000 0.63340  0.78290  0.86810  Biso   1.000  H
  H32      1.0000 0.63340  0.21710  0.63190  Biso   1.000  H
  H33      1.0000 0.86660  0.78290  0.13190  Biso   1.000  H
  H34      1.0000 0.13340  0.28290  0.36810  Biso   1.000  H
  H35      1.0000 0.13340  0.71710  0.13190  Biso   1.000  H
  H36      1.0000 0.36660  0.28290  0.63190  Biso   1.000  H
  H37      1.0000 0.03290  0.38340  0.88190  Biso   1.000  H
  H38      1.0000 0.86660  0.21710  0.36810  Biso   1.000  H
  H39      1.0000 0.03290  0.11660  0.61810  Biso   1.000  H
  H40      1.0000 0.46710  0.38340  0.61810  Biso   1.000  H
  H41      1.0000 0.46710  0.11660  0.88190  Biso   1.000  H
  H42      1.0000 0.36660  0.71710  0.86810  Biso   1.000  H
  H43      1.0000 0.36660  0.21710  0.13190  Biso   1.000  H
  H44      1.0000 0.36660  0.78290  0.36810  Biso   1.000  H
  H45      1.0000 0.13340  0.21710  0.86810  Biso   1.000  H
  H46      1.0000 0.86660  0.71710  0.63190  Biso   1.000  H
  H47      1.0000 0.86660  0.28290  0.86810  Biso   1.000  H
  H48      1.0000 0.63340  0.71710  0.36810  Biso   1.000  H
  C73      1.0000 0.13010  0.87120  0.60490  Biso   1.000  C
  C74      1.0000 0.37880  0.38010  0.85490  Biso   1.000  C
  C75      1.0000 0.12120  0.11990  0.85490  Biso   1.000  C
  C76      1.0000 0.12120  0.38010  0.64510  Biso   1.000  C
  C77      1.0000 0.37880  0.11990  0.64510  Biso   1.000  C
  C78      1.0000 0.63010  0.37120  0.10490  Biso   1.000  C
  C79      1.0000 0.63010  0.87120  0.89510  Biso   1.000  C
  C80      1.0000 0.63010  0.12880  0.60490  Biso   1.000  C
  C81      1.0000 0.86990  0.87120  0.10490  Biso   1.000  C
  C82      1.0000 0.13010  0.37120  0.39510  Biso   1.000  C
  C83      1.0000 0.13010  0.62880  0.10490  Biso   1.000  C
  C84      1.0000 0.36990  0.37120  0.60490  Biso   1.000  C
  C85      1.0000 0.12120  0.38010  0.85490  Biso   1.000  C
  C86      1.0000 0.86990  0.12880  0.39510  Biso   1.000  C
  C87      1.0000 0.12120  0.11990  0.64510  Biso   1.000  C
  C88      1.0000 0.37880  0.38010  0.64510  Biso   1.000  C
  C89      1.0000 0.37880  0.11990  0.85490  Biso   1.000  C
  C90      1.0000 0.36990  0.62880  0.89510  Biso   1.000  C
  C91      1.0000 0.36990  0.12880  0.10490  Biso   1.000  C
  C92      1.0000 0.36990  0.87120  0.39510  Biso   1.000  C
  C93      1.0000 0.13010  0.12880  0.89510  Biso   1.000  C
  C94      1.0000 0.86990  0.62880  0.60490  Biso   1.000  C
  C95      1.0000 0.86990  0.37120  0.89510  Biso   1.000  C
  C96      1.0000 0.63010  0.62880  0.39510  Biso   1.000  C
  H49      1.0000 0.15700  0.88820  0.63070  Biso   1.000  H
  H50      1.0000 0.36180  0.40700  0.88070  Biso   1.000  H
  H51      1.0000 0.13820  0.09300  0.88070  Biso   1.000  H
  H52      1.0000 0.13820  0.40700  0.61930  Biso   1.000  H
  H53      1.0000 0.36180  0.09300  0.61930  Biso   1.000  H
  H54      1.0000 0.65700  0.38820  0.13070  Biso   1.000  H
  H55      1.0000 0.65700  0.88820  0.86930  Biso   1.000  H
  H56      1.0000 0.65700  0.11180  0.63070  Biso   1.000  H
  H57      1.0000 0.84300  0.88820  0.13070  Biso   1.000  H
  H58      1.0000 0.15700  0.38820  0.36930  Biso   1.000  H
  H59      1.0000 0.15700  0.61180  0.13070  Biso   1.000  H
  H60      1.0000 0.34300  0.38820  0.63070  Biso   1.000  H
  H61      1.0000 0.13820  0.40700  0.88070  Biso   1.000  H
  H62      1.0000 0.84300  0.11180  0.36930  Biso   1.000  H
  H63      1.0000 0.13820  0.09300  0.61930  Biso   1.000  H
  H64      1.0000 0.36180  0.40700  0.61930  Biso   1.000  H
  H65      1.0000 0.36180  0.09300  0.88070  Biso   1.000  H
  H66      1.0000 0.34300  0.61180  0.86930  Biso   1.000  H
  H67      1.0000 0.34300  0.11180  0.13070  Biso   1.000  H
  H68      1.0000 0.34300  0.88820  0.36930  Biso   1.000  H
  H69      1.0000 0.15700  0.11180  0.86930  Biso   1.000  H
  H70      1.0000 0.84300  0.61180  0.63070  Biso   1.000  H
  H71      1.0000 0.84300  0.38820  0.86930  Biso   1.000  H
  H72      1.0000 0.65700  0.61180  0.36930  Biso   1.000  H
  C97      1.0000 0.10490  0.90700  0.56710  Biso   1.000  C
  C98      1.0000 0.34300  0.35490  0.81710  Biso   1.000  C
  C99      1.0000 0.15700  0.14510  0.81710  Biso   1.000  C
  C100     1.0000 0.15700  0.35490  0.68290  Biso   1.000  C
  C101     1.0000 0.34300  0.14510  0.68290  Biso   1.000  C
  C102     1.0000 0.60490  0.40700  0.06710  Biso   1.000  C
  C103     1.0000 0.60490  0.90700  0.93290  Biso   1.000  C
  C104     1.0000 0.60490  0.09300  0.56710  Biso   1.000  C
  C105     1.0000 0.89510  0.90700  0.06710  Biso   1.000  C
  C106     1.0000 0.10490  0.40700  0.43290  Biso   1.000  C
  C107     1.0000 0.10490  0.59300  0.06710  Biso   1.000  C
  C108     1.0000 0.39510  0.40700  0.56710  Biso   1.000  C
  C109     1.0000 0.15700  0.35490  0.81710  Biso   1.000  C
  C110     1.0000 0.89510  0.09300  0.43290  Biso   1.000  C
  C111     1.0000 0.15700  0.14510  0.68290  Biso   1.000  C
  C112     1.0000 0.34300  0.35490  0.68290  Biso   1.000  C
  C113     1.0000 0.34300  0.14510  0.81710  Biso   1.000  C
  C114     1.0000 0.39510  0.59300  0.93290  Biso   1.000  C
  C115     1.0000 0.39510  0.09300  0.06710  Biso   1.000  C
  C116     1.0000 0.39510  0.90700  0.43290  Biso   1.000  C
  C117     1.0000 0.10490  0.09300  0.93290  Biso   1.000  C
  C118     1.0000 0.89510  0.59300  0.56710  Biso   1.000  C
  C119     1.0000 0.89510  0.40700  0.93290  Biso   1.000  C
  C120     1.0000 0.60490  0.59300  0.43290  Biso   1.000  C
  H73      1.0000 0.11400  0.94950  0.56760  Biso   1.000  H
  H74      1.0000 0.30050  0.36400  0.81760  Biso   1.000  H
  H75      1.0000 0.19950  0.13600  0.81760  Biso   1.000  H
  H76      1.0000 0.19950  0.36400  0.68240  Biso   1.000  H
  H77      1.0000 0.30050  0.13600  0.68240  Biso   1.000  H
  H78      1.0000 0.61400  0.44950  0.06760  Biso   1.000  H
  H79      1.0000 0.61400  0.94950  0.93240  Biso   1.000  H
  H80      1.0000 0.61400  0.05050  0.56760  Biso   1.000  H
  H81      1.0000 0.88600  0.94950  0.06760  Biso   1.000  H
  H82      1.0000 0.11400  0.44950  0.43240  Biso   1.000  H
  H83      1.0000 0.11400  0.55050  0.06760  Biso   1.000  H
  H84      1.0000 0.38600  0.44950  0.56760  Biso   1.000  H
  H85      1.0000 0.19950  0.36400  0.81760  Biso   1.000  H
  H86      1.0000 0.88600  0.05050  0.43240  Biso   1.000  H
  H87      1.0000 0.19950  0.13600  0.68240  Biso   1.000  H
  H88      1.0000 0.30050  0.36400  0.68240  Biso   1.000  H
  H89      1.0000 0.30050  0.13600  0.81760  Biso   1.000  H
  H90      1.0000 0.38600  0.55050  0.93240  Biso   1.000  H
  H91      1.0000 0.38600  0.05050  0.06760  Biso   1.000  H
  H92      1.0000 0.38600  0.94950  0.43240  Biso   1.000  H
  H93      1.0000 0.11400  0.05050  0.93240  Biso   1.000  H
  H94      1.0000 0.88600  0.55050  0.56760  Biso   1.000  H
  H95      1.0000 0.88600  0.44950  0.93240  Biso   1.000  H
  H96      1.0000 0.61400  0.55050  0.43240  Biso   1.000  H
  N25      1.0000 0.01170  0.93570  0.39540  Biso   1.000  N
  N26      1.0000 0.31430  0.26170  0.64540  Biso   1.000  N
  N27      1.0000 0.18570  0.23830  0.64540  Biso   1.000  N
  N28      1.0000 0.18570  0.26170  0.85460  Biso   1.000  N
  N29      1.0000 0.31430  0.23830  0.85460  Biso   1.000  N
  N30      1.0000 0.51170  0.43570  0.89540  Biso   1.000  N
  N31      1.0000 0.51170  0.93570  0.10460  Biso   1.000  N
  N32      1.0000 0.51170  0.06430  0.39540  Biso   1.000  N
  N33      1.0000 0.98830  0.93570  0.89540  Biso   1.000  N
  N34      1.0000 0.01170  0.43570  0.60460  Biso   1.000  N
  N35      1.0000 0.01170  0.56430  0.89540  Biso   1.000  N
  N36      1.0000 0.48830  0.43570  0.39540  Biso   1.000  N
  N37      1.0000 0.18570  0.26170  0.64540  Biso   1.000  N
  N38      1.0000 0.98830  0.06430  0.60460  Biso   1.000  N
  N39      1.0000 0.18570  0.23830  0.85460  Biso   1.000  N
  N40      1.0000 0.31430  0.26170  0.85460  Biso   1.000  N
  N41      1.0000 0.31430  0.23830  0.64540  Biso   1.000  N
  N42      1.0000 0.48830  0.56430  0.10460  Biso   1.000  N
  N43      1.0000 0.48830  0.06430  0.89540  Biso   1.000  N
  N44      1.0000 0.48830  0.93570  0.60460  Biso   1.000  N
  N45      1.0000 0.01170  0.06430  0.10460  Biso   1.000  N
  N46      1.0000 0.98830  0.56430  0.39540  Biso   1.000  N
  N47      1.0000 0.98830  0.43570  0.10460  Biso   1.000  N
  N48      1.0000 0.51170  0.56430  0.60460  Biso   1.000  N
  C121     1.0000 0.06110  0.93900  0.36460  Biso   1.000  C
  C122     1.0000 0.31100  0.31110  0.61460  Biso   1.000  C
  C123     1.0000 0.18900  0.18890  0.61460  Biso   1.000  C
  C124     1.0000 0.18900  0.31110  0.88540  Biso   1.000  C
  C125     1.0000 0.31100  0.18890  0.88540  Biso   1.000  C
  C126     1.0000 0.56110  0.43900  0.86460  Biso   1.000  C
  C127     1.0000 0.56110  0.93900  0.13540  Biso   1.000  C
  C128     1.0000 0.56110  0.06100  0.36460  Biso   1.000  C
  C129     1.0000 0.93890  0.93900  0.86460  Biso   1.000  C
  C130     1.0000 0.06110  0.43900  0.63540  Biso   1.000  C
  C131     1.0000 0.06110  0.56100  0.86460  Biso   1.000  C
  C132     1.0000 0.43890  0.43900  0.36460  Biso   1.000  C
  C133     1.0000 0.18900  0.31110  0.61460  Biso   1.000  C
  C134     1.0000 0.93890  0.06100  0.63540  Biso   1.000  C
  C135     1.0000 0.18900  0.18890  0.88540  Biso   1.000  C
  C136     1.0000 0.31100  0.31110  0.88540  Biso   1.000  C
  C137     1.0000 0.31100  0.18890  0.61460  Biso   1.000  C
  C138     1.0000 0.43890  0.56100  0.13540  Biso   1.000  C
  C139     1.0000 0.43890  0.06100  0.86460  Biso   1.000  C
  C140     1.0000 0.43890  0.93900  0.63540  Biso   1.000  C
  C141     1.0000 0.06110  0.06100  0.13540  Biso   1.000  C
  C142     1.0000 0.93890  0.56100  0.36460  Biso   1.000  C
  C143     1.0000 0.93890  0.43900  0.13540  Biso   1.000  C
  C144     1.0000 0.56110  0.56100  0.63540  Biso   1.000  C
  C145     1.0000 0.05420  0.93540  0.31070  Biso   1.000  C
  C146     1.0000 0.31460  0.30420  0.56070  Biso   1.000  C
  C147     1.0000 0.18540  0.19580  0.56070  Biso   1.000  C
  C148     1.0000 0.18540  0.30420  0.93930  Biso   1.000  C
  C149     1.0000 0.31460  0.19580  0.93930  Biso   1.000  C
  C150     1.0000 0.55420  0.43540  0.81070  Biso   1.000  C
  C151     1.0000 0.55420  0.93540  0.18930  Biso   1.000  C
  C152     1.0000 0.55420  0.06460  0.31070  Biso   1.000  C
  C153     1.0000 0.94580  0.93540  0.81070  Biso   1.000  C
  C154     1.0000 0.05420  0.43540  0.68930  Biso   1.000  C
  C155     1.0000 0.05420  0.56460  0.81070  Biso   1.000  C
  C156     1.0000 0.44580  0.43540  0.31070  Biso   1.000  C
  C157     1.0000 0.18540  0.30420  0.56070  Biso   1.000  C
  C158     1.0000 0.94580  0.06460  0.68930  Biso   1.000  C
  C159     1.0000 0.18540  0.19580  0.93930  Biso   1.000  C
  C160     1.0000 0.31460  0.30420  0.93930  Biso   1.000  C
  C161     1.0000 0.31460  0.19580  0.56070  Biso   1.000  C
  C162     1.0000 0.44580  0.56460  0.18930  Biso   1.000  C
  C163     1.0000 0.44580  0.06460  0.81070  Biso   1.000  C
  C164     1.0000 0.44580  0.93540  0.68930  Biso   1.000  C
  C165     1.0000 0.05420  0.06460  0.18930  Biso   1.000  C
  C166     1.0000 0.94580  0.56460  0.31070  Biso   1.000  C
  C167     1.0000 0.94580  0.43540  0.18930  Biso   1.000  C
  C168     1.0000 0.55420  0.56460  0.68930  Biso   1.000  C
  H97      1.0000 0.08890  0.93800  0.28810  Biso   1.000  H
  H98      1.0000 0.31200  0.33890  0.53810  Biso   1.000  H
  H99      1.0000 0.18800  0.16110  0.53810  Biso   1.000  H
  H100     1.0000 0.18800  0.33890  0.96190  Biso   1.000  H
  H101     1.0000 0.31200  0.16110  0.96190  Biso   1.000  H
  H102     1.0000 0.58890  0.43800  0.78810  Biso   1.000  H
  H103     1.0000 0.58890  0.93800  0.21190  Biso   1.000  H
  H104     1.0000 0.58890  0.06200  0.28810  Biso   1.000  H
  H105     1.0000 0.91110  0.93800  0.78810  Biso   1.000  H
  H106     1.0000 0.08890  0.43800  0.71190  Biso   1.000  H
  H107     1.0000 0.08890  0.56200  0.78810  Biso   1.000  H
  H108     1.0000 0.41110  0.43800  0.28810  Biso   1.000  H
  H109     1.0000 0.18800  0.33890  0.53810  Biso   1.000  H
  H110     1.0000 0.91110  0.06200  0.71190  Biso   1.000  H
  H111     1.0000 0.18800  0.16110  0.96190  Biso   1.000  H
  H112     1.0000 0.31200  0.33890  0.96190  Biso   1.000  H
  H113     1.0000 0.31200  0.16110  0.53810  Biso   1.000  H
  H114     1.0000 0.41110  0.56200  0.21190  Biso   1.000  H
  H115     1.0000 0.41110  0.06200  0.78810  Biso   1.000  H
  H116     1.0000 0.41110  0.93800  0.71190  Biso   1.000  H
  H117     1.0000 0.08890  0.06200  0.21190  Biso   1.000  H
  H118     1.0000 0.91110  0.56200  0.28810  Biso   1.000  H
  H119     1.0000 0.91110  0.43800  0.21190  Biso   1.000  H
  H120     1.0000 0.58890  0.56200  0.71190  Biso   1.000  H
  C169     1.0000 0.99660  0.92810  0.28910  Biso   1.000  C
  C170     1.0000 0.32190  0.24660  0.53910  Biso   1.000  C
  C171     1.0000 0.17810  0.25340  0.53910  Biso   1.000  C
  C172     1.0000 0.17810  0.24660  0.96090  Biso   1.000  C
  C173     1.0000 0.32190  0.25340  0.96090  Biso   1.000  C
  C174     1.0000 0.49660  0.42810  0.78910  Biso   1.000  C
  C175     1.0000 0.49660  0.92810  0.21090  Biso   1.000  C
  C176     1.0000 0.49660  0.07190  0.28910  Biso   1.000  C
  C177     1.0000 0.00340  0.92810  0.78910  Biso   1.000  C
  C178     1.0000 0.99660  0.42810  0.71090  Biso   1.000  C
  C179     1.0000 0.99660  0.57190  0.78910  Biso   1.000  C
  C180     1.0000 0.50340  0.42810  0.28910  Biso   1.000  C
  C181     1.0000 0.17810  0.24660  0.53910  Biso   1.000  C
  C182     1.0000 0.00340  0.07190  0.71090  Biso   1.000  C
  C183     1.0000 0.17810  0.25340  0.96090  Biso   1.000  C
  C184     1.0000 0.32190  0.24660  0.96090  Biso   1.000  C
  C185     1.0000 0.32190  0.25340  0.53910  Biso   1.000  C
  C186     1.0000 0.50340  0.57190  0.21090  Biso   1.000  C
  C187     1.0000 0.50340  0.07190  0.78910  Biso   1.000  C
  C188     1.0000 0.50340  0.92810  0.71090  Biso   1.000  C
  C189     1.0000 0.99660  0.07190  0.21090  Biso   1.000  C
  C190     1.0000 0.00340  0.57190  0.28910  Biso   1.000  C
  C191     1.0000 0.00340  0.42810  0.21090  Biso   1.000  C
  C192     1.0000 0.49660  0.57190  0.71090  Biso   1.000  C
  H121     1.0000 0.99190  0.92580  0.25160  Biso   1.000  H
  H122     1.0000 0.32420  0.24190  0.50160  Biso   1.000  H
  H123     1.0000 0.17580  0.25810  0.50160  Biso   1.000  H
  H124     1.0000 0.17580  0.24190  0.99840  Biso   1.000  H
  H125     1.0000 0.32420  0.25810  0.99840  Biso   1.000  H
  H126     1.0000 0.49190  0.42580  0.75160  Biso   1.000  H
  H127     1.0000 0.49190  0.92580  0.24840  Biso   1.000  H
  H128     1.0000 0.49190  0.07420  0.25160  Biso   1.000  H
  H129     1.0000 0.00810  0.92580  0.75160  Biso   1.000  H
  H130     1.0000 0.99190  0.42580  0.74840  Biso   1.000  H
  H131     1.0000 0.99190  0.57420  0.75160  Biso   1.000  H
  H132     1.0000 0.50810  0.42580  0.25160  Biso   1.000  H
  H133     1.0000 0.17580  0.24190  0.50160  Biso   1.000  H
  H134     1.0000 0.00810  0.07420  0.74840  Biso   1.000  H
  H135     1.0000 0.17580  0.25810  0.99840  Biso   1.000  H
  H136     1.0000 0.32420  0.24190  0.99840  Biso   1.000  H
  H137     1.0000 0.32420  0.25810  0.50160  Biso   1.000  H
  H138     1.0000 0.50810  0.57420  0.24840  Biso   1.000  H
  H139     1.0000 0.50810  0.07420  0.75160  Biso   1.000  H
  H140     1.0000 0.50810  0.92580  0.74840  Biso   1.000  H
  H141     1.0000 0.99190  0.07420  0.24840  Biso   1.000  H
  H142     1.0000 0.00810  0.57420  0.25160  Biso   1.000  H
  H143     1.0000 0.00810  0.42580  0.24840  Biso   1.000  H
  H144     1.0000 0.49190  0.57420  0.74840  Biso   1.000  H
  C193     1.0000 0.94750  0.92410  0.32030  Biso   1.000  C
  C194     1.0000 0.32590  0.19750  0.57030  Biso   1.000  C
  C195     1.0000 0.17410  0.30250  0.57030  Biso   1.000  C
  C196     1.0000 0.17410  0.19750  0.92970  Biso   1.000  C
  C197     1.0000 0.32590  0.30250  0.92970  Biso   1.000  C
  C198     1.0000 0.44750  0.42410  0.82030  Biso   1.000  C
  C199     1.0000 0.44750  0.92410  0.17970  Biso   1.000  C
  C200     1.0000 0.44750  0.07590  0.32030  Biso   1.000  C
  C201     1.0000 0.05250  0.92410  0.82030  Biso   1.000  C
  C202     1.0000 0.94750  0.42410  0.67970  Biso   1.000  C
  C203     1.0000 0.94750  0.57590  0.82030  Biso   1.000  C
  C204     1.0000 0.55250  0.42410  0.32030  Biso   1.000  C
  C205     1.0000 0.17410  0.19750  0.57030  Biso   1.000  C
  C206     1.0000 0.05250  0.07590  0.67970  Biso   1.000  C
  C207     1.0000 0.17410  0.30250  0.92970  Biso   1.000  C
  C208     1.0000 0.32590  0.19750  0.92970  Biso   1.000  C
  C209     1.0000 0.32590  0.30250  0.57030  Biso   1.000  C
  C210     1.0000 0.55250  0.57590  0.17970  Biso   1.000  C
  C211     1.0000 0.55250  0.07590  0.82030  Biso   1.000  C
  C212     1.0000 0.55250  0.92410  0.67970  Biso   1.000  C
  C213     1.0000 0.94750  0.07590  0.17970  Biso   1.000  C
  C214     1.0000 0.05250  0.57590  0.32030  Biso   1.000  C
  C215     1.0000 0.05250  0.42410  0.17970  Biso   1.000  C
  C216     1.0000 0.44750  0.57590  0.67970  Biso   1.000  C
  H145     1.0000 0.90780  0.91880  0.30570  Biso   1.000  H
  H146     1.0000 0.33120  0.15780  0.55570  Biso   1.000  H
  H147     1.0000 0.16880  0.34220  0.55570  Biso   1.000  H
  H148     1.0000 0.16880  0.15780  0.94430  Biso   1.000  H
  H149     1.0000 0.33120  0.34220  0.94430  Biso   1.000  H
  H150     1.0000 0.40780  0.41880  0.80570  Biso   1.000  H
  H151     1.0000 0.40780  0.91880  0.19430  Biso   1.000  H
  H152     1.0000 0.40780  0.08120  0.30570  Biso   1.000  H
  H153     1.0000 0.09220  0.91880  0.80570  Biso   1.000  H
  H154     1.0000 0.90780  0.41880  0.69430  Biso   1.000  H
  H155     1.0000 0.90780  0.58120  0.80570  Biso   1.000  H
  H156     1.0000 0.59220  0.41880  0.30570  Biso   1.000  H
  H157     1.0000 0.16880  0.15780  0.55570  Biso   1.000  H
  H158     1.0000 0.09220  0.08120  0.69430  Biso   1.000  H
  H159     1.0000 0.16880  0.34220  0.94430  Biso   1.000  H
  H160     1.0000 0.33120  0.15780  0.94430  Biso   1.000  H
  H161     1.0000 0.33120  0.34220  0.55570  Biso   1.000  H
  H162     1.0000 0.59220  0.58120  0.19430  Biso   1.000  H
  H163     1.0000 0.59220  0.08120  0.80570  Biso   1.000  H
  H164     1.0000 0.59220  0.91880  0.69430  Biso   1.000  H
  H165     1.0000 0.90780  0.08120  0.19430  Biso   1.000  H
  H166     1.0000 0.09220  0.58120  0.30570  Biso   1.000  H
  H167     1.0000 0.09220  0.41880  0.19430  Biso   1.000  H
  H168     1.0000 0.40780  0.58120  0.69430  Biso   1.000  H
  C217     1.0000 0.95630  0.92820  0.37480  Biso   1.000  C
  C218     1.0000 0.32180  0.20630  0.62480  Biso   1.000  C
  C219     1.0000 0.17820  0.29370  0.62480  Biso   1.000  C
  C220     1.0000 0.17820  0.20630  0.87520  Biso   1.000  C
  C221     1.0000 0.32180  0.29370  0.87520  Biso   1.000  C
  C222     1.0000 0.45630  0.42820  0.87480  Biso   1.000  C
  C223     1.0000 0.45630  0.92820  0.12520  Biso   1.000  C
  C224     1.0000 0.45630  0.07180  0.37480  Biso   1.000  C
  C225     1.0000 0.04370  0.92820  0.87480  Biso   1.000  C
  C226     1.0000 0.95630  0.42820  0.62520  Biso   1.000  C
  C227     1.0000 0.95630  0.57180  0.87480  Biso   1.000  C
  C228     1.0000 0.54370  0.42820  0.37480  Biso   1.000  C
  C229     1.0000 0.17820  0.20630  0.62480  Biso   1.000  C
  C230     1.0000 0.04370  0.07180  0.62520  Biso   1.000  C
  C231     1.0000 0.17820  0.29370  0.87520  Biso   1.000  C
  C232     1.0000 0.32180  0.20630  0.87520  Biso   1.000  C
  C233     1.0000 0.32180  0.29370  0.62480  Biso   1.000  C
  C234     1.0000 0.54370  0.57180  0.12520  Biso   1.000  C
  C235     1.0000 0.54370  0.07180  0.87480  Biso   1.000  C
  C236     1.0000 0.54370  0.92820  0.62520  Biso   1.000  C
  C237     1.0000 0.95630  0.07180  0.12520  Biso   1.000  C
  C238     1.0000 0.04370  0.57180  0.37480  Biso   1.000  C
  C239     1.0000 0.04370  0.42820  0.12520  Biso   1.000  C
  C240     1.0000 0.45630  0.57180  0.62520  Biso   1.000  C
  H169     1.0000 0.92190  0.92550  0.39780  Biso   1.000  H
  H170     1.0000 0.32450  0.17190  0.64780  Biso   1.000  H
  H171     1.0000 0.17550  0.32810  0.64780  Biso   1.000  H
  H172     1.0000 0.17550  0.17190  0.85220  Biso   1.000  H
  H173     1.0000 0.32450  0.32810  0.85220  Biso   1.000  H
  H174     1.0000 0.42190  0.42550  0.89780  Biso   1.000  H
  H175     1.0000 0.42190  0.92550  0.10220  Biso   1.000  H
  H176     1.0000 0.42190  0.07450  0.39780  Biso   1.000  H
  H177     1.0000 0.07810  0.92550  0.89780  Biso   1.000  H
  H178     1.0000 0.92190  0.42550  0.60220  Biso   1.000  H
  H179     1.0000 0.92190  0.57450  0.89780  Biso   1.000  H
  H180     1.0000 0.57810  0.42550  0.39780  Biso   1.000  H
  H181     1.0000 0.17550  0.17190  0.64780  Biso   1.000  H
  H182     1.0000 0.07810  0.07450  0.60220  Biso   1.000  H
  H183     1.0000 0.17550  0.32810  0.85220  Biso   1.000  H
  H184     1.0000 0.32450  0.17190  0.85220  Biso   1.000  H
  H185     1.0000 0.32450  0.32810  0.64780  Biso   1.000  H
  H186     1.0000 0.57810  0.57450  0.10220  Biso   1.000  H
  H187     1.0000 0.57810  0.07450  0.89780  Biso   1.000  H
  H188     1.0000 0.57810  0.92550  0.60220  Biso   1.000  H
  H189     1.0000 0.92190  0.07450  0.10220  Biso   1.000  H
  H190     1.0000 0.07810  0.57450  0.39780  Biso   1.000  H
  H191     1.0000 0.07810  0.42550  0.10220  Biso   1.000  H
  H192     1.0000 0.42190  0.57450  0.60220  Biso   1.000  H
  C241     1.0000 0.25700  0.03940  0.47530  Biso   1.000  C
  C242     1.0000 0.21060  0.50700  0.72530  Biso   1.000  C
  C243     1.0000 0.28940  0.99300  0.72530  Biso   1.000  C
  C244     1.0000 0.28940  0.50700  0.77470  Biso   1.000  C
  C245     1.0000 0.21060  0.99300  0.77470  Biso   1.000  C
  C246     1.0000 0.75700  0.53940  0.97530  Biso   1.000  C
  C247     1.0000 0.75700  0.03940  0.02470  Biso   1.000  C
  C248     1.0000 0.75700  0.96060  0.47530  Biso   1.000  C
  C249     1.0000 0.74300  0.03940  0.97530  Biso   1.000  C
  C250     1.0000 0.25700  0.53940  0.52470  Biso   1.000  C
  C251     1.0000 0.25700  0.46060  0.97530  Biso   1.000  C
  C252     1.0000 0.24300  0.53940  0.47530  Biso   1.000  C
  C253     1.0000 0.28940  0.50700  0.72530  Biso   1.000  C
  C254     1.0000 0.74300  0.96060  0.52470  Biso   1.000  C
  C255     1.0000 0.28940  0.99300  0.77470  Biso   1.000  C
  C256     1.0000 0.21060  0.50700  0.77470  Biso   1.000  C
  C257     1.0000 0.21060  0.99300  0.72530  Biso   1.000  C
  C258     1.0000 0.24300  0.46060  0.02470  Biso   1.000  C
  C259     1.0000 0.24300  0.96060  0.97530  Biso   1.000  C
  C260     1.0000 0.24300  0.03940  0.52470  Biso   1.000  C
  C261     1.0000 0.25700  0.96060  0.02470  Biso   1.000  C
  C262     1.0000 0.74300  0.46060  0.47530  Biso   1.000  C
  C263     1.0000 0.74300  0.53940  0.02470  Biso   1.000  C
  C264     1.0000 0.75700  0.46060  0.52470  Biso   1.000  C
  H193     1.0000 0.21760  0.06100  0.48010  Biso   1.000  H
  H194     1.0000 0.18900  0.46760  0.73010  Biso   1.000  H
  H195     1.0000 0.31100  0.03240  0.73010  Biso   1.000  H
  H196     1.0000 0.31100  0.46760  0.76990  Biso   1.000  H
  H197     1.0000 0.18900  0.03240  0.76990  Biso   1.000  H
  H198     1.0000 0.71760  0.56100  0.98010  Biso   1.000  H
  H199     1.0000 0.71760  0.06100  0.01990  Biso   1.000  H
  H200     1.0000 0.71760  0.93900  0.48010  Biso   1.000  H
  H201     1.0000 0.78240  0.06100  0.98010  Biso   1.000  H
  H202     1.0000 0.21760  0.56100  0.51990  Biso   1.000  H
  H203     1.0000 0.21760  0.43900  0.98010  Biso   1.000  H
  H204     1.0000 0.28240  0.56100  0.48010  Biso   1.000  H
  H205     1.0000 0.31100  0.46760  0.73010  Biso   1.000  H
  H206     1.0000 0.78240  0.93900  0.51990  Biso   1.000  H
  H207     1.0000 0.31100  0.03240  0.76990  Biso   1.000  H
  H208     1.0000 0.18900  0.46760  0.76990  Biso   1.000  H
  H209     1.0000 0.18900  0.03240  0.73010  Biso   1.000  H
  H210     1.0000 0.28240  0.43900  0.01990  Biso   1.000  H
  H211     1.0000 0.28240  0.93900  0.98010  Biso   1.000  H
  H212     1.0000 0.28240  0.06100  0.51990  Biso   1.000  H
  H213     1.0000 0.21760  0.93900  0.01990  Biso   1.000  H
  H214     1.0000 0.78240  0.43900  0.48010  Biso   1.000  H
  H215     1.0000 0.78240  0.56100  0.01990  Biso   1.000  H
  H216     1.0000 0.71760  0.43900  0.51990  Biso   1.000  H
  H217     1.0000 0.28850  0.06130  0.49620  Biso   1.000  H
  H218     1.0000 0.18870  0.53850  0.74620  Biso   1.000  H
  H219     1.0000 0.31130  0.96150  0.74620  Biso   1.000  H
  H220     1.0000 0.31130  0.53850  0.75380  Biso   1.000  H
  H221     1.0000 0.18870  0.96150  0.75380  Biso   1.000  H
  H222     1.0000 0.78850  0.56130  0.99620  Biso   1.000  H
  H223     1.0000 0.78850  0.06130  0.00380  Biso   1.000  H
  H224     1.0000 0.78850  0.93870  0.49620  Biso   1.000  H
  H225     1.0000 0.71150  0.06130  0.99620  Biso   1.000  H
  H226     1.0000 0.28850  0.56130  0.50380  Biso   1.000  H
  H227     1.0000 0.28850  0.43870  0.99620  Biso   1.000  H
  H228     1.0000 0.21150  0.56130  0.49620  Biso   1.000  H
  H229     1.0000 0.31130  0.53850  0.74620  Biso   1.000  H
  H230     1.0000 0.71150  0.93870  0.50380  Biso   1.000  H
  H231     1.0000 0.31130  0.96150  0.75380  Biso   1.000  H
  H232     1.0000 0.18870  0.53850  0.75380  Biso   1.000  H
  H233     1.0000 0.18870  0.96150  0.74620  Biso   1.000  H
  H234     1.0000 0.21150  0.43870  0.00380  Biso   1.000  H
  H235     1.0000 0.21150  0.93870  0.99620  Biso   1.000  H
  H236     1.0000 0.21150  0.06130  0.50380  Biso   1.000  H
  H237     1.0000 0.28850  0.93870  0.00380  Biso   1.000  H
  H238     1.0000 0.71150  0.43870  0.49620  Biso   1.000  H
  H239     1.0000 0.71150  0.56130  0.00380  Biso   1.000  H
  H240     1.0000 0.78850  0.43870  0.50380  Biso   1.000  H
  Cl1      1.0000 0.25000  0.96150  0.50000  Biso   1.000  Cl
  Cl2      1.0000 0.28850  0.50000  0.75000  Biso   1.000  Cl
  Cl3      1.0000 0.21150  0.00000  0.75000  Biso   1.000  Cl
  Cl4      1.0000 0.21150  0.50000  0.75000  Biso   1.000  Cl
  Cl5      1.0000 0.28850  0.00000  0.75000  Biso   1.000  Cl
  Cl6      1.0000 0.75000  0.46150  0.00000  Biso   1.000  Cl
  Cl7      1.0000 0.75000  0.96150  0.00000  Biso   1.000  Cl
  Cl8      1.0000 0.75000  0.03850  0.50000  Biso   1.000  Cl
  Cl9      1.0000 0.25000  0.46150  0.50000  Biso   1.000  Cl
  Cl10     1.0000 0.25000  0.53850  0.00000  Biso   1.000  Cl
  Cl11     1.0000 0.25000  0.03850  0.00000  Biso   1.000  Cl
  Cl12     1.0000 0.75000  0.53850  0.50000  Biso   1.000  Cl
  Cl13     1.0000 0.27660  0.04020  0.41030  Biso   1.000  Cl
  Cl14     1.0000 0.20980  0.52660  0.66030  Biso   1.000  Cl
  Cl15     1.0000 0.29020  0.97340  0.66030  Biso   1.000  Cl
  Cl16     1.0000 0.29020  0.52660  0.83970  Biso   1.000  Cl
  Cl17     1.0000 0.20980  0.97340  0.83970  Biso   1.000  Cl
  Cl18     1.0000 0.77660  0.54020  0.91030  Biso   1.000  Cl
  Cl19     1.0000 0.77660  0.04020  0.08970  Biso   1.000  Cl
  Cl20     1.0000 0.77660  0.95980  0.41030  Biso   1.000  Cl
  Cl21     1.0000 0.72340  0.04020  0.91030  Biso   1.000  Cl
  Cl22     1.0000 0.27660  0.54020  0.58970  Biso   1.000  Cl
  Cl23     1.0000 0.27660  0.45980  0.91030  Biso   1.000  Cl
  Cl24     1.0000 0.22340  0.54020  0.41030  Biso   1.000  Cl
  Cl25     1.0000 0.29020  0.52660  0.66030  Biso   1.000  Cl
  Cl26     1.0000 0.72340  0.95980  0.58970  Biso   1.000  Cl
  Cl27     1.0000 0.29020  0.97340  0.83970  Biso   1.000  Cl
  Cl28     1.0000 0.20980  0.52660  0.83970  Biso   1.000  Cl
  Cl29     1.0000 0.20980  0.97340  0.66030  Biso   1.000  Cl
  Cl30     1.0000 0.22340  0.45980  0.08970  Biso   1.000  Cl
  Cl31     1.0000 0.22340  0.95980  0.91030  Biso   1.000  Cl
  Cl32     1.0000 0.22340  0.04020  0.58970  Biso   1.000  Cl
  Cl33     1.0000 0.27660  0.95980  0.08970  Biso   1.000  Cl
  Cl34     1.0000 0.72340  0.45980  0.41030  Biso   1.000  Cl
  Cl35     1.0000 0.72340  0.54020  0.08970  Biso   1.000  Cl
  Cl36     1.0000 0.77660  0.45980  0.58970  Biso   1.000  Cl
  Se49     1.0000 0.55312  0.25367  0.72466  Biso   1.000  Se
  Se50     1.0000 0.94688  0.24633  0.72466  Biso   1.000  Se
  Se51     1.0000 0.94688  0.25367  0.77534  Biso   1.000  Se
  Se52     1.0000 0.55312  0.24633  0.77534  Biso   1.000  Se
  Se53     1.0000 0.94688  0.25367  0.72466  Biso   1.000  Se
  Se54     1.0000 0.94688  0.24633  0.77534  Biso   1.000  Se
  Se55     1.0000 0.55312  0.25367  0.77534  Biso   1.000  Se
  Se56     1.0000 0.55312  0.24633  0.72466  Biso   1.000  Se
  C265     1.0000 0.57600  0.19690  0.77970  Biso   1.000  C
  C266     1.0000 0.92400  0.30310  0.77970  Biso   1.000  C
  C267     1.0000 0.92400  0.19690  0.72030  Biso   1.000  C
  C268     1.0000 0.57600  0.30310  0.72030  Biso   1.000  C
  C269     1.0000 0.92400  0.19690  0.77970  Biso   1.000  C
  C270     1.0000 0.92400  0.30310  0.72030  Biso   1.000  C
  C271     1.0000 0.57600  0.19690  0.72030  Biso   1.000  C
  C272     1.0000 0.57600  0.30310  0.77970  Biso   1.000  C
  N49      1.0000 0.63560  0.18280  0.77830  Biso   1.000  N
  N50      1.0000 0.86440  0.31720  0.77830  Biso   1.000  N
  N51      1.0000 0.86440  0.18280  0.72170  Biso   1.000  N
  N52      1.0000 0.63560  0.31720  0.72170  Biso   1.000  N
  N53      1.0000 0.86440  0.18280  0.77830  Biso   1.000  N
  N54      1.0000 0.86440  0.31720  0.72170  Biso   1.000  N
  N55      1.0000 0.63560  0.18280  0.72170  Biso   1.000  N
  N56      1.0000 0.63560  0.31720  0.77830  Biso   1.000  N
  C273     1.0000 0.65700  0.14510  0.81710  Biso   1.000  C
  C274     1.0000 0.84300  0.35490  0.81710  Biso   1.000  C
  C275     1.0000 0.84300  0.14510  0.68290  Biso   1.000  C
  C276     1.0000 0.65700  0.35490  0.68290  Biso   1.000  C
  C277     1.0000 0.84300  0.14510  0.81710  Biso   1.000  C
  C278     1.0000 0.84300  0.35490  0.68290  Biso   1.000  C
  C279     1.0000 0.65700  0.14510  0.68290  Biso   1.000  C
  C280     1.0000 0.65700  0.35490  0.81710  Biso   1.000  C
  C281     1.0000 0.62120  0.11990  0.85490  Biso   1.000  C
  C282     1.0000 0.87880  0.38010  0.85490  Biso   1.000  C
  C283     1.0000 0.87880  0.11990  0.64510  Biso   1.000  C
  C284     1.0000 0.62120  0.38010  0.64510  Biso   1.000  C
  C285     1.0000 0.87880  0.11990  0.85490  Biso   1.000  C
  C286     1.0000 0.87880  0.38010  0.64510  Biso   1.000  C
  C287     1.0000 0.62120  0.11990  0.64510  Biso   1.000  C
  C288     1.0000 0.62120  0.38010  0.85490  Biso   1.000  C
  C289     1.0000 0.55910  0.13380  0.85570  Biso   1.000  C
  C290     1.0000 0.94090  0.36620  0.85570  Biso   1.000  C
  C291     1.0000 0.94090  0.13380  0.64430  Biso   1.000  C
  C292     1.0000 0.55910  0.36620  0.64430  Biso   1.000  C
  C293     1.0000 0.94090  0.13380  0.85570  Biso   1.000  C
  C294     1.0000 0.94090  0.36620  0.64430  Biso   1.000  C
  C295     1.0000 0.55910  0.13380  0.64430  Biso   1.000  C
  C296     1.0000 0.55910  0.36620  0.85570  Biso   1.000  C
  C297     1.0000 0.53610  0.17320  0.81750  Biso   1.000  C
  C298     1.0000 0.96390  0.32680  0.81750  Biso   1.000  C
  C299     1.0000 0.96390  0.17320  0.68250  Biso   1.000  C
  C300     1.0000 0.53610  0.32680  0.68250  Biso   1.000  C
  C301     1.0000 0.96390  0.17320  0.81750  Biso   1.000  C
  C302     1.0000 0.96390  0.32680  0.68250  Biso   1.000  C
  C303     1.0000 0.53610  0.17320  0.68250  Biso   1.000  C
  C304     1.0000 0.53610  0.32680  0.81750  Biso   1.000  C
  H241     1.0000 0.49400  0.18390  0.81710  Biso   1.000  H
  H242     1.0000 0.00600  0.31610  0.81710  Biso   1.000  H
  H243     1.0000 0.00600  0.18390  0.68290  Biso   1.000  H
  H244     1.0000 0.49400  0.31610  0.68290  Biso   1.000  H
  H245     1.0000 0.00600  0.18390  0.81710  Biso   1.000  H
  H246     1.0000 0.00600  0.31610  0.68290  Biso   1.000  H
  H247     1.0000 0.49400  0.18390  0.68290  Biso   1.000  H
  H248     1.0000 0.49400  0.31610  0.81710  Biso   1.000  H
  H249     1.0000 0.53290  0.11660  0.88190  Biso   1.000  H
  H250     1.0000 0.96710  0.38340  0.88190  Biso   1.000  H
  H251     1.0000 0.96710  0.11660  0.61810  Biso   1.000  H
  H252     1.0000 0.53290  0.38340  0.61810  Biso   1.000  H
  H253     1.0000 0.96710  0.11660  0.88190  Biso   1.000  H
  H254     1.0000 0.96710  0.38340  0.61810  Biso   1.000  H
  H255     1.0000 0.53290  0.11660  0.61810  Biso   1.000  H
  H256     1.0000 0.53290  0.38340  0.88190  Biso   1.000  H
  H257     1.0000 0.63820  0.09300  0.88070  Biso   1.000  H
  H258     1.0000 0.86180  0.40700  0.88070  Biso   1.000  H
  H259     1.0000 0.86180  0.09300  0.61930  Biso   1.000  H
  H260     1.0000 0.63820  0.40700  0.61930  Biso   1.000  H
  H261     1.0000 0.86180  0.09300  0.88070  Biso   1.000  H
  H262     1.0000 0.86180  0.40700  0.61930  Biso   1.000  H
  H263     1.0000 0.63820  0.09300  0.61930  Biso   1.000  H
  H264     1.0000 0.63820  0.40700  0.88070  Biso   1.000  H
  H265     1.0000 0.69950  0.13600  0.81760  Biso   1.000  H
  H266     1.0000 0.80050  0.36400  0.81760  Biso   1.000  H
  H267     1.0000 0.80050  0.13600  0.68240  Biso   1.000  H
  H268     1.0000 0.69950  0.36400  0.68240  Biso   1.000  H
  H269     1.0000 0.80050  0.13600  0.81760  Biso   1.000  H
  H270     1.0000 0.80050  0.36400  0.68240  Biso   1.000  H
  H271     1.0000 0.69950  0.13600  0.68240  Biso   1.000  H
  H272     1.0000 0.69950  0.36400  0.81760  Biso   1.000  H
  Se57     1.0000 0.19871  0.88698  0.34848  Biso   1.000  Se
  Se58     1.0000 0.36302  0.44871  0.59848  Biso   1.000  Se
  Se59     1.0000 0.13698  0.05129  0.59848  Biso   1.000  Se
  Se60     1.0000 0.13698  0.44871  0.90152  Biso   1.000  Se
  Se61     1.0000 0.69871  0.38698  0.84848  Biso   1.000  Se
  Se62     1.0000 0.69871  0.88698  0.15152  Biso   1.000  Se
  Se63     1.0000 0.69871  0.11302  0.34848  Biso   1.000  Se
  Se64     1.0000 0.80129  0.88698  0.84848  Biso   1.000  Se
  Se65     1.0000 0.19871  0.61302  0.84848  Biso   1.000  Se
  Se66     1.0000 0.30129  0.38698  0.34848  Biso   1.000  Se
  Se67     1.0000 0.80129  0.11302  0.65152  Biso   1.000  Se
  Se68     1.0000 0.13698  0.05129  0.90152  Biso   1.000  Se
  Se69     1.0000 0.36302  0.44871  0.90152  Biso   1.000  Se
  Se70     1.0000 0.36302  0.05129  0.59848  Biso   1.000  Se
  Se71     1.0000 0.30129  0.61302  0.15152  Biso   1.000  Se
  Se72     1.0000 0.30129  0.88698  0.65152  Biso   1.000  Se
  Se73     1.0000 0.19871  0.11302  0.15152  Biso   1.000  Se
  Se74     1.0000 0.80129  0.61302  0.34848  Biso   1.000  Se
  Se75     1.0000 0.80129  0.38698  0.15152  Biso   1.000  Se
  Se76     1.0000 0.69871  0.61302  0.65152  Biso   1.000  Se
  C305     1.0000 0.18900  0.81110  0.38540  Biso   1.000  C
  C306     1.0000 0.43890  0.43900  0.63540  Biso   1.000  C
  C307     1.0000 0.06110  0.06100  0.63540  Biso   1.000  C
  C308     1.0000 0.06110  0.43900  0.86460  Biso   1.000  C
  C309     1.0000 0.68900  0.31110  0.88540  Biso   1.000  C
  C310     1.0000 0.68900  0.81110  0.11460  Biso   1.000  C
  C311     1.0000 0.68900  0.18890  0.38540  Biso   1.000  C
  C312     1.0000 0.81100  0.81110  0.88540  Biso   1.000  C
  C313     1.0000 0.18900  0.68890  0.88540  Biso   1.000  C
  C314     1.0000 0.31100  0.31110  0.38540  Biso   1.000  C
  C315     1.0000 0.81100  0.18890  0.61460  Biso   1.000  C
  C316     1.0000 0.06110  0.06100  0.86460  Biso   1.000  C
  C317     1.0000 0.43890  0.43900  0.86460  Biso   1.000  C
  C318     1.0000 0.43890  0.06100  0.63540  Biso   1.000  C
  C319     1.0000 0.31100  0.68890  0.11460  Biso   1.000  C
  C320     1.0000 0.31100  0.81110  0.61460  Biso   1.000  C
  C321     1.0000 0.18900  0.18890  0.11460  Biso   1.000  C
  C322     1.0000 0.81100  0.68890  0.38540  Biso   1.000  C
  C323     1.0000 0.81100  0.31110  0.11460  Biso   1.000  C
  C324     1.0000 0.68900  0.68890  0.61460  Biso   1.000  C
  N57      1.0000 0.18570  0.76170  0.35460  Biso   1.000  N
  N58      1.0000 0.48830  0.43570  0.60460  Biso   1.000  N
  N59      1.0000 0.01170  0.06430  0.60460  Biso   1.000  N
  N60      1.0000 0.01170  0.43570  0.89540  Biso   1.000  N
  N61      1.0000 0.68570  0.26170  0.85460  Biso   1.000  N
  N62      1.0000 0.68570  0.76170  0.14540  Biso   1.000  N
  N63      1.0000 0.68570  0.23830  0.35460  Biso   1.000  N
  N64      1.0000 0.81430  0.76170  0.85460  Biso   1.000  N
  N65      1.0000 0.18570  0.73830  0.85460  Biso   1.000  N
  N66      1.0000 0.31430  0.26170  0.35460  Biso   1.000  N
  N67      1.0000 0.81430  0.23830  0.64540  Biso   1.000  N
  N68      1.0000 0.01170  0.06430  0.89540  Biso   1.000  N
  N69      1.0000 0.48830  0.43570  0.89540  Biso   1.000  N
  N70      1.0000 0.48830  0.06430  0.60460  Biso   1.000  N
  N71      1.0000 0.31430  0.73830  0.14540  Biso   1.000  N
  N72      1.0000 0.31430  0.76170  0.64540  Biso   1.000  N
  N73      1.0000 0.18570  0.23830  0.14540  Biso   1.000  N
  N74      1.0000 0.81430  0.73830  0.35460  Biso   1.000  N
  N75      1.0000 0.81430  0.26170  0.14540  Biso   1.000  N
  N76      1.0000 0.68570  0.73830  0.64540  Biso   1.000  N
  C325     1.0000 0.17820  0.70630  0.37520  Biso   1.000  C
  C326     1.0000 0.54370  0.42820  0.62520  Biso   1.000  C
  C327     1.0000 0.95630  0.07180  0.62520  Biso   1.000  C
  C328     1.0000 0.95630  0.42820  0.87480  Biso   1.000  C
  C329     1.0000 0.67820  0.20630  0.87520  Biso   1.000  C
  C330     1.0000 0.67820  0.70630  0.12480  Biso   1.000  C
  C331     1.0000 0.67820  0.29370  0.37520  Biso   1.000  C
  C332     1.0000 0.82180  0.70630  0.87520  Biso   1.000  C
  C333     1.0000 0.17820  0.79370  0.87520  Biso   1.000  C
  C334     1.0000 0.32180  0.20630  0.37520  Biso   1.000  C
  C335     1.0000 0.82180  0.29370  0.62480  Biso   1.000  C
  C336     1.0000 0.95630  0.07180  0.87480  Biso   1.000  C
  C337     1.0000 0.54370  0.42820  0.87480  Biso   1.000  C
  C338     1.0000 0.54370  0.07180  0.62520  Biso   1.000  C
  C339     1.0000 0.32180  0.79370  0.12480  Biso   1.000  C
  C340     1.0000 0.32180  0.70630  0.62480  Biso   1.000  C
  C341     1.0000 0.17820  0.29370  0.12480  Biso   1.000  C
  C342     1.0000 0.82180  0.79370  0.37520  Biso   1.000  C
  C343     1.0000 0.82180  0.20630  0.12480  Biso   1.000  C
  C344     1.0000 0.67820  0.79370  0.62480  Biso   1.000  C
  C345     1.0000 0.17410  0.69750  0.42970  Biso   1.000  C
  C346     1.0000 0.55250  0.42410  0.67970  Biso   1.000  C
  C347     1.0000 0.94750  0.07590  0.67970  Biso   1.000  C
  C348     1.0000 0.94750  0.42410  0.82030  Biso   1.000  C
  C349     1.0000 0.67410  0.19750  0.92970  Biso   1.000  C
  C350     1.0000 0.67410  0.69750  0.07030  Biso   1.000  C
  C351     1.0000 0.67410  0.30250  0.42970  Biso   1.000  C
  C352     1.0000 0.82590  0.69750  0.92970  Biso   1.000  C
  C353     1.0000 0.17410  0.80250  0.92970  Biso   1.000  C
  C354     1.0000 0.32590  0.19750  0.42970  Biso   1.000  C
  C355     1.0000 0.82590  0.30250  0.57030  Biso   1.000  C
  C356     1.0000 0.94750  0.07590  0.82030  Biso   1.000  C
  C357     1.0000 0.55250  0.42410  0.82030  Biso   1.000  C
  C358     1.0000 0.55250  0.07590  0.67970  Biso   1.000  C
  C359     1.0000 0.32590  0.80250  0.07030  Biso   1.000  C
  C360     1.0000 0.32590  0.69750  0.57030  Biso   1.000  C
  C361     1.0000 0.17410  0.30250  0.07030  Biso   1.000  C
  C362     1.0000 0.82590  0.80250  0.42970  Biso   1.000  C
  C363     1.0000 0.82590  0.19750  0.07030  Biso   1.000  C
  C364     1.0000 0.67410  0.80250  0.57030  Biso   1.000  C
  C365     1.0000 0.17810  0.74660  0.46090  Biso   1.000  C
  C366     1.0000 0.50340  0.42810  0.71090  Biso   1.000  C
  C367     1.0000 0.99660  0.07190  0.71090  Biso   1.000  C
  C368     1.0000 0.99660  0.42810  0.78910  Biso   1.000  C
  C369     1.0000 0.67810  0.24660  0.96090  Biso   1.000  C
  C370     1.0000 0.67810  0.74660  0.03910  Biso   1.000  C
  C371     1.0000 0.67810  0.25340  0.46090  Biso   1.000  C
  C372     1.0000 0.82190  0.74660  0.96090  Biso   1.000  C
  C373     1.0000 0.17810  0.75340  0.96090  Biso   1.000  C
  C374     1.0000 0.32190  0.24660  0.46090  Biso   1.000  C
  C375     1.0000 0.82190  0.25340  0.53910  Biso   1.000  C
  C376     1.0000 0.99660  0.07190  0.78910  Biso   1.000  C
  C377     1.0000 0.50340  0.42810  0.78910  Biso   1.000  C
  C378     1.0000 0.50340  0.07190  0.71090  Biso   1.000  C
  C379     1.0000 0.32190  0.75340  0.03910  Biso   1.000  C
  C380     1.0000 0.32190  0.74660  0.53910  Biso   1.000  C
  C381     1.0000 0.17810  0.25340  0.03910  Biso   1.000  C
  C382     1.0000 0.82190  0.75340  0.46090  Biso   1.000  C
  C383     1.0000 0.82190  0.24660  0.03910  Biso   1.000  C
  C384     1.0000 0.67810  0.75340  0.53910  Biso   1.000  C
  C385     1.0000 0.18540  0.80420  0.43930  Biso   1.000  C
  C386     1.0000 0.44580  0.43540  0.68930  Biso   1.000  C
  C387     1.0000 0.05420  0.06460  0.68930  Biso   1.000  C
  C388     1.0000 0.05420  0.43540  0.81070  Biso   1.000  C
  C389     1.0000 0.68540  0.30420  0.93930  Biso   1.000  C
  C390     1.0000 0.68540  0.80420  0.06070  Biso   1.000  C
  C391     1.0000 0.68540  0.19580  0.43930  Biso   1.000  C
  C392     1.0000 0.81460  0.80420  0.93930  Biso   1.000  C
  C393     1.0000 0.18540  0.69580  0.93930  Biso   1.000  C
  C394     1.0000 0.31460  0.30420  0.43930  Biso   1.000  C
  C395     1.0000 0.81460  0.19580  0.56070  Biso   1.000  C
  C396     1.0000 0.05420  0.06460  0.81070  Biso   1.000  C
  C397     1.0000 0.44580  0.43540  0.81070  Biso   1.000  C
  C398     1.0000 0.44580  0.06460  0.68930  Biso   1.000  C
  C399     1.0000 0.31460  0.69580  0.06070  Biso   1.000  C
  C400     1.0000 0.31460  0.80420  0.56070  Biso   1.000  C
  C401     1.0000 0.18540  0.19580  0.06070  Biso   1.000  C
  C402     1.0000 0.81460  0.69580  0.43930  Biso   1.000  C
  C403     1.0000 0.81460  0.30420  0.06070  Biso   1.000  C
  C404     1.0000 0.68540  0.69580  0.56070  Biso   1.000  C
  H273     1.0000 0.18800  0.83890  0.46190  Biso   1.000  H
  H274     1.0000 0.41110  0.43800  0.71190  Biso   1.000  H
  H275     1.0000 0.08890  0.06200  0.71190  Biso   1.000  H
  H276     1.0000 0.08890  0.43800  0.78810  Biso   1.000  H
  H277     1.0000 0.68800  0.33890  0.96190  Biso   1.000  H
  H278     1.0000 0.68800  0.83890  0.03810  Biso   1.000  H
  H279     1.0000 0.68800  0.16110  0.46190  Biso   1.000  H
  H280     1.0000 0.81200  0.83890  0.96190  Biso   1.000  H
  H281     1.0000 0.18800  0.66110  0.96190  Biso   1.000  H
  H282     1.0000 0.31200  0.33890  0.46190  Biso   1.000  H
  H283     1.0000 0.81200  0.16110  0.53810  Biso   1.000  H
  H284     1.0000 0.08890  0.06200  0.78810  Biso   1.000  H
  H285     1.0000 0.41110  0.43800  0.78810  Biso   1.000  H
  H286     1.0000 0.41110  0.06200  0.71190  Biso   1.000  H
  H287     1.0000 0.31200  0.66110  0.03810  Biso   1.000  H
  H288     1.0000 0.31200  0.83890  0.53810  Biso   1.000  H
  H289     1.0000 0.18800  0.16110  0.03810  Biso   1.000  H
  H290     1.0000 0.81200  0.66110  0.46190  Biso   1.000  H
  H291     1.0000 0.81200  0.33890  0.03810  Biso   1.000  H
  H292     1.0000 0.68800  0.66110  0.53810  Biso   1.000  H
  H293     1.0000 0.17580  0.74190  0.49840  Biso   1.000  H
  H294     1.0000 0.50810  0.42580  0.74840  Biso   1.000  H
  H295     1.0000 0.99190  0.07420  0.74840  Biso   1.000  H
  H296     1.0000 0.99190  0.42580  0.75160  Biso   1.000  H
  H297     1.0000 0.67580  0.24190  0.99840  Biso   1.000  H
  H298     1.0000 0.67580  0.74190  0.00160  Biso   1.000  H
  H299     1.0000 0.67580  0.25810  0.49840  Biso   1.000  H
  H300     1.0000 0.82420  0.74190  0.99840  Biso   1.000  H
  H301     1.0000 0.17580  0.75810  0.99840  Biso   1.000  H
  H302     1.0000 0.32420  0.24190  0.49840  Biso   1.000  H
  H303     1.0000 0.82420  0.25810  0.50160  Biso   1.000  H
  H304     1.0000 0.99190  0.07420  0.75160  Biso   1.000  H
  H305     1.0000 0.50810  0.42580  0.75160  Biso   1.000  H
  H306     1.0000 0.50810  0.07420  0.74840  Biso   1.000  H
  H307     1.0000 0.32420  0.75810  0.00160  Biso   1.000  H
  H308     1.0000 0.32420  0.74190  0.50160  Biso   1.000  H
  H309     1.0000 0.17580  0.25810  0.00160  Biso   1.000  H
  H310     1.0000 0.82420  0.75810  0.49840  Biso   1.000  H
  H311     1.0000 0.82420  0.24190  0.00160  Biso   1.000  H
  H312     1.0000 0.67580  0.75810  0.50160  Biso   1.000  H
  H313     1.0000 0.16880  0.65780  0.44430  Biso   1.000  H
  H314     1.0000 0.59220  0.41880  0.69430  Biso   1.000  H
  H315     1.0000 0.90780  0.08120  0.69430  Biso   1.000  H
  H316     1.0000 0.90780  0.41880  0.80570  Biso   1.000  H
  H317     1.0000 0.66880  0.15780  0.94430  Biso   1.000  H
  H318     1.0000 0.66880  0.65780  0.05570  Biso   1.000  H
  H319     1.0000 0.66880  0.34220  0.44430  Biso   1.000  H
  H320     1.0000 0.83120  0.65780  0.94430  Biso   1.000  H
  H321     1.0000 0.16880  0.84220  0.94430  Biso   1.000  H
  H322     1.0000 0.33120  0.15780  0.44430  Biso   1.000  H
  H323     1.0000 0.83120  0.34220  0.55570  Biso   1.000  H
  H324     1.0000 0.90780  0.08120  0.80570  Biso   1.000  H
  H325     1.0000 0.59220  0.41880  0.80570  Biso   1.000  H
  H326     1.0000 0.59220  0.08120  0.69430  Biso   1.000  H
  H327     1.0000 0.33120  0.84220  0.05570  Biso   1.000  H
  H328     1.0000 0.33120  0.65780  0.55570  Biso   1.000  H
  H329     1.0000 0.16880  0.34220  0.05570  Biso   1.000  H
  H330     1.0000 0.83120  0.84220  0.44430  Biso   1.000  H
  H331     1.0000 0.83120  0.15780  0.05570  Biso   1.000  H
  H332     1.0000 0.66880  0.84220  0.55570  Biso   1.000  H
  H333     1.0000 0.17550  0.67190  0.35220  Biso   1.000  H
  H334     1.0000 0.57810  0.42550  0.60220  Biso   1.000  H
  H335     1.0000 0.92190  0.07450  0.60220  Biso   1.000  H
  H336     1.0000 0.92190  0.42550  0.89780  Biso   1.000  H
  H337     1.0000 0.67550  0.17190  0.85220  Biso   1.000  H
  H338     1.0000 0.67550  0.67190  0.14780  Biso   1.000  H
  H339     1.0000 0.67550  0.32810  0.35220  Biso   1.000  H
  H340     1.0000 0.82450  0.67190  0.85220  Biso   1.000  H
  H341     1.0000 0.17550  0.82810  0.85220  Biso   1.000  H
  H342     1.0000 0.32450  0.17190  0.35220  Biso   1.000  H
  H343     1.0000 0.82450  0.32810  0.64780  Biso   1.000  H
  H344     1.0000 0.92190  0.07450  0.89780  Biso   1.000  H
  H345     1.0000 0.57810  0.42550  0.89780  Biso   1.000  H
  H346     1.0000 0.57810  0.07450  0.60220  Biso   1.000  H
  H347     1.0000 0.32450  0.82810  0.14780  Biso   1.000  H
  H348     1.0000 0.32450  0.67190  0.64780  Biso   1.000  H
  H349     1.0000 0.17550  0.32810  0.14780  Biso   1.000  H
  H350     1.0000 0.82450  0.82810  0.35220  Biso   1.000  H
  H351     1.0000 0.82450  0.17190  0.14780  Biso   1.000  H
  H352     1.0000 0.67550  0.82810  0.64780  Biso   1.000  H
  C405     1.0000 0.21060  0.49300  0.77470  Biso   1.000  C
  C406     1.0000 0.28940  0.00700  0.77470  Biso   1.000  C
  C407     1.0000 0.28940  0.49300  0.72530  Biso   1.000  C
  C408     1.0000 0.21060  0.00700  0.72530  Biso   1.000  C
  C409     1.0000 0.28940  0.49300  0.77470  Biso   1.000  C
  C410     1.0000 0.28940  0.00700  0.72530  Biso   1.000  C
  C411     1.0000 0.21060  0.49300  0.72530  Biso   1.000  C
  C412     1.0000 0.21060  0.00700  0.77470  Biso   1.000  C
  H353     1.0000 0.18900  0.53240  0.76990  Biso   1.000  H
  H354     1.0000 0.31100  0.96760  0.76990  Biso   1.000  H
  H355     1.0000 0.31100  0.53240  0.73010  Biso   1.000  H
  H356     1.0000 0.18900  0.96760  0.73010  Biso   1.000  H
  H357     1.0000 0.31100  0.53240  0.76990  Biso   1.000  H
  H358     1.0000 0.31100  0.96760  0.73010  Biso   1.000  H
  H359     1.0000 0.18900  0.53240  0.73010  Biso   1.000  H
  H360     1.0000 0.18900  0.96760  0.76990  Biso   1.000  H
  H361     1.0000 0.18870  0.46150  0.75380  Biso   1.000  H
  H362     1.0000 0.31130  0.03850  0.75380  Biso   1.000  H
  H363     1.0000 0.31130  0.46150  0.74620  Biso   1.000  H
  H364     1.0000 0.18870  0.03850  0.74620  Biso   1.000  H
  H365     1.0000 0.31130  0.46150  0.75380  Biso   1.000  H
  H366     1.0000 0.31130  0.03850  0.74620  Biso   1.000  H
  H367     1.0000 0.18870  0.46150  0.74620  Biso   1.000  H
  H368     1.0000 0.18870  0.03850  0.75380  Biso   1.000  H
  Cl37     1.0000 0.20980  0.47340  0.83970  Biso   1.000  Cl
  Cl38     1.0000 0.29020  0.02660  0.83970  Biso   1.000  Cl
  Cl39     1.0000 0.29020  0.47340  0.66030  Biso   1.000  Cl
  Cl40     1.0000 0.20980  0.02660  0.66030  Biso   1.000  Cl
  Cl41     1.0000 0.29020  0.47340  0.83970  Biso   1.000  Cl
  Cl42     1.0000 0.29020  0.02660  0.66030  Biso   1.000  Cl
  Cl43     1.0000 0.20980  0.47340  0.66030  Biso   1.000  Cl
  Cl44     1.0000 0.20980  0.02660  0.83970  Biso   1.000  Cl
  Cu25     1.0000 0.69152  0.22464  0.72572  Biso   1.000  Cu
  Cu26     1.0000 0.80848  0.27536  0.72572  Biso   1.000  Cu
  Cu27     1.0000 0.80848  0.22464  0.77428  Biso   1.000  Cu
  Cu28     1.0000 0.69152  0.27536  0.77428  Biso   1.000  Cu
  Cu29     1.0000 0.80848  0.22464  0.72572  Biso   1.000  Cu
  Cu30     1.0000 0.80848  0.27536  0.77428  Biso   1.000  Cu
  Cu31     1.0000 0.69152  0.22464  0.77428  Biso   1.000  Cu
  Cu32     1.0000 0.69152  0.27536  0.72572  Biso   1.000  Cu
  Cu33     1.0000 0.19152  0.77536  0.27428  Biso   1.000  Cu
  Cu34     1.0000 0.47464  0.44152  0.52428  Biso   1.000  Cu
  Cu35     1.0000 0.02536  0.05848  0.52428  Biso   1.000  Cu
  Cu36     1.0000 0.02536  0.44152  0.97572  Biso   1.000  Cu
  Cu37     1.0000 0.69152  0.77536  0.22572  Biso   1.000  Cu
  Cu38     1.0000 0.69152  0.22464  0.27428  Biso   1.000  Cu
  Cu39     1.0000 0.80848  0.77536  0.77428  Biso   1.000  Cu
  Cu40     1.0000 0.19152  0.72464  0.77428  Biso   1.000  Cu
  Cu41     1.0000 0.30848  0.27536  0.27428  Biso   1.000  Cu
  Cu42     1.0000 0.02536  0.05848  0.97572  Biso   1.000  Cu
  Cu43     1.0000 0.47464  0.44152  0.97572  Biso   1.000  Cu
  Cu44     1.0000 0.47464  0.05848  0.52428  Biso   1.000  Cu
  Cu45     1.0000 0.30848  0.72464  0.22572  Biso   1.000  Cu
  Cu46     1.0000 0.30848  0.77536  0.72572  Biso   1.000  Cu
  Cu47     1.0000 0.19152  0.22464  0.22572  Biso   1.000  Cu
  Cu48     1.0000 0.80848  0.72464  0.27428  Biso   1.000  Cu
  Cu49     1.0000 0.80848  0.27536  0.22572  Biso   1.000  Cu
  Cu50     1.0000 0.69152  0.72464  0.72572  Biso   1.000  Cu
