data_image0
_cell_length_a       45.8522
_cell_length_b       18.7196
_cell_length_c       34.0347
_cell_angle_alpha    90
_cell_angle_beta     111.248
_cell_angle_gamma    90

_symmetry_space_group_name_H-M    "P 1"
_symmetry_int_tables_number       1

loop_
  _symmetry_equiv_pos_as_xyz
  'x, y, z'

loop_
  _atom_site_label
  _atom_site_occupancy
  _atom_site_fract_x
  _atom_site_fract_y
  _atom_site_fract_z
  _atom_site_thermal_displace_type
  _atom_site_B_iso_or_equiv
  _atom_site_type_symbol
  Cu1      1.0000 0.56904  0.79647  0.69124  Biso   1.000  Cu
  Cu2      1.0000 0.43096  0.79647  0.30876  Biso   1.000  Cu
  Cu3      1.0000 0.06904  0.29647  0.69124  Biso   1.000  Cu
  Cu4      1.0000 0.93096  0.29647  0.30876  Biso   1.000  Cu
  Cu5      1.0000 0.83435  0.00486  0.20335  Biso   1.000  Cu
  Cu6      1.0000 0.16565  0.00486  0.79665  Biso   1.000  Cu
  Cu7      1.0000 0.33435  0.50486  0.20335  Biso   1.000  Cu
  Cu8      1.0000 0.66565  0.50486  0.79665  Biso   1.000  Cu
  Cu9      1.0000 0.64893  0.13074  0.42809  Biso   1.000  Cu
  Cu10     1.0000 0.35107  0.13074  0.57191  Biso   1.000  Cu
  Cu11     1.0000 0.14893  0.63074  0.42809  Biso   1.000  Cu
  Cu12     1.0000 0.85107  0.63074  0.57191  Biso   1.000  Cu
  O1       1.0000 0.54230  0.89440  0.65260  Biso   1.000  O
  O2       1.0000 0.45770  0.89440  0.34740  Biso   1.000  O
  O3       1.0000 0.04230  0.39440  0.65260  Biso   1.000  O
  O4       1.0000 0.95770  0.39440  0.34740  Biso   1.000  O
  C1       1.0000 0.52260  0.88740  0.62050  Biso   1.000  C
  C2       1.0000 0.47740  0.88740  0.37950  Biso   1.000  C
  C3       1.0000 0.02260  0.38740  0.62050  Biso   1.000  C
  C4       1.0000 0.97740  0.38740  0.37950  Biso   1.000  C
  N1       1.0000 0.51270  0.94560  0.59270  Biso   1.000  N
  N2       1.0000 0.48730  0.94560  0.40730  Biso   1.000  N
  N3       1.0000 0.01270  0.44560  0.59270  Biso   1.000  N
  N4       1.0000 0.98730  0.44560  0.40730  Biso   1.000  N
  C5       1.0000 0.48460  0.93440  0.55300  Biso   1.000  C
  C6       1.0000 0.51540  0.93440  0.44700  Biso   1.000  C
  C7       1.0000 0.98460  0.43440  0.55300  Biso   1.000  C
  C8       1.0000 0.01540  0.43440  0.44700  Biso   1.000  C
  C9       1.0000 0.51770  0.01780  0.60930  Biso   1.000  C
  C10      1.0000 0.48230  0.01780  0.39070  Biso   1.000  C
  C11      1.0000 0.01770  0.51780  0.60930  Biso   1.000  C
  C12      1.0000 0.98230  0.51780  0.39070  Biso   1.000  C
  O5       1.0000 0.84885  0.89020  0.20070  Biso   1.000  O
  O6       1.0000 0.15115  0.89020  0.79930  Biso   1.000  O
  O7       1.0000 0.34885  0.39020  0.20070  Biso   1.000  O
  O8       1.0000 0.65115  0.39020  0.79930  Biso   1.000  O
  C13      1.0000 0.86460  0.85150  0.22890  Biso   1.000  C
  C14      1.0000 0.13540  0.85150  0.77110  Biso   1.000  C
  C15      1.0000 0.36460  0.35150  0.22890  Biso   1.000  C
  C16      1.0000 0.63540  0.35150  0.77110  Biso   1.000  C
  N5       1.0000 0.86700  0.77770  0.22640  Biso   1.000  N
  N6       1.0000 0.13300  0.77770  0.77360  Biso   1.000  N
  N7       1.0000 0.36700  0.27770  0.22640  Biso   1.000  N
  N8       1.0000 0.63300  0.27770  0.77360  Biso   1.000  N
  C17      1.0000 0.86040  0.76000  0.17940  Biso   1.000  C
  C18      1.0000 0.13960  0.76000  0.82060  Biso   1.000  C
  C19      1.0000 0.36040  0.26000  0.17940  Biso   1.000  C
  C20      1.0000 0.63960  0.26000  0.82060  Biso   1.000  C
  C21      1.0000 0.89580  0.73900  0.25070  Biso   1.000  C
  C22      1.0000 0.10420  0.73900  0.74930  Biso   1.000  C
  C23      1.0000 0.39580  0.23900  0.25070  Biso   1.000  C
  C24      1.0000 0.60420  0.23900  0.74930  Biso   1.000  C
  O9       1.0000 0.69560  0.13100  0.43800  Biso   1.000  O
  O10      1.0000 0.30440  0.13100  0.56200  Biso   1.000  O
  O11      1.0000 0.19560  0.63100  0.43800  Biso   1.000  O
  O12      1.0000 0.80440  0.63100  0.56200  Biso   1.000  O
  C25      1.0000 0.70160  0.06420  0.43810  Biso   1.000  C
  C26      1.0000 0.29840  0.06420  0.56190  Biso   1.000  C
  C27      1.0000 0.20160  0.56420  0.43810  Biso   1.000  C
  C28      1.0000 0.79840  0.56420  0.56190  Biso   1.000  C
  N9       1.0000 0.73260  0.04880  0.44810  Biso   1.000  N
  N10      1.0000 0.26740  0.04880  0.55190  Biso   1.000  N
  N11      1.0000 0.23260  0.54880  0.44810  Biso   1.000  N
  N12      1.0000 0.76740  0.54880  0.55190  Biso   1.000  N
  C29      1.0000 0.75020  0.98270  0.45360  Biso   1.000  C
  C30      1.0000 0.24980  0.98270  0.54640  Biso   1.000  C
  C31      1.0000 0.25020  0.48270  0.45360  Biso   1.000  C
  C32      1.0000 0.74980  0.48270  0.54640  Biso   1.000  C
  C33      1.0000 0.75010  0.11190  0.45100  Biso   1.000  C
  C34      1.0000 0.24990  0.11190  0.54900  Biso   1.000  C
  C35      1.0000 0.25010  0.61190  0.45100  Biso   1.000  C
  C36      1.0000 0.74990  0.61190  0.54900  Biso   1.000  C
  O13      1.0000 0.63950  0.02770  0.42960  Biso   1.000  O
  O14      1.0000 0.36050  0.02770  0.57040  Biso   1.000  O
  O15      1.0000 0.13950  0.52770  0.42960  Biso   1.000  O
  O16      1.0000 0.86050  0.52770  0.57040  Biso   1.000  O
  C37      1.0000 0.63010  0.96870  0.42700  Biso   1.000  C
  C38      1.0000 0.36990  0.96870  0.57300  Biso   1.000  C
  C39      1.0000 0.13010  0.46870  0.42700  Biso   1.000  C
  C40      1.0000 0.86990  0.46870  0.57300  Biso   1.000  C
  N13      1.0000 0.62340  0.90000  0.42570  Biso   1.000  N
  N14      1.0000 0.37660  0.90000  0.57430  Biso   1.000  N
  N15      1.0000 0.12340  0.40000  0.42570  Biso   1.000  N
  N16      1.0000 0.87660  0.40000  0.57430  Biso   1.000  N
  C41      1.0000 0.65100  0.85450  0.43650  Biso   1.000  C
  C42      1.0000 0.34900  0.85450  0.56350  Biso   1.000  C
  C43      1.0000 0.15100  0.35450  0.43650  Biso   1.000  C
  C44      1.0000 0.84900  0.35450  0.56350  Biso   1.000  C
  C45      1.0000 0.59350  0.86050  0.40960  Biso   1.000  C
  C46      1.0000 0.40650  0.86050  0.59040  Biso   1.000  C
  C47      1.0000 0.09350  0.36050  0.40960  Biso   1.000  C
  C48      1.0000 0.90650  0.36050  0.59040  Biso   1.000  C
  O17      1.0000 0.67240  0.22770  0.43290  Biso   1.000  O
  O18      1.0000 0.32760  0.22770  0.56710  Biso   1.000  O
  O19      1.0000 0.17240  0.72770  0.43290  Biso   1.000  O
  O20      1.0000 0.82760  0.72770  0.56710  Biso   1.000  O
  C49      1.0000 0.65570  0.27490  0.42260  Biso   1.000  C
  C50      1.0000 0.34430  0.27490  0.57740  Biso   1.000  C
  C51      1.0000 0.15570  0.77490  0.42260  Biso   1.000  C
  C52      1.0000 0.84430  0.77490  0.57740  Biso   1.000  C
  N17      1.0000 0.66220  0.34930  0.43000  Biso   1.000  N
  N18      1.0000 0.33780  0.34930  0.57000  Biso   1.000  N
  N19      1.0000 0.16220  0.84930  0.43000  Biso   1.000  N
  N20      1.0000 0.83780  0.84930  0.57000  Biso   1.000  N
  C53      1.0000 0.69550  0.36310  0.45340  Biso   1.000  C
  C54      1.0000 0.30450  0.36310  0.54660  Biso   1.000  C
  C55      1.0000 0.19550  0.86310  0.45340  Biso   1.000  C
  C56      1.0000 0.80450  0.86310  0.54660  Biso   1.000  C
  C57      1.0000 0.64460  0.41050  0.40850  Biso   1.000  C
  C58      1.0000 0.35540  0.41050  0.59150  Biso   1.000  C
  C59      1.0000 0.14460  0.91050  0.40850  Biso   1.000  C
  C60      1.0000 0.85540  0.91050  0.59150  Biso   1.000  C
  Cl1      1.0000 0.81860  0.20910  0.17790  Biso   1.000  Cl
  Cl2      1.0000 0.18140  0.20910  0.82210  Biso   1.000  Cl
  Cl3      1.0000 0.31860  0.70910  0.17790  Biso   1.000  Cl
  Cl4      1.0000 0.68140  0.70910  0.82210  Biso   1.000  Cl
  O21      1.0000 0.81900  0.13820  0.20820  Biso   1.000  O
  O22      1.0000 0.18100  0.13820  0.79180  Biso   1.000  O
  O23      1.0000 0.31900  0.63820  0.20820  Biso   1.000  O
  O24      1.0000 0.68100  0.63820  0.79180  Biso   1.000  O
  O25      1.0000 0.85140  0.23890  0.18400  Biso   1.000  O
  O26      1.0000 0.14860  0.23890  0.81600  Biso   1.000  O
  O27      1.0000 0.35140  0.73890  0.18400  Biso   1.000  O
  O28      1.0000 0.64860  0.73890  0.81600  Biso   1.000  O
  O29      1.0000 0.80080  0.25980  0.19210  Biso   1.000  O
  O30      1.0000 0.19920  0.25980  0.80790  Biso   1.000  O
  O31      1.0000 0.30080  0.75980  0.19210  Biso   1.000  O
  O32      1.0000 0.69920  0.75980  0.80790  Biso   1.000  O
  O33      1.0000 0.80670  0.18520  0.13080  Biso   1.000  O
  O34      1.0000 0.19330  0.18520  0.86920  Biso   1.000  O
  O35      1.0000 0.30670  0.68520  0.13080  Biso   1.000  O
  O36      1.0000 0.69330  0.68520  0.86920  Biso   1.000  O
  O37      1.0000 0.60270  0.12570  0.41710  Biso   1.000  O
  O38      1.0000 0.39730  0.12570  0.58290  Biso   1.000  O
  O39      1.0000 0.10270  0.62570  0.41710  Biso   1.000  O
  O40      1.0000 0.89730  0.62570  0.58290  Biso   1.000  O
  C61      1.0000 0.59780  0.18950  0.41780  Biso   1.000  C
  C62      1.0000 0.40220  0.18950  0.58220  Biso   1.000  C
  C63      1.0000 0.09780  0.68950  0.41780  Biso   1.000  C
  C64      1.0000 0.90220  0.68950  0.58220  Biso   1.000  C
  C65      1.0000 0.56320  0.21410  0.40410  Biso   1.000  C
  C66      1.0000 0.43680  0.21410  0.59590  Biso   1.000  C
  C67      1.0000 0.06320  0.71410  0.40410  Biso   1.000  C
  C68      1.0000 0.93680  0.71410  0.59590  Biso   1.000  C
  O41      1.0000 0.56680  0.74330  0.63950  Biso   1.000  O
  O42      1.0000 0.43320  0.74330  0.36050  Biso   1.000  O
  O43      1.0000 0.06680  0.24330  0.63950  Biso   1.000  O
  O44      1.0000 0.93320  0.24330  0.36050  Biso   1.000  O
  O45      1.0000 0.85136  0.01080  0.26609  Biso   1.000  O
  O46      1.0000 0.14864  0.01080  0.73391  Biso   1.000  O
  O47      1.0000 0.35136  0.51080  0.26609  Biso   1.000  O
  O48      1.0000 0.64864  0.51080  0.73391  Biso   1.000  O
  O49      1.0000 0.60000  0.68640  0.72770  Biso   1.000  O
  O50      1.0000 0.40000  0.68640  0.27230  Biso   1.000  O
  O51      1.0000 0.10000  0.18640  0.72770  Biso   1.000  O
  O52      1.0000 0.90000  0.18640  0.27230  Biso   1.000  O
  Cl5      1.0000 0.43422  0.32460  0.69140  Biso   1.000  Cl
  Cl6      1.0000 0.56578  0.32460  0.30860  Biso   1.000  Cl
  Cl7      1.0000 0.93422  0.82460  0.69140  Biso   1.000  Cl
  Cl8      1.0000 0.06578  0.82460  0.30860  Biso   1.000  Cl
  Cl9      1.0000 0.20627  0.47820  0.53549  Biso   1.000  Cl
  Cl10     1.0000 0.79373  0.47820  0.46451  Biso   1.000  Cl
  Cl11     1.0000 0.70627  0.97820  0.53549  Biso   1.000  Cl
  Cl12     1.0000 0.29373  0.97820  0.46451  Biso   1.000  Cl
  Cl13     1.0000 0.49820  0.14670  0.89350  Biso   1.000  Cl
  Cl14     1.0000 0.50180  0.14670  0.10650  Biso   1.000  Cl
  Cl15     1.0000 0.99820  0.64670  0.89350  Biso   1.000  Cl
  Cl16     1.0000 0.00180  0.64670  0.10650  Biso   1.000  Cl
  Cl17     1.0000 0.72229  0.14840  0.17162  Biso   1.000  Cl
  Cl18     1.0000 0.27771  0.14840  0.82838  Biso   1.000  Cl
  Cl19     1.0000 0.22229  0.64840  0.17162  Biso   1.000  Cl
  Cl20     1.0000 0.77771  0.64840  0.82838  Biso   1.000  Cl
  Cl21     1.0000 0.59325  0.04630  0.69083  Biso   1.000  Cl
  Cl22     1.0000 0.40675  0.04630  0.30917  Biso   1.000  Cl
  Cl23     1.0000 0.09325  0.54630  0.69083  Biso   1.000  Cl
  Cl24     1.0000 0.90675  0.54630  0.30917  Biso   1.000  Cl
  Cl25     1.0000 0.74486  0.32300  0.95390  Biso   1.000  Cl
  Cl26     1.0000 0.25514  0.32300  0.04610  Biso   1.000  Cl
  Cl27     1.0000 0.24486  0.82300  0.95390  Biso   1.000  Cl
  Cl28     1.0000 0.75514  0.82300  0.04610  Biso   1.000  Cl
  Cl29     1.0000 0.06168  0.95000  0.18614  Biso   1.000  Cl
  Cl30     1.0000 0.93832  0.95000  0.81386  Biso   1.000  Cl
  Cl31     1.0000 0.56168  0.45000  0.18614  Biso   1.000  Cl
  Cl32     1.0000 0.43832  0.45000  0.81386  Biso   1.000  Cl
  Cl33     1.0000 0.17505  0.43840  0.35192  Biso   1.000  Cl
  Cl34     1.0000 0.82495  0.43840  0.64808  Biso   1.000  Cl
  Cl35     1.0000 0.67505  0.93840  0.35192  Biso   1.000  Cl
  Cl36     1.0000 0.32495  0.93840  0.64808  Biso   1.000  Cl
  O53      1.0000 0.32013  0.65910  0.69760  Biso   1.000  O
  O54      1.0000 0.67987  0.65910  0.30240  Biso   1.000  O
  O55      1.0000 0.82013  0.15910  0.69760  Biso   1.000  O
  O56      1.0000 0.17987  0.15910  0.30240  Biso   1.000  O
  O57      1.0000 0.33105  0.50340  0.77410  Biso   1.000  O
  O58      1.0000 0.66895  0.50340  0.22590  Biso   1.000  O
  O59      1.0000 0.83105  0.00340  0.77410  Biso   1.000  O
  O60      1.0000 0.16895  0.00340  0.22590  Biso   1.000  O
  O61      1.0000 0.63075  0.88770  0.05072  Biso   1.000  O
  O62      1.0000 0.36925  0.88770  0.94928  Biso   1.000  O
  O63      1.0000 0.13075  0.38770  0.05072  Biso   1.000  O
  O64      1.0000 0.86925  0.38770  0.94928  Biso   1.000  O
  O65      1.0000 0.55409  0.95000  0.07075  Biso   1.000  O
  O66      1.0000 0.44591  0.95000  0.92925  Biso   1.000  O
  O67      1.0000 0.05409  0.45000  0.07075  Biso   1.000  O
  O68      1.0000 0.94591  0.45000  0.92925  Biso   1.000  O
  O69      1.0000 0.77669  0.12780  0.79460  Biso   1.000  O
  O70      1.0000 0.22331  0.12780  0.20540  Biso   1.000  O
  O71      1.0000 0.27669  0.62780  0.79460  Biso   1.000  O
  O72      1.0000 0.72331  0.62780  0.20540  Biso   1.000  O
  O73      1.0000 0.75181  0.95930  0.82960  Biso   1.000  O
  O74      1.0000 0.24819  0.95930  0.17040  Biso   1.000  O
  O75      1.0000 0.25181  0.45930  0.82960  Biso   1.000  O
  O76      1.0000 0.74819  0.45930  0.17040  Biso   1.000  O
  O77      1.0000 0.03566  0.37910  0.18824  Biso   1.000  O
  O78      1.0000 0.96434  0.37910  0.81176  Biso   1.000  O
  O79      1.0000 0.53566  0.87910  0.18824  Biso   1.000  O
  O80      1.0000 0.46434  0.87910  0.81176  Biso   1.000  O
  O81      1.0000 0.07655  0.28130  0.11870  Biso   1.000  O
  O82      1.0000 0.92345  0.28130  0.88130  Biso   1.000  O
  O83      1.0000 0.57655  0.78130  0.11870  Biso   1.000  O
  O84      1.0000 0.42345  0.78130  0.88130  Biso   1.000  O
  C69      1.0000 0.06074  0.27080  0.19043  Biso   1.000  C
  C70      1.0000 0.93926  0.27080  0.80957  Biso   1.000  C
  C71      1.0000 0.56074  0.77080  0.19043  Biso   1.000  C
  C72      1.0000 0.43926  0.77080  0.80957  Biso   1.000  C
  C73      1.0000 0.03410  0.30820  0.19066  Biso   1.000  C
  C74      1.0000 0.96590  0.30820  0.80934  Biso   1.000  C
  C75      1.0000 0.53410  0.80820  0.19066  Biso   1.000  C
  C76      1.0000 0.46590  0.80820  0.80934  Biso   1.000  C
  C77      1.0000 0.00744  0.27020  0.19026  Biso   1.000  C
  C78      1.0000 0.99256  0.27020  0.80974  Biso   1.000  C
  C79      1.0000 0.50744  0.77020  0.19026  Biso   1.000  C
  C80      1.0000 0.49256  0.77020  0.80974  Biso   1.000  C
  H1       1.0000 0.98950  0.29540  0.19040  Biso   1.000  H
  H2       1.0000 0.01050  0.29540  0.80960  Biso   1.000  H
  H3       1.0000 0.48950  0.79540  0.19040  Biso   1.000  H
  H4       1.0000 0.51050  0.79540  0.80960  Biso   1.000  H
  C81      1.0000 0.00742  0.19490  0.18964  Biso   1.000  C
  C82      1.0000 0.99258  0.19490  0.81036  Biso   1.000  C
  C83      1.0000 0.50742  0.69490  0.18964  Biso   1.000  C
  C84      1.0000 0.49258  0.69490  0.81036  Biso   1.000  C
  C85      1.0000 0.03406  0.15760  0.18942  Biso   1.000  C
  C86      1.0000 0.96594  0.15760  0.81058  Biso   1.000  C
  C87      1.0000 0.53406  0.65760  0.18942  Biso   1.000  C
  C88      1.0000 0.46594  0.65760  0.81058  Biso   1.000  C
  C89      1.0000 0.06073  0.19550  0.18982  Biso   1.000  C
  C90      1.0000 0.93927  0.19550  0.81018  Biso   1.000  C
  C91      1.0000 0.56073  0.69550  0.18982  Biso   1.000  C
  C92      1.0000 0.43927  0.69550  0.81018  Biso   1.000  C
  C93      1.0000 0.08669  0.15620  0.19060  Biso   1.000  C
  C94      1.0000 0.91331  0.15620  0.80940  Biso   1.000  C
  C95      1.0000 0.58669  0.65620  0.19060  Biso   1.000  C
  C96      1.0000 0.41331  0.65620  0.80940  Biso   1.000  C
  H5       1.0000 0.10480  0.18190  0.19160  Biso   1.000  H
  H6       1.0000 0.89520  0.18190  0.80840  Biso   1.000  H
  H7       1.0000 0.60480  0.68190  0.19160  Biso   1.000  H
  H8       1.0000 0.39520  0.68190  0.80840  Biso   1.000  H
  C97      1.0000 0.08800  0.08390  0.19000  Biso   1.000  C
  C98      1.0000 0.91200  0.08390  0.81000  Biso   1.000  C
  C99      1.0000 0.58800  0.58390  0.19000  Biso   1.000  C
  C100     1.0000 0.41200  0.58390  0.81000  Biso   1.000  C
  H9       1.0000 0.10590  0.05990  0.18890  Biso   1.000  H
  H10      1.0000 0.89410  0.05990  0.81110  Biso   1.000  H
  H11      1.0000 0.60590  0.55990  0.18890  Biso   1.000  H
  H12      1.0000 0.39410  0.55990  0.81110  Biso   1.000  H
  C101     1.0000 0.06210  0.04610  0.19110  Biso   1.000  C
  C102     1.0000 0.93790  0.04610  0.80890  Biso   1.000  C
  C103     1.0000 0.56210  0.54610  0.19110  Biso   1.000  C
  C104     1.0000 0.43790  0.54610  0.80890  Biso   1.000  C
  C105     1.0000 0.03430  0.08320  0.18800  Biso   1.000  C
  C106     1.0000 0.96570  0.08320  0.81200  Biso   1.000  C
  C107     1.0000 0.53430  0.58320  0.18800  Biso   1.000  C
  C108     1.0000 0.46570  0.58320  0.81200  Biso   1.000  C
  H13      1.0000 0.01590  0.05720  0.18490  Biso   1.000  H
  H14      1.0000 0.98410  0.05720  0.81510  Biso   1.000  H
  H15      1.0000 0.51590  0.55720  0.18490  Biso   1.000  H
  H16      1.0000 0.48410  0.55720  0.81510  Biso   1.000  H
  C109     1.0000 0.08877  0.31500  0.19076  Biso   1.000  C
  C110     1.0000 0.91123  0.31500  0.80924  Biso   1.000  C
  C111     1.0000 0.58877  0.81500  0.19076  Biso   1.000  C
  C112     1.0000 0.41123  0.81500  0.80924  Biso   1.000  C
  C113     1.0000 0.09698  0.31510  0.15464  Biso   1.000  C
  C114     1.0000 0.90302  0.31510  0.84536  Biso   1.000  C
  C115     1.0000 0.59698  0.81510  0.15464  Biso   1.000  C
  C116     1.0000 0.40302  0.81510  0.84536  Biso   1.000  C
  C117     1.0000 0.12559  0.34540  0.15648  Biso   1.000  C
  C118     1.0000 0.87441  0.34540  0.84352  Biso   1.000  C
  C119     1.0000 0.62559  0.84540  0.15648  Biso   1.000  C
  C120     1.0000 0.37441  0.84540  0.84352  Biso   1.000  C
  H17      1.0000 0.13110  0.34550  0.13210  Biso   1.000  H
  H18      1.0000 0.86890  0.34550  0.86790  Biso   1.000  H
  H19      1.0000 0.63110  0.84550  0.13210  Biso   1.000  H
  H20      1.0000 0.36890  0.84550  0.86790  Biso   1.000  H
  C121     1.0000 0.14599  0.37570  0.19443  Biso   1.000  C
  C122     1.0000 0.85401  0.37570  0.80557  Biso   1.000  C
  C123     1.0000 0.64599  0.87570  0.19443  Biso   1.000  C
  C124     1.0000 0.35401  0.87570  0.80557  Biso   1.000  C
  C125     1.0000 0.13778  0.37560  0.23054  Biso   1.000  C
  C126     1.0000 0.86222  0.37560  0.76946  Biso   1.000  C
  C127     1.0000 0.63778  0.87560  0.23054  Biso   1.000  C
  C128     1.0000 0.36222  0.87560  0.76946  Biso   1.000  C
  C129     1.0000 0.10917  0.34520  0.22871  Biso   1.000  C
  C130     1.0000 0.89083  0.34520  0.77129  Biso   1.000  C
  C131     1.0000 0.60917  0.84520  0.22871  Biso   1.000  C
  C132     1.0000 0.39083  0.84520  0.77129  Biso   1.000  C
  C133     1.0000 0.10112  0.34500  0.26560  Biso   1.000  C
  C134     1.0000 0.89888  0.34500  0.73440  Biso   1.000  C
  C135     1.0000 0.60112  0.84500  0.26560  Biso   1.000  C
  C136     1.0000 0.39888  0.84500  0.73440  Biso   1.000  C
  H21      1.0000 0.08170  0.32620  0.26470  Biso   1.000  H
  H22      1.0000 0.91830  0.32620  0.73530  Biso   1.000  H
  H23      1.0000 0.58170  0.82620  0.26470  Biso   1.000  H
  H24      1.0000 0.41830  0.82620  0.73530  Biso   1.000  H
  C137     1.0000 0.12220  0.37270  0.30230  Biso   1.000  C
  C138     1.0000 0.87780  0.37270  0.69770  Biso   1.000  C
  C139     1.0000 0.62220  0.87270  0.30230  Biso   1.000  C
  C140     1.0000 0.37780  0.87270  0.69770  Biso   1.000  C
  H25      1.0000 0.11660  0.37260  0.32670  Biso   1.000  H
  H26      1.0000 0.88340  0.37260  0.67330  Biso   1.000  H
  H27      1.0000 0.61660  0.87260  0.32670  Biso   1.000  H
  H28      1.0000 0.38340  0.87260  0.67330  Biso   1.000  H
  C141     1.0000 0.15100  0.40090  0.30590  Biso   1.000  C
  C142     1.0000 0.84900  0.40090  0.69410  Biso   1.000  C
  C143     1.0000 0.65100  0.90090  0.30590  Biso   1.000  C
  C144     1.0000 0.34900  0.90090  0.69410  Biso   1.000  C
  C145     1.0000 0.15868  0.40270  0.26950  Biso   1.000  C
  C146     1.0000 0.84132  0.40270  0.73050  Biso   1.000  C
  C147     1.0000 0.65868  0.90270  0.26950  Biso   1.000  C
  C148     1.0000 0.34132  0.90270  0.73050  Biso   1.000  C
  H29      1.0000 0.17820  0.42240  0.27090  Biso   1.000  H
  H30      1.0000 0.82180  0.42240  0.72910  Biso   1.000  H
  H31      1.0000 0.67820  0.92240  0.27090  Biso   1.000  H
  H32      1.0000 0.32180  0.92240  0.72910  Biso   1.000  H
  C149     1.0000 0.74034  0.08220  0.83931  Biso   1.000  C
  C150     1.0000 0.25966  0.08220  0.16069  Biso   1.000  C
  C151     1.0000 0.24034  0.58220  0.83931  Biso   1.000  C
  C152     1.0000 0.75966  0.58220  0.16069  Biso   1.000  C
  C153     1.0000 0.75015  0.01310  0.85500  Biso   1.000  C
  C154     1.0000 0.24985  0.01310  0.14500  Biso   1.000  C
  C155     1.0000 0.25015  0.51310  0.85500  Biso   1.000  C
  C156     1.0000 0.74985  0.51310  0.14500  Biso   1.000  C
  C157     1.0000 0.76083  0.00010  0.89880  Biso   1.000  C
  C158     1.0000 0.23917  0.00010  0.10120  Biso   1.000  C
  C159     1.0000 0.26083  0.50010  0.89880  Biso   1.000  C
  C160     1.0000 0.73917  0.50010  0.10120  Biso   1.000  C
  H33      1.0000 0.76740  0.95350  0.90940  Biso   1.000  H
  H34      1.0000 0.23260  0.95350  0.09060  Biso   1.000  H
  H35      1.0000 0.26740  0.45350  0.90940  Biso   1.000  H
  H36      1.0000 0.73260  0.45350  0.09060  Biso   1.000  H
  C161     1.0000 0.76171  0.05620  0.92682  Biso   1.000  C
  C162     1.0000 0.23829  0.05620  0.07318  Biso   1.000  C
  C163     1.0000 0.26171  0.55620  0.92682  Biso   1.000  C
  C164     1.0000 0.73829  0.55620  0.07318  Biso   1.000  C
  C165     1.0000 0.75191  0.12530  0.91110  Biso   1.000  C
  C166     1.0000 0.24809  0.12530  0.08890  Biso   1.000  C
  C167     1.0000 0.25191  0.62530  0.91110  Biso   1.000  C
  C168     1.0000 0.74809  0.62530  0.08890  Biso   1.000  C
  C169     1.0000 0.74122  0.13830  0.86730  Biso   1.000  C
  C170     1.0000 0.25878  0.13830  0.13270  Biso   1.000  C
  C171     1.0000 0.24122  0.63830  0.86730  Biso   1.000  C
  C172     1.0000 0.75878  0.63830  0.13270  Biso   1.000  C
  C173     1.0000 0.73010  0.20360  0.85010  Biso   1.000  C
  C174     1.0000 0.26990  0.20360  0.14990  Biso   1.000  C
  C175     1.0000 0.23010  0.70360  0.85010  Biso   1.000  C
  C176     1.0000 0.76990  0.70360  0.14990  Biso   1.000  C
  H37      1.0000 0.72180  0.20870  0.82030  Biso   1.000  H
  H38      1.0000 0.27820  0.20870  0.17970  Biso   1.000  H
  H39      1.0000 0.22180  0.70870  0.82030  Biso   1.000  H
  H40      1.0000 0.77820  0.70870  0.17970  Biso   1.000  H
  C177     1.0000 0.73060  0.26360  0.87580  Biso   1.000  C
  C178     1.0000 0.26940  0.26360  0.12420  Biso   1.000  C
  C179     1.0000 0.23060  0.76360  0.87580  Biso   1.000  C
  C180     1.0000 0.76940  0.76360  0.12420  Biso   1.000  C
  H41      1.0000 0.72230  0.30880  0.86450  Biso   1.000  H
  H42      1.0000 0.27770  0.30880  0.13550  Biso   1.000  H
  H43      1.0000 0.22230  0.80880  0.86450  Biso   1.000  H
  H44      1.0000 0.77770  0.80880  0.13550  Biso   1.000  H
  C181     1.0000 0.74450  0.25080  0.91960  Biso   1.000  C
  C182     1.0000 0.25550  0.25080  0.08040  Biso   1.000  C
  C183     1.0000 0.24450  0.75080  0.91960  Biso   1.000  C
  C184     1.0000 0.75550  0.75080  0.08040  Biso   1.000  C
  C185     1.0000 0.75170  0.18330  0.93740  Biso   1.000  C
  C186     1.0000 0.24830  0.18330  0.06260  Biso   1.000  C
  C187     1.0000 0.25170  0.68330  0.93740  Biso   1.000  C
  C188     1.0000 0.74830  0.68330  0.06260  Biso   1.000  C
  H45      1.0000 0.75650  0.17630  0.96670  Biso   1.000  H
  H46      1.0000 0.24350  0.17630  0.03330  Biso   1.000  H
  H47      1.0000 0.25650  0.67630  0.96670  Biso   1.000  H
  H48      1.0000 0.74350  0.67630  0.03330  Biso   1.000  H
  C189     1.0000 0.72748  0.08790  0.79196  Biso   1.000  C
  C190     1.0000 0.27252  0.08790  0.20804  Biso   1.000  C
  C191     1.0000 0.22748  0.58790  0.79196  Biso   1.000  C
  C192     1.0000 0.77252  0.58790  0.20804  Biso   1.000  C
  C193     1.0000 0.74790  0.11250  0.77230  Biso   1.000  C
  C194     1.0000 0.25210  0.11250  0.22770  Biso   1.000  C
  C195     1.0000 0.24790  0.61250  0.77230  Biso   1.000  C
  C196     1.0000 0.75210  0.61250  0.22770  Biso   1.000  C
  C197     1.0000 0.73634  0.12640  0.72860  Biso   1.000  C
  C198     1.0000 0.26366  0.12640  0.27140  Biso   1.000  C
  C199     1.0000 0.23634  0.62640  0.72860  Biso   1.000  C
  C200     1.0000 0.76366  0.62640  0.27140  Biso   1.000  C
  H49      1.0000 0.75010  0.14290  0.71540  Biso   1.000  H
  H50      1.0000 0.24990  0.14290  0.28460  Biso   1.000  H
  H51      1.0000 0.25010  0.64290  0.71540  Biso   1.000  H
  H52      1.0000 0.74990  0.64290  0.28460  Biso   1.000  H
  C201     1.0000 0.70437  0.11590  0.70460  Biso   1.000  C
  C202     1.0000 0.29563  0.11590  0.29540  Biso   1.000  C
  C203     1.0000 0.20437  0.61590  0.70460  Biso   1.000  C
  C204     1.0000 0.79563  0.61590  0.29540  Biso   1.000  C
  C205     1.0000 0.68395  0.09130  0.72425  Biso   1.000  C
  C206     1.0000 0.31605  0.09130  0.27575  Biso   1.000  C
  C207     1.0000 0.18395  0.59130  0.72425  Biso   1.000  C
  C208     1.0000 0.81605  0.59130  0.27575  Biso   1.000  C
  C209     1.0000 0.69551  0.07740  0.76790  Biso   1.000  C
  C210     1.0000 0.30449  0.07740  0.23210  Biso   1.000  C
  C211     1.0000 0.19551  0.57740  0.76790  Biso   1.000  C
  C212     1.0000 0.80449  0.57740  0.23210  Biso   1.000  C
  C213     1.0000 0.67570  0.05510  0.78730  Biso   1.000  C
  C214     1.0000 0.32430  0.05510  0.21270  Biso   1.000  C
  C215     1.0000 0.17570  0.55510  0.78730  Biso   1.000  C
  C216     1.0000 0.82430  0.55510  0.21270  Biso   1.000  C
  H53      1.0000 0.68350  0.04790  0.81690  Biso   1.000  H
  H54      1.0000 0.31650  0.04790  0.18310  Biso   1.000  H
  H55      1.0000 0.18350  0.54790  0.81690  Biso   1.000  H
  H56      1.0000 0.81650  0.54790  0.18310  Biso   1.000  H
  C217     1.0000 0.64340  0.04260  0.76350  Biso   1.000  C
  C218     1.0000 0.35660  0.04260  0.23650  Biso   1.000  C
  C219     1.0000 0.14340  0.54260  0.76350  Biso   1.000  C
  C220     1.0000 0.85660  0.54260  0.23650  Biso   1.000  C
  H57      1.0000 0.62970  0.02820  0.77730  Biso   1.000  H
  H58      1.0000 0.37030  0.02820  0.22270  Biso   1.000  H
  H59      1.0000 0.12970  0.52820  0.77730  Biso   1.000  H
  H60      1.0000 0.87030  0.52820  0.22270  Biso   1.000  H
  C221     1.0000 0.63210  0.05160  0.71940  Biso   1.000  C
  C222     1.0000 0.36790  0.05160  0.28060  Biso   1.000  C
  C223     1.0000 0.13210  0.55160  0.71940  Biso   1.000  C
  C224     1.0000 0.86790  0.55160  0.28060  Biso   1.000  C
  C225     1.0000 0.65210  0.07850  0.70090  Biso   1.000  C
  C226     1.0000 0.34790  0.07850  0.29910  Biso   1.000  C
  C227     1.0000 0.15210  0.57850  0.70090  Biso   1.000  C
  C228     1.0000 0.84790  0.57850  0.29910  Biso   1.000  C
  H61      1.0000 0.64410  0.08860  0.67150  Biso   1.000  H
  H62      1.0000 0.35590  0.08860  0.32850  Biso   1.000  H
  H63      1.0000 0.14410  0.58860  0.67150  Biso   1.000  H
  H64      1.0000 0.85590  0.58860  0.32850  Biso   1.000  H
  C229     1.0000 0.60340  0.99870  0.07558  Biso   1.000  C
  C230     1.0000 0.39660  0.99870  0.92442  Biso   1.000  C
  C231     1.0000 0.10340  0.49870  0.07558  Biso   1.000  C
  C232     1.0000 0.89660  0.49870  0.92442  Biso   1.000  C
  C233     1.0000 0.58093  0.98560  0.09407  Biso   1.000  C
  C234     1.0000 0.41907  0.98560  0.90593  Biso   1.000  C
  C235     1.0000 0.08093  0.48560  0.09407  Biso   1.000  C
  C236     1.0000 0.91907  0.48560  0.90593  Biso   1.000  C
  C237     1.0000 0.58685  0.00660  0.13604  Biso   1.000  C
  C238     1.0000 0.41315  0.00660  0.86396  Biso   1.000  C
  C239     1.0000 0.08685  0.50660  0.13604  Biso   1.000  C
  C240     1.0000 0.91315  0.50660  0.86396  Biso   1.000  C
  H65      1.0000 0.57170  0.99770  0.14850  Biso   1.000  H
  H66      1.0000 0.42830  0.99770  0.85150  Biso   1.000  H
  H67      1.0000 0.07170  0.49770  0.14850  Biso   1.000  H
  H68      1.0000 0.92830  0.49770  0.85150  Biso   1.000  H
  C241     1.0000 0.61524  0.04070  0.15953  Biso   1.000  C
  C242     1.0000 0.38476  0.04070  0.84047  Biso   1.000  C
  C243     1.0000 0.11524  0.54070  0.15953  Biso   1.000  C
  C244     1.0000 0.88476  0.54070  0.84047  Biso   1.000  C
  C245     1.0000 0.63771  0.05390  0.14104  Biso   1.000  C
  C246     1.0000 0.36229  0.05390  0.85896  Biso   1.000  C
  C247     1.0000 0.13771  0.55390  0.14104  Biso   1.000  C
  C248     1.0000 0.86229  0.55390  0.85896  Biso   1.000  C
  C249     1.0000 0.63179  0.03290  0.09906  Biso   1.000  C
  C250     1.0000 0.36821  0.03290  0.90094  Biso   1.000  C
  C251     1.0000 0.13179  0.53290  0.09906  Biso   1.000  C
  C252     1.0000 0.86821  0.53290  0.90094  Biso   1.000  C
  C253     1.0000 0.65380  0.04760  0.07990  Biso   1.000  C
  C254     1.0000 0.34620  0.04760  0.92010  Biso   1.000  C
  C255     1.0000 0.15380  0.54760  0.07990  Biso   1.000  C
  C256     1.0000 0.84620  0.54760  0.92010  Biso   1.000  C
  H69      1.0000 0.64940  0.03470  0.05130  Biso   1.000  H
  H70      1.0000 0.35060  0.03470  0.94870  Biso   1.000  H
  H71      1.0000 0.14940  0.53470  0.05130  Biso   1.000  H
  H72      1.0000 0.85060  0.53470  0.94870  Biso   1.000  H
  C257     1.0000 0.68190  0.08070  0.10270  Biso   1.000  C
  C258     1.0000 0.31810  0.08070  0.89730  Biso   1.000  C
  C259     1.0000 0.18190  0.58070  0.10270  Biso   1.000  C
  C260     1.0000 0.81810  0.58070  0.89730  Biso   1.000  C
  H73      1.0000 0.69690  0.08970  0.09000  Biso   1.000  H
  H74      1.0000 0.30310  0.08970  0.91000  Biso   1.000  H
  H75      1.0000 0.19690  0.58970  0.09000  Biso   1.000  H
  H76      1.0000 0.80310  0.58970  0.91000  Biso   1.000  H
  C261     1.0000 0.68800  0.10060  0.14430  Biso   1.000  C
  C262     1.0000 0.31200  0.10060  0.85570  Biso   1.000  C
  C263     1.0000 0.18800  0.60060  0.14430  Biso   1.000  C
  C264     1.0000 0.81200  0.60060  0.85570  Biso   1.000  C
  C265     1.0000 0.66530  0.08960  0.16300  Biso   1.000  C
  C266     1.0000 0.33470  0.08960  0.83700  Biso   1.000  C
  C267     1.0000 0.16530  0.58960  0.16300  Biso   1.000  C
  C268     1.0000 0.83470  0.58960  0.83700  Biso   1.000  C
  H77      1.0000 0.66900  0.10680  0.19070  Biso   1.000  H
  H78      1.0000 0.33100  0.10680  0.80930  Biso   1.000  H
  H79      1.0000 0.16900  0.60680  0.19070  Biso   1.000  H
  H80      1.0000 0.83100  0.60680  0.80930  Biso   1.000  H
  C269     1.0000 0.59487  0.98050  0.02982  Biso   1.000  C
  C270     1.0000 0.40513  0.98050  0.97018  Biso   1.000  C
  C271     1.0000 0.09487  0.48050  0.02982  Biso   1.000  C
  C272     1.0000 0.90513  0.48050  0.97018  Biso   1.000  C
  C273     1.0000 0.61152  0.92510  0.01922  Biso   1.000  C
  C274     1.0000 0.38848  0.92510  0.98078  Biso   1.000  C
  C275     1.0000 0.11152  0.42510  0.01922  Biso   1.000  C
  C276     1.0000 0.88848  0.42510  0.98078  Biso   1.000  C
  C277     1.0000 0.60551  0.90880  0.97654  Biso   1.000  C
  C278     1.0000 0.39449  0.90880  0.02346  Biso   1.000  C
  C279     1.0000 0.10551  0.40880  0.97654  Biso   1.000  C
  C280     1.0000 0.89449  0.40880  0.02346  Biso   1.000  C
  H81      1.0000 0.61670  0.87150  0.96940  Biso   1.000  H
  H82      1.0000 0.38330  0.87150  0.03060  Biso   1.000  H
  H83      1.0000 0.11670  0.37150  0.96940  Biso   1.000  H
  H84      1.0000 0.88330  0.37150  0.03060  Biso   1.000  H
  C281     1.0000 0.58285  0.94800  0.94445  Biso   1.000  C
  C282     1.0000 0.41715  0.94800  0.05555  Biso   1.000  C
  C283     1.0000 0.08285  0.44800  0.94445  Biso   1.000  C
  C284     1.0000 0.91715  0.44800  0.05555  Biso   1.000  C
  C285     1.0000 0.56620  0.00340  0.95505  Biso   1.000  C
  C286     1.0000 0.43380  0.00340  0.04495  Biso   1.000  C
  C287     1.0000 0.06620  0.50340  0.95505  Biso   1.000  C
  C288     1.0000 0.93380  0.50340  0.04495  Biso   1.000  C
  C289     1.0000 0.57221  0.01970  0.99773  Biso   1.000  C
  C290     1.0000 0.42779  0.01970  0.00227  Biso   1.000  C
  C291     1.0000 0.07221  0.51970  0.99773  Biso   1.000  C
  C292     1.0000 0.92779  0.51970  0.00227  Biso   1.000  C
  C293     1.0000 0.55460  0.07310  0.00700  Biso   1.000  C
  C294     1.0000 0.44540  0.07310  0.99300  Biso   1.000  C
  C295     1.0000 0.05460  0.57310  0.00700  Biso   1.000  C
  C296     1.0000 0.94540  0.57310  0.99300  Biso   1.000  C
  H85      1.0000 0.55820  0.08370  0.03570  Biso   1.000  H
  H86      1.0000 0.44180  0.08370  0.96430  Biso   1.000  H
  H87      1.0000 0.05820  0.58370  0.03570  Biso   1.000  H
  H88      1.0000 0.94180  0.58370  0.96430  Biso   1.000  H
  C297     1.0000 0.53230  0.11080  0.97600  Biso   1.000  C
  C298     1.0000 0.46770  0.11080  0.02400  Biso   1.000  C
  C299     1.0000 0.03230  0.61080  0.97600  Biso   1.000  C
  C300     1.0000 0.96770  0.61080  0.02400  Biso   1.000  C
  H89      1.0000 0.52070  0.14700  0.98340  Biso   1.000  H
  H90      1.0000 0.47930  0.14700  0.01660  Biso   1.000  H
  H91      1.0000 0.02070  0.64700  0.98340  Biso   1.000  H
  H92      1.0000 0.97930  0.64700  0.01660  Biso   1.000  H
  C301     1.0000 0.52640  0.09590  0.93260  Biso   1.000  C
  C302     1.0000 0.47360  0.09590  0.06740  Biso   1.000  C
  C303     1.0000 0.02640  0.59590  0.93260  Biso   1.000  C
  C304     1.0000 0.97360  0.59590  0.06740  Biso   1.000  C
  C305     1.0000 0.54410  0.04190  0.92260  Biso   1.000  C
  C306     1.0000 0.45590  0.04190  0.07740  Biso   1.000  C
  C307     1.0000 0.04410  0.54190  0.92260  Biso   1.000  C
  C308     1.0000 0.95590  0.54190  0.07740  Biso   1.000  C
  H93      1.0000 0.54110  0.03190  0.89400  Biso   1.000  H
  H94      1.0000 0.45890  0.03190  0.10600  Biso   1.000  H
  H95      1.0000 0.04110  0.53190  0.89400  Biso   1.000  H
  H96      1.0000 0.95890  0.53190  0.10600  Biso   1.000  H
  C309     1.0000 0.93130  0.09920  0.19730  Biso   1.000  C
  C310     1.0000 0.06870  0.09920  0.80270  Biso   1.000  C
  C311     1.0000 0.43130  0.59920  0.19730  Biso   1.000  C
  C312     1.0000 0.56870  0.59920  0.80270  Biso   1.000  C
  C313     1.0000 0.93265  0.04110  0.22430  Biso   1.000  C
  C314     1.0000 0.06735  0.04110  0.77570  Biso   1.000  C
  C315     1.0000 0.43265  0.54110  0.22430  Biso   1.000  C
  C316     1.0000 0.56735  0.54110  0.77570  Biso   1.000  C
  H97      1.0000 0.95230  0.02130  0.24100  Biso   1.000  H
  H98      1.0000 0.04770  0.02130  0.75900  Biso   1.000  H
  H99      1.0000 0.45230  0.52130  0.24100  Biso   1.000  H
  H100     1.0000 0.54770  0.52130  0.75900  Biso   1.000  H
  C317     1.0000 0.90483  0.01250  0.22640  Biso   1.000  C
  C318     1.0000 0.09517  0.01250  0.77360  Biso   1.000  C
  C319     1.0000 0.40483  0.51250  0.22640  Biso   1.000  C
  C320     1.0000 0.59517  0.51250  0.77360  Biso   1.000  C
  H101     1.0000 0.90570  0.97340  0.24460  Biso   1.000  H
  H102     1.0000 0.09430  0.97340  0.75540  Biso   1.000  H
  H103     1.0000 0.40570  0.47340  0.24460  Biso   1.000  H
  H104     1.0000 0.59430  0.47340  0.75540  Biso   1.000  H
  N21      1.0000 0.87565  0.04190  0.20158  Biso   1.000  N
  N22      1.0000 0.12435  0.04190  0.79842  Biso   1.000  N
  N23      1.0000 0.37565  0.54190  0.20158  Biso   1.000  N
  N24      1.0000 0.62435  0.54190  0.79842  Biso   1.000  N
  C321     1.0000 0.87430  0.09990  0.17460  Biso   1.000  C
  C322     1.0000 0.12570  0.09990  0.82540  Biso   1.000  C
  C323     1.0000 0.37430  0.59990  0.17460  Biso   1.000  C
  C324     1.0000 0.62570  0.59990  0.82540  Biso   1.000  C
  H105     1.0000 0.85460  0.11980  0.15780  Biso   1.000  H
  H106     1.0000 0.14540  0.11980  0.84220  Biso   1.000  H
  H107     1.0000 0.35460  0.61980  0.15780  Biso   1.000  H
  H108     1.0000 0.64540  0.61980  0.84220  Biso   1.000  H
  C325     1.0000 0.90213  0.12860  0.17240  Biso   1.000  C
  C326     1.0000 0.09787  0.12860  0.82760  Biso   1.000  C
  C327     1.0000 0.40213  0.62860  0.17240  Biso   1.000  C
  C328     1.0000 0.59787  0.62860  0.82760  Biso   1.000  C
  H109     1.0000 0.90120  0.16770  0.15430  Biso   1.000  H
  H110     1.0000 0.09880  0.16770  0.84570  Biso   1.000  H
  H111     1.0000 0.40120  0.66770  0.15430  Biso   1.000  H
  H112     1.0000 0.59880  0.66770  0.84570  Biso   1.000  H
  C329     1.0000 0.95543  0.13780  0.19120  Biso   1.000  C
  C330     1.0000 0.04457  0.13780  0.80880  Biso   1.000  C
  C331     1.0000 0.45543  0.63780  0.19120  Biso   1.000  C
  C332     1.0000 0.54457  0.63780  0.80880  Biso   1.000  C
  C333     1.0000 0.97930  0.16200  0.19130  Biso   1.000  C
  C334     1.0000 0.02070  0.16200  0.80870  Biso   1.000  C
  C335     1.0000 0.47930  0.66200  0.19130  Biso   1.000  C
  C336     1.0000 0.52070  0.66200  0.80870  Biso   1.000  C
  C337     1.0000 0.17630  0.40150  0.19670  Biso   1.000  C
  C338     1.0000 0.82370  0.40150  0.80330  Biso   1.000  C
  C339     1.0000 0.67630  0.90150  0.19670  Biso   1.000  C
  C340     1.0000 0.32370  0.90150  0.80330  Biso   1.000  C
  C341     1.0000 0.20140  0.41260  0.19880  Biso   1.000  C
  C342     1.0000 0.79860  0.41260  0.80120  Biso   1.000  C
  C343     1.0000 0.70140  0.91260  0.19880  Biso   1.000  C
  C344     1.0000 0.29860  0.91260  0.80120  Biso   1.000  C
  C345     1.0000 0.23255  0.43230  0.20120  Biso   1.000  C
  C346     1.0000 0.76745  0.43230  0.79880  Biso   1.000  C
  C347     1.0000 0.73255  0.93230  0.20120  Biso   1.000  C
  C348     1.0000 0.26745  0.93230  0.79880  Biso   1.000  C
  C349     1.0000 0.24824  0.48970  0.22700  Biso   1.000  C
  C350     1.0000 0.75176  0.48970  0.77300  Biso   1.000  C
  C351     1.0000 0.74824  0.98970  0.22700  Biso   1.000  C
  C352     1.0000 0.25176  0.98970  0.77300  Biso   1.000  C
  H113     1.0000 0.23870  0.51450  0.24350  Biso   1.000  H
  H114     1.0000 0.76130  0.51450  0.75650  Biso   1.000  H
  H115     1.0000 0.73870  0.01450  0.24350  Biso   1.000  H
  H116     1.0000 0.26130  0.01450  0.75650  Biso   1.000  H
  C353     1.0000 0.27815  0.51040  0.22830  Biso   1.000  C
  C354     1.0000 0.72185  0.51040  0.77170  Biso   1.000  C
  C355     1.0000 0.77815  0.01040  0.22830  Biso   1.000  C
  C356     1.0000 0.22185  0.01040  0.77170  Biso   1.000  C
  H117     1.0000 0.28870  0.54910  0.24570  Biso   1.000  H
  H118     1.0000 0.71130  0.54910  0.75430  Biso   1.000  H
  H119     1.0000 0.78870  0.04910  0.24570  Biso   1.000  H
  H120     1.0000 0.21130  0.04910  0.75430  Biso   1.000  H
  N25      1.0000 0.29235  0.47360  0.20380  Biso   1.000  N
  N26      1.0000 0.70765  0.47360  0.79620  Biso   1.000  N
  N27      1.0000 0.79235  0.97360  0.20380  Biso   1.000  N
  N28      1.0000 0.20765  0.97360  0.79620  Biso   1.000  N
  C357     1.0000 0.27666  0.41610  0.17800  Biso   1.000  C
  C358     1.0000 0.72334  0.41610  0.82200  Biso   1.000  C
  C359     1.0000 0.77666  0.91610  0.17800  Biso   1.000  C
  C360     1.0000 0.22334  0.91610  0.82200  Biso   1.000  C
  H121     1.0000 0.28620  0.39130  0.16150  Biso   1.000  H
  H122     1.0000 0.71380  0.39130  0.83850  Biso   1.000  H
  H123     1.0000 0.78620  0.89130  0.16150  Biso   1.000  H
  H124     1.0000 0.21380  0.89130  0.83850  Biso   1.000  H
  C361     1.0000 0.24675  0.39550  0.17670  Biso   1.000  C
  C362     1.0000 0.75325  0.39550  0.82330  Biso   1.000  C
  C363     1.0000 0.74675  0.89550  0.17670  Biso   1.000  C
  C364     1.0000 0.25325  0.89550  0.82330  Biso   1.000  C
  H125     1.0000 0.23620  0.35670  0.15930  Biso   1.000  H
  H126     1.0000 0.76380  0.35670  0.84070  Biso   1.000  H
  H127     1.0000 0.73620  0.85670  0.15930  Biso   1.000  H
  H128     1.0000 0.26380  0.85670  0.84070  Biso   1.000  H
  C365     1.0000 0.35870  0.41690  0.70420  Biso   1.000  C
  C366     1.0000 0.64130  0.41690  0.29580  Biso   1.000  C
  C367     1.0000 0.85870  0.91690  0.70420  Biso   1.000  C
  C368     1.0000 0.14130  0.91690  0.29580  Biso   1.000  C
  H129     1.0000 0.33970  0.39910  0.70550  Biso   1.000  H
  H130     1.0000 0.66030  0.39910  0.29450  Biso   1.000  H
  H131     1.0000 0.83970  0.89910  0.70550  Biso   1.000  H
  H132     1.0000 0.16030  0.89910  0.29450  Biso   1.000  H
  C369     1.0000 0.38140  0.37130  0.70110  Biso   1.000  C
  C370     1.0000 0.61860  0.37130  0.29890  Biso   1.000  C
  C371     1.0000 0.88140  0.87130  0.70110  Biso   1.000  C
  C372     1.0000 0.11860  0.87130  0.29890  Biso   1.000  C
  H133     1.0000 0.37830  0.32110  0.70130  Biso   1.000  H
  H134     1.0000 0.62170  0.32110  0.29870  Biso   1.000  H
  H135     1.0000 0.87830  0.82110  0.70130  Biso   1.000  H
  H136     1.0000 0.12170  0.82110  0.29870  Biso   1.000  H
  C373     1.0000 0.33991  0.53650  0.70360  Biso   1.000  C
  C374     1.0000 0.66009  0.53650  0.29640  Biso   1.000  C
  C375     1.0000 0.83991  0.03650  0.70360  Biso   1.000  C
  C376     1.0000 0.16009  0.03650  0.29640  Biso   1.000  C
  C377     1.0000 0.34279  0.61070  0.69890  Biso   1.000  C
  C378     1.0000 0.65721  0.61070  0.30110  Biso   1.000  C
  C379     1.0000 0.84279  0.11070  0.69890  Biso   1.000  C
  C380     1.0000 0.15721  0.11070  0.30110  Biso   1.000  C
  C381     1.0000 0.37040  0.63880  0.69590  Biso   1.000  C
  C382     1.0000 0.62960  0.63880  0.30410  Biso   1.000  C
  C383     1.0000 0.87040  0.13880  0.69590  Biso   1.000  C
  C384     1.0000 0.12960  0.13880  0.30410  Biso   1.000  C
  H137     1.0000 0.37240  0.68880  0.69270  Biso   1.000  H
  H138     1.0000 0.62760  0.68880  0.30730  Biso   1.000  H
  H139     1.0000 0.87240  0.18880  0.69270  Biso   1.000  H
  H140     1.0000 0.12760  0.18880  0.30730  Biso   1.000  H
  C385     1.0000 0.39520  0.59270  0.69760  Biso   1.000  C
  C386     1.0000 0.60480  0.59270  0.30240  Biso   1.000  C
  C387     1.0000 0.89520  0.09270  0.69760  Biso   1.000  C
  C388     1.0000 0.10480  0.09270  0.30240  Biso   1.000  C
  C389     1.0000 0.39232  0.51850  0.70240  Biso   1.000  C
  C390     1.0000 0.60768  0.51850  0.29760  Biso   1.000  C
  C391     1.0000 0.89232  0.01850  0.70240  Biso   1.000  C
  C392     1.0000 0.10768  0.01850  0.29760  Biso   1.000  C
  C393     1.0000 0.36467  0.49040  0.70530  Biso   1.000  C
  C394     1.0000 0.63533  0.49040  0.29470  Biso   1.000  C
  C395     1.0000 0.86467  0.99040  0.70530  Biso   1.000  C
  C396     1.0000 0.13533  0.99040  0.29470  Biso   1.000  C
  C397     1.0000 0.40850  0.39720  0.69760  Biso   1.000  C
  C398     1.0000 0.59150  0.39720  0.30240  Biso   1.000  C
  C399     1.0000 0.90850  0.89720  0.69760  Biso   1.000  C
  C400     1.0000 0.09150  0.89720  0.30240  Biso   1.000  C
  C401     1.0000 0.41610  0.47120  0.70260  Biso   1.000  C
  C402     1.0000 0.58390  0.47120  0.29740  Biso   1.000  C
  C403     1.0000 0.91610  0.97120  0.70260  Biso   1.000  C
  C404     1.0000 0.08390  0.97120  0.29740  Biso   1.000  C
  H141     1.0000 0.43640  0.48790  0.70590  Biso   1.000  H
  H142     1.0000 0.56360  0.48790  0.29410  Biso   1.000  H
  H143     1.0000 0.93640  0.98790  0.70590  Biso   1.000  H
  H144     1.0000 0.06360  0.98790  0.29410  Biso   1.000  H
  C405     1.0000 0.25043  0.46730  0.69690  Biso   1.000  C
  C406     1.0000 0.74957  0.46730  0.30310  Biso   1.000  C
  C407     1.0000 0.75043  0.96730  0.69690  Biso   1.000  C
  C408     1.0000 0.24957  0.96730  0.30310  Biso   1.000  C
  C409     1.0000 0.27530  0.47170  0.73613  Biso   1.000  C
  C410     1.0000 0.72470  0.47170  0.26387  Biso   1.000  C
  C411     1.0000 0.77530  0.97170  0.73613  Biso   1.000  C
  C412     1.0000 0.22470  0.97170  0.26387  Biso   1.000  C
  H145     1.0000 0.27200  0.45890  0.76120  Biso   1.000  H
  H146     1.0000 0.72800  0.45890  0.23880  Biso   1.000  H
  H147     1.0000 0.77200  0.95890  0.76120  Biso   1.000  H
  H148     1.0000 0.22800  0.95890  0.23880  Biso   1.000  H
  C413     1.0000 0.30505  0.49510  0.73814  Biso   1.000  C
  C414     1.0000 0.69495  0.49510  0.26186  Biso   1.000  C
  C415     1.0000 0.80505  0.99510  0.73814  Biso   1.000  C
  C416     1.0000 0.19495  0.99510  0.26186  Biso   1.000  C
  C417     1.0000 0.30992  0.51400  0.70090  Biso   1.000  C
  C418     1.0000 0.69008  0.51400  0.29910  Biso   1.000  C
  C419     1.0000 0.80992  0.01400  0.70090  Biso   1.000  C
  C420     1.0000 0.19008  0.01400  0.29910  Biso   1.000  C
  C421     1.0000 0.28505  0.50960  0.66164  Biso   1.000  C
  C422     1.0000 0.71495  0.50960  0.33836  Biso   1.000  C
  C423     1.0000 0.78505  0.00960  0.66164  Biso   1.000  C
  C424     1.0000 0.21495  0.00960  0.33836  Biso   1.000  C
  C425     1.0000 0.25530  0.48630  0.65963  Biso   1.000  C
  C426     1.0000 0.74470  0.48630  0.34037  Biso   1.000  C
  C427     1.0000 0.75530  0.98630  0.65963  Biso   1.000  C
  C428     1.0000 0.24470  0.98630  0.34037  Biso   1.000  C
  C429     1.0000 0.23020  0.47960  0.62000  Biso   1.000  C
  C430     1.0000 0.76980  0.47960  0.38000  Biso   1.000  C
  C431     1.0000 0.73020  0.97960  0.62000  Biso   1.000  C
  C432     1.0000 0.26980  0.97960  0.38000  Biso   1.000  C
  H149     1.0000 0.21080  0.46020  0.61900  Biso   1.000  H
  H150     1.0000 0.78920  0.46020  0.38100  Biso   1.000  H
  H151     1.0000 0.71080  0.96020  0.61900  Biso   1.000  H
  H152     1.0000 0.28920  0.96020  0.38100  Biso   1.000  H
  C433     1.0000 0.23370  0.50090  0.58300  Biso   1.000  C
  C434     1.0000 0.76630  0.50090  0.41700  Biso   1.000  C
  C435     1.0000 0.73370  0.00090  0.58300  Biso   1.000  C
  C436     1.0000 0.26630  0.00090  0.41700  Biso   1.000  C
  C437     1.0000 0.26260  0.53120  0.58500  Biso   1.000  C
  C438     1.0000 0.73740  0.53120  0.41500  Biso   1.000  C
  C439     1.0000 0.76260  0.03120  0.58500  Biso   1.000  C
  C440     1.0000 0.23740  0.03120  0.41500  Biso   1.000  C
  H153     1.0000 0.26480  0.55150  0.56070  Biso   1.000  H
  H154     1.0000 0.73520  0.55150  0.43930  Biso   1.000  H
  H155     1.0000 0.76480  0.05150  0.56070  Biso   1.000  H
  H156     1.0000 0.23520  0.05150  0.43930  Biso   1.000  H
  C441     1.0000 0.28790  0.53080  0.62360  Biso   1.000  C
  C442     1.0000 0.71210  0.53080  0.37640  Biso   1.000  C
  C443     1.0000 0.78790  0.03080  0.62360  Biso   1.000  C
  C444     1.0000 0.21210  0.03080  0.37640  Biso   1.000  C
  H157     1.0000 0.30790  0.54540  0.62410  Biso   1.000  H
  H158     1.0000 0.69210  0.54540  0.37590  Biso   1.000  H
  H159     1.0000 0.80790  0.04540  0.62410  Biso   1.000  H
  H160     1.0000 0.19210  0.04540  0.37590  Biso   1.000  H
  C445     1.0000 0.79170  0.02550  0.05195  Biso   1.000  C
  C446     1.0000 0.20830  0.02550  0.94805  Biso   1.000  C
  C447     1.0000 0.29170  0.52550  0.05195  Biso   1.000  C
  C448     1.0000 0.70830  0.52550  0.94805  Biso   1.000  C
  C449     1.0000 0.77980  0.06670  0.07750  Biso   1.000  C
  C450     1.0000 0.22020  0.06670  0.92250  Biso   1.000  C
  C451     1.0000 0.27980  0.56670  0.07750  Biso   1.000  C
  C452     1.0000 0.72020  0.56670  0.92250  Biso   1.000  C
  H161     1.0000 0.76350  0.10020  0.06490  Biso   1.000  H
  H162     1.0000 0.23650  0.10020  0.93510  Biso   1.000  H
  H163     1.0000 0.26350  0.60020  0.06490  Biso   1.000  H
  H164     1.0000 0.73650  0.60020  0.93510  Biso   1.000  H
  C453     1.0000 0.79212  0.05810  0.12160  Biso   1.000  C
  C454     1.0000 0.20788  0.05810  0.87840  Biso   1.000  C
  C455     1.0000 0.29212  0.55810  0.12160  Biso   1.000  C
  C456     1.0000 0.70788  0.55810  0.87840  Biso   1.000  C
  H165     1.0000 0.78410  0.08590  0.13880  Biso   1.000  H
  H166     1.0000 0.21590  0.08590  0.86120  Biso   1.000  H
  H167     1.0000 0.28410  0.58590  0.13880  Biso   1.000  H
  H168     1.0000 0.71590  0.58590  0.86120  Biso   1.000  H
  N29      1.0000 0.81631  0.00840  0.14026  Biso   1.000  N
  N30      1.0000 0.18369  0.00840  0.85974  Biso   1.000  N
  N31      1.0000 0.31631  0.50840  0.14026  Biso   1.000  N
  N32      1.0000 0.68369  0.50840  0.85974  Biso   1.000  N
  C457     1.0000 0.82819  0.96730  0.11470  Biso   1.000  C
  C458     1.0000 0.17181  0.96730  0.88530  Biso   1.000  C
  C459     1.0000 0.32819  0.46730  0.11470  Biso   1.000  C
  C460     1.0000 0.67181  0.46730  0.88530  Biso   1.000  C
  H169     1.0000 0.84450  0.93380  0.12730  Biso   1.000  H
  H170     1.0000 0.15550  0.93380  0.87270  Biso   1.000  H
  H171     1.0000 0.34450  0.43380  0.12730  Biso   1.000  H
  H172     1.0000 0.65550  0.43380  0.87270  Biso   1.000  H
  C461     1.0000 0.81590  0.97580  0.07060  Biso   1.000  C
  C462     1.0000 0.18410  0.97580  0.92940  Biso   1.000  C
  C463     1.0000 0.31590  0.47580  0.07060  Biso   1.000  C
  C464     1.0000 0.68410  0.47580  0.92940  Biso   1.000  C
  H173     1.0000 0.82390  0.94810  0.05340  Biso   1.000  H
  H174     1.0000 0.17610  0.94810  0.94660  Biso   1.000  H
  H175     1.0000 0.32390  0.44810  0.05340  Biso   1.000  H
  H176     1.0000 0.67610  0.44810  0.94660  Biso   1.000  H
  C465     1.0000 0.77240  0.03890  0.97140  Biso   1.000  C
  C466     1.0000 0.22760  0.03890  0.02860  Biso   1.000  C
  C467     1.0000 0.27240  0.53890  0.97140  Biso   1.000  C
  C468     1.0000 0.72760  0.53890  0.02860  Biso   1.000  C
  C469     1.0000 0.77860  0.02020  0.00690  Biso   1.000  C
  C470     1.0000 0.22140  0.02020  0.99310  Biso   1.000  C
  C471     1.0000 0.27860  0.52020  0.00690  Biso   1.000  C
  C472     1.0000 0.72140  0.52020  0.99310  Biso   1.000  C
  C473     1.0000 0.67910  0.13470  0.57885  Biso   1.000  C
  C474     1.0000 0.32090  0.13470  0.42115  Biso   1.000  C
  C475     1.0000 0.17910  0.63470  0.57885  Biso   1.000  C
  C476     1.0000 0.82090  0.63470  0.42115  Biso   1.000  C
  C477     1.0000 0.64980  0.10730  0.55280  Biso   1.000  C
  C478     1.0000 0.35020  0.10730  0.44720  Biso   1.000  C
  C479     1.0000 0.14980  0.60730  0.55280  Biso   1.000  C
  C480     1.0000 0.85020  0.60730  0.44720  Biso   1.000  C
  H177     1.0000 0.63590  0.08810  0.56500  Biso   1.000  H
  H178     1.0000 0.36410  0.08810  0.43500  Biso   1.000  H
  H179     1.0000 0.13590  0.58810  0.56500  Biso   1.000  H
  H180     1.0000 0.86410  0.58810  0.43500  Biso   1.000  H
  C481     1.0000 0.64120  0.10850  0.50860  Biso   1.000  C
  C482     1.0000 0.35880  0.10850  0.49140  Biso   1.000  C
  C483     1.0000 0.14120  0.60850  0.50860  Biso   1.000  C
  C484     1.0000 0.85880  0.60850  0.49140  Biso   1.000  C
  H181     1.0000 0.62150  0.09000  0.49110  Biso   1.000  H
  H182     1.0000 0.37850  0.09000  0.50890  Biso   1.000  H
  H183     1.0000 0.12150  0.59000  0.49110  Biso   1.000  H
  H184     1.0000 0.87850  0.59000  0.50890  Biso   1.000  H
  N33      1.0000 0.66180  0.13700  0.49046  Biso   1.000  N
  N34      1.0000 0.33820  0.13700  0.50954  Biso   1.000  N
  N35      1.0000 0.16180  0.63700  0.49046  Biso   1.000  N
  N36      1.0000 0.83820  0.63700  0.50954  Biso   1.000  N
  C485     1.0000 0.69110  0.16440  0.51650  Biso   1.000  C
  C486     1.0000 0.30890  0.16440  0.48350  Biso   1.000  C
  C487     1.0000 0.19110  0.66440  0.51650  Biso   1.000  C
  C488     1.0000 0.80890  0.66440  0.48350  Biso   1.000  C
  H185     1.0000 0.70500  0.18360  0.50430  Biso   1.000  H
  H186     1.0000 0.29500  0.18360  0.49570  Biso   1.000  H
  H187     1.0000 0.20500  0.68360  0.50430  Biso   1.000  H
  H188     1.0000 0.79500  0.68360  0.49570  Biso   1.000  H
  C489     1.0000 0.69970  0.16320  0.56070  Biso   1.000  C
  C490     1.0000 0.30030  0.16320  0.43930  Biso   1.000  C
  C491     1.0000 0.19970  0.66320  0.56070  Biso   1.000  C
  C492     1.0000 0.80030  0.66320  0.43930  Biso   1.000  C
  H189     1.0000 0.71950  0.18170  0.57820  Biso   1.000  H
  H190     1.0000 0.28050  0.18170  0.42180  Biso   1.000  H
  H191     1.0000 0.21950  0.68170  0.57820  Biso   1.000  H
  H192     1.0000 0.78050  0.68170  0.42180  Biso   1.000  H
  C493     1.0000 0.69600  0.12050  0.66070  Biso   1.000  C
  C494     1.0000 0.30400  0.12050  0.33930  Biso   1.000  C
  C495     1.0000 0.19600  0.62050  0.66070  Biso   1.000  C
  C496     1.0000 0.80400  0.62050  0.33930  Biso   1.000  C
  C497     1.0000 0.68740  0.13550  0.62380  Biso   1.000  C
  C498     1.0000 0.31260  0.13550  0.37620  Biso   1.000  C
  C499     1.0000 0.18740  0.63550  0.62380  Biso   1.000  C
  C500     1.0000 0.81260  0.63550  0.37620  Biso   1.000  C
  C501     1.0000 0.63130  0.08930  0.28057  Biso   1.000  C
  C502     1.0000 0.36870  0.08930  0.71943  Biso   1.000  C
  C503     1.0000 0.13130  0.58930  0.28057  Biso   1.000  C
  C504     1.0000 0.86870  0.58930  0.71943  Biso   1.000  C
  C505     1.0000 0.65991  0.11960  0.30690  Biso   1.000  C
  C506     1.0000 0.34009  0.11960  0.69310  Biso   1.000  C
  C507     1.0000 0.15991  0.61960  0.30690  Biso   1.000  C
  C508     1.0000 0.84009  0.61960  0.69310  Biso   1.000  C
  H193     1.0000 0.67550  0.13130  0.29570  Biso   1.000  H
  H194     1.0000 0.32450  0.13130  0.70430  Biso   1.000  H
  H195     1.0000 0.17550  0.63130  0.29570  Biso   1.000  H
  H196     1.0000 0.82450  0.63130  0.70430  Biso   1.000  H
  C509     1.0000 0.66530  0.13240  0.34980  Biso   1.000  C
  C510     1.0000 0.33470  0.13240  0.65020  Biso   1.000  C
  C511     1.0000 0.16530  0.63240  0.34980  Biso   1.000  C
  C512     1.0000 0.83470  0.63240  0.65020  Biso   1.000  C
  H197     1.0000 0.68450  0.15280  0.36750  Biso   1.000  H
  H198     1.0000 0.31550  0.15280  0.63250  Biso   1.000  H
  H199     1.0000 0.18450  0.65280  0.36750  Biso   1.000  H
  H200     1.0000 0.81550  0.65280  0.63250  Biso   1.000  H
  N37      1.0000 0.64210  0.11500  0.36635  Biso   1.000  N
  N38      1.0000 0.35790  0.11500  0.63365  Biso   1.000  N
  N39      1.0000 0.14210  0.61500  0.36635  Biso   1.000  N
  N40      1.0000 0.85790  0.61500  0.63365  Biso   1.000  N
  C513     1.0000 0.61357  0.08470  0.34000  Biso   1.000  C
  C514     1.0000 0.38643  0.08470  0.66000  Biso   1.000  C
  C515     1.0000 0.11357  0.58470  0.34000  Biso   1.000  C
  C516     1.0000 0.88643  0.58470  0.66000  Biso   1.000  C
  H201     1.0000 0.59800  0.07300  0.35120  Biso   1.000  H
  H202     1.0000 0.40200  0.07300  0.64880  Biso   1.000  H
  H203     1.0000 0.09800  0.57300  0.35120  Biso   1.000  H
  H204     1.0000 0.90200  0.57300  0.64880  Biso   1.000  H
  C517     1.0000 0.60818  0.07190  0.29720  Biso   1.000  C
  C518     1.0000 0.39182  0.07190  0.70280  Biso   1.000  C
  C519     1.0000 0.10818  0.57190  0.29720  Biso   1.000  C
  C520     1.0000 0.89182  0.57190  0.70280  Biso   1.000  C
  H205     1.0000 0.58890  0.05150  0.27940  Biso   1.000  H
  H206     1.0000 0.41110  0.05150  0.72060  Biso   1.000  H
  H207     1.0000 0.08890  0.55150  0.27940  Biso   1.000  H
  H208     1.0000 0.91110  0.55150  0.72060  Biso   1.000  H
  C521     1.0000 0.44790  0.66000  0.70050  Biso   1.000  C
  C522     1.0000 0.55210  0.66000  0.29950  Biso   1.000  C
  C523     1.0000 0.94790  0.16000  0.70050  Biso   1.000  C
  C524     1.0000 0.05210  0.16000  0.29950  Biso   1.000  C
  C525     1.0000 0.62220  0.06060  0.20270  Biso   1.000  C
  C526     1.0000 0.37780  0.06060  0.79730  Biso   1.000  C
  C527     1.0000 0.12220  0.56060  0.20270  Biso   1.000  C
  C528     1.0000 0.87780  0.56060  0.79730  Biso   1.000  C
  C529     1.0000 0.62670  0.07360  0.23850  Biso   1.000  C
  C530     1.0000 0.37330  0.07360  0.76150  Biso   1.000  C
  C531     1.0000 0.12670  0.57360  0.23850  Biso   1.000  C
  C532     1.0000 0.87330  0.57360  0.76150  Biso   1.000  C
  C533     1.0000 0.57640  0.91560  0.86710  Biso   1.000  C
  C534     1.0000 0.42360  0.91560  0.13290  Biso   1.000  C
  C535     1.0000 0.07640  0.41560  0.86710  Biso   1.000  C
  C536     1.0000 0.92360  0.41560  0.13290  Biso   1.000  C
  C537     1.0000 0.57680  0.93520  0.90170  Biso   1.000  C
  C538     1.0000 0.42320  0.93520  0.09830  Biso   1.000  C
  C539     1.0000 0.07680  0.43520  0.90170  Biso   1.000  C
  C540     1.0000 0.92320  0.43520  0.09830  Biso   1.000  C
  C541     1.0000 0.57440  0.89170  0.82545  Biso   1.000  C
  C542     1.0000 0.42560  0.89170  0.17455  Biso   1.000  C
  C543     1.0000 0.07440  0.39170  0.82545  Biso   1.000  C
  C544     1.0000 0.92560  0.39170  0.17455  Biso   1.000  C
  C545     1.0000 0.58126  0.81940  0.82102  Biso   1.000  C
  C546     1.0000 0.41874  0.81940  0.17898  Biso   1.000  C
  C547     1.0000 0.08126  0.31940  0.82102  Biso   1.000  C
  C548     1.0000 0.91874  0.31940  0.17898  Biso   1.000  C
  H209     1.0000 0.58640  0.78800  0.84450  Biso   1.000  H
  H210     1.0000 0.41360  0.78800  0.15550  Biso   1.000  H
  H211     1.0000 0.08640  0.28800  0.84450  Biso   1.000  H
  H212     1.0000 0.91360  0.28800  0.15550  Biso   1.000  H
  C549     1.0000 0.58047  0.79360  0.78170  Biso   1.000  C
  C550     1.0000 0.41953  0.79360  0.21830  Biso   1.000  C
  C551     1.0000 0.08047  0.29360  0.78170  Biso   1.000  C
  C552     1.0000 0.91953  0.29360  0.21830  Biso   1.000  C
  H213     1.0000 0.58510  0.74490  0.77870  Biso   1.000  H
  H214     1.0000 0.41490  0.74490  0.22130  Biso   1.000  H
  H215     1.0000 0.08510  0.24490  0.77870  Biso   1.000  H
  H216     1.0000 0.91490  0.24490  0.22130  Biso   1.000  H
  N41      1.0000 0.57282  0.84010  0.74686  Biso   1.000  N
  N42      1.0000 0.42718  0.84010  0.25314  Biso   1.000  N
  N43      1.0000 0.07282  0.34010  0.74686  Biso   1.000  N
  N44      1.0000 0.92718  0.34010  0.25314  Biso   1.000  N
  C553     1.0000 0.56596  0.91240  0.75129  Biso   1.000  C
  C554     1.0000 0.43404  0.91240  0.24871  Biso   1.000  C
  C555     1.0000 0.06596  0.41240  0.75129  Biso   1.000  C
  C556     1.0000 0.93404  0.41240  0.24871  Biso   1.000  C
  H217     1.0000 0.56080  0.94380  0.72780  Biso   1.000  H
  H218     1.0000 0.43920  0.94380  0.27220  Biso   1.000  H
  H219     1.0000 0.06080  0.44380  0.72780  Biso   1.000  H
  H220     1.0000 0.93920  0.44380  0.27220  Biso   1.000  H
  C557     1.0000 0.56675  0.93820  0.79060  Biso   1.000  C
  C558     1.0000 0.43325  0.93820  0.20940  Biso   1.000  C
  C559     1.0000 0.06675  0.43820  0.79060  Biso   1.000  C
  C560     1.0000 0.93325  0.43820  0.20940  Biso   1.000  C
  H221     1.0000 0.56210  0.98690  0.79360  Biso   1.000  H
  H222     1.0000 0.43790  0.98690  0.20640  Biso   1.000  H
  H223     1.0000 0.06210  0.48690  0.79360  Biso   1.000  H
  H224     1.0000 0.93790  0.48690  0.20640  Biso   1.000  H
  C561     1.0000 0.42440  0.62770  0.69780  Biso   1.000  C
  C562     1.0000 0.57560  0.62770  0.30220  Biso   1.000  C
  C563     1.0000 0.92440  0.12770  0.69780  Biso   1.000  C
  C564     1.0000 0.07560  0.12770  0.30220  Biso   1.000  C
  C565     1.0000 0.47579  0.68620  0.69560  Biso   1.000  C
  C566     1.0000 0.52421  0.68620  0.30440  Biso   1.000  C
  C567     1.0000 0.97579  0.18620  0.69560  Biso   1.000  C
  C568     1.0000 0.02421  0.18620  0.30440  Biso   1.000  C
  C569     1.0000 0.47955  0.76100  0.69790  Biso   1.000  C
  C570     1.0000 0.52045  0.76100  0.30210  Biso   1.000  C
  C571     1.0000 0.97955  0.26100  0.69790  Biso   1.000  C
  C572     1.0000 0.02045  0.26100  0.30210  Biso   1.000  C
  H225     1.0000 0.46380  0.79050  0.70130  Biso   1.000  H
  H226     1.0000 0.53620  0.79050  0.29870  Biso   1.000  H
  H227     1.0000 0.96380  0.29050  0.70130  Biso   1.000  H
  H228     1.0000 0.03620  0.29050  0.29870  Biso   1.000  H
  C573     1.0000 0.50671  0.79220  0.69500  Biso   1.000  C
  C574     1.0000 0.49329  0.79220  0.30500  Biso   1.000  C
  C575     1.0000 0.00671  0.29220  0.69500  Biso   1.000  C
  C576     1.0000 0.99329  0.29220  0.30500  Biso   1.000  C
  H229     1.0000 0.50920  0.84260  0.69650  Biso   1.000  H
  H230     1.0000 0.49080  0.84260  0.30350  Biso   1.000  H
  H231     1.0000 0.00920  0.34260  0.69650  Biso   1.000  H
  H232     1.0000 0.99080  0.34260  0.30350  Biso   1.000  H
  N45      1.0000 0.53012  0.74840  0.68986  Biso   1.000  N
  N46      1.0000 0.46988  0.74840  0.31014  Biso   1.000  N
  N47      1.0000 0.03012  0.24840  0.68986  Biso   1.000  N
  N48      1.0000 0.96988  0.24840  0.31014  Biso   1.000  N
  C577     1.0000 0.52636  0.67360  0.68760  Biso   1.000  C
  C578     1.0000 0.47364  0.67360  0.31240  Biso   1.000  C
  C579     1.0000 0.02636  0.17360  0.68760  Biso   1.000  C
  C580     1.0000 0.97364  0.17360  0.31240  Biso   1.000  C
  H233     1.0000 0.54210  0.64420  0.68410  Biso   1.000  H
  H234     1.0000 0.45790  0.64420  0.31590  Biso   1.000  H
  H235     1.0000 0.04210  0.14420  0.68410  Biso   1.000  H
  H236     1.0000 0.95790  0.14420  0.31590  Biso   1.000  H
  C581     1.0000 0.49920  0.64250  0.69050  Biso   1.000  C
  C582     1.0000 0.50080  0.64250  0.30950  Biso   1.000  C
  C583     1.0000 0.99920  0.14250  0.69050  Biso   1.000  C
  C584     1.0000 0.00080  0.14250  0.30950  Biso   1.000  C
  H237     1.0000 0.49670  0.59210  0.68890  Biso   1.000  H
  H238     1.0000 0.50330  0.59210  0.31110  Biso   1.000  H
  H239     1.0000 0.99670  0.09210  0.68890  Biso   1.000  H
  H240     1.0000 0.00330  0.09210  0.31110  Biso   1.000  H
  C585     1.0000 0.22110  0.44270  0.69800  Biso   1.000  C
  C586     1.0000 0.77890  0.44270  0.30200  Biso   1.000  C
  C587     1.0000 0.72110  0.94270  0.69800  Biso   1.000  C
  C588     1.0000 0.27890  0.94270  0.30200  Biso   1.000  C
  C589     1.0000 0.19750  0.41920  0.69970  Biso   1.000  C
  C590     1.0000 0.80250  0.41920  0.30030  Biso   1.000  C
  C591     1.0000 0.69750  0.91920  0.69970  Biso   1.000  C
  C592     1.0000 0.30250  0.91920  0.30030  Biso   1.000  C
  C593     1.0000 0.16760  0.39460  0.69800  Biso   1.000  C
  C594     1.0000 0.83240  0.39460  0.30200  Biso   1.000  C
  C595     1.0000 0.66760  0.89460  0.69800  Biso   1.000  C
  C596     1.0000 0.33240  0.89460  0.30200  Biso   1.000  C
  C597     1.0000 0.16461  0.36350  0.73404  Biso   1.000  C
  C598     1.0000 0.83539  0.36350  0.26596  Biso   1.000  C
  C599     1.0000 0.66461  0.86350  0.73404  Biso   1.000  C
  C600     1.0000 0.33539  0.86350  0.26596  Biso   1.000  C
  H241     1.0000 0.18230  0.36010  0.75950  Biso   1.000  H
  H242     1.0000 0.81770  0.36010  0.24050  Biso   1.000  H
  H243     1.0000 0.68230  0.86010  0.75950  Biso   1.000  H
  H244     1.0000 0.31770  0.86010  0.24050  Biso   1.000  H
  C601     1.0000 0.13535  0.33730  0.73239  Biso   1.000  C
  C602     1.0000 0.86465  0.33730  0.26761  Biso   1.000  C
  C603     1.0000 0.63535  0.83730  0.73239  Biso   1.000  C
  C604     1.0000 0.36465  0.83730  0.26761  Biso   1.000  C
  H245     1.0000 0.13330  0.31630  0.75670  Biso   1.000  H
  H246     1.0000 0.86670  0.31630  0.24330  Biso   1.000  H
  H247     1.0000 0.63330  0.81630  0.75670  Biso   1.000  H
  H248     1.0000 0.36670  0.81630  0.24330  Biso   1.000  H
  N49      1.0000 0.10907  0.34240  0.69466  Biso   1.000  N
  N50      1.0000 0.89093  0.34240  0.30534  Biso   1.000  N
  N51      1.0000 0.60907  0.84240  0.69466  Biso   1.000  N
  N52      1.0000 0.39093  0.84240  0.30534  Biso   1.000  N
  C605     1.0000 0.11205  0.37350  0.65859  Biso   1.000  C
  C606     1.0000 0.88795  0.37350  0.34141  Biso   1.000  C
  C607     1.0000 0.61205  0.87350  0.65859  Biso   1.000  C
  C608     1.0000 0.38795  0.87350  0.34141  Biso   1.000  C
  H249     1.0000 0.09430  0.37690  0.63320  Biso   1.000  H
  H250     1.0000 0.90570  0.37690  0.36680  Biso   1.000  H
  H251     1.0000 0.59430  0.87690  0.63320  Biso   1.000  H
  H252     1.0000 0.40570  0.87690  0.36680  Biso   1.000  H
  C609     1.0000 0.14131  0.39970  0.66025  Biso   1.000  C
  C610     1.0000 0.85869  0.39970  0.33975  Biso   1.000  C
  C611     1.0000 0.64131  0.89970  0.66025  Biso   1.000  C
  C612     1.0000 0.35869  0.89970  0.33975  Biso   1.000  C
  H253     1.0000 0.14330  0.42070  0.63590  Biso   1.000  H
  H254     1.0000 0.85670  0.42070  0.36410  Biso   1.000  H
  H255     1.0000 0.64330  0.92070  0.63590  Biso   1.000  H
  H256     1.0000 0.35670  0.92070  0.36410  Biso   1.000  H
  C613     1.0000 0.31690  0.72490  0.67580  Biso   1.000  C
  C614     1.0000 0.68310  0.72490  0.32420  Biso   1.000  C
  C615     1.0000 0.81690  0.22490  0.67580  Biso   1.000  C
  C616     1.0000 0.18310  0.22490  0.32420  Biso   1.000  C
  H257     1.0000 0.32260  0.71740  0.65070  Biso   1.000  H
  H258     1.0000 0.67740  0.71740  0.34930  Biso   1.000  H
  H259     1.0000 0.82260  0.21740  0.65070  Biso   1.000  H
  H260     1.0000 0.17740  0.21740  0.34930  Biso   1.000  H
  H261     1.0000 0.33200  0.75960  0.69440  Biso   1.000  H
  H262     1.0000 0.66800  0.75960  0.30560  Biso   1.000  H
  H263     1.0000 0.83200  0.25960  0.69440  Biso   1.000  H
  H264     1.0000 0.16800  0.25960  0.30560  Biso   1.000  H
  C617     1.0000 0.28300  0.75800  0.66130  Biso   1.000  C
  C618     1.0000 0.71700  0.75800  0.33870  Biso   1.000  C
  C619     1.0000 0.78300  0.25800  0.66130  Biso   1.000  C
  C620     1.0000 0.21700  0.25800  0.33870  Biso   1.000  C
  H265     1.0000 0.28230  0.80200  0.64530  Biso   1.000  H
  H266     1.0000 0.71770  0.80200  0.35470  Biso   1.000  H
  H267     1.0000 0.78230  0.30200  0.64530  Biso   1.000  H
  H268     1.0000 0.21770  0.30200  0.35470  Biso   1.000  H
  H269     1.0000 0.27770  0.76890  0.68610  Biso   1.000  H
  H270     1.0000 0.72230  0.76890  0.31390  Biso   1.000  H
  H271     1.0000 0.77770  0.26890  0.68610  Biso   1.000  H
  H272     1.0000 0.22230  0.26890  0.31390  Biso   1.000  H
  H273     1.0000 0.26790  0.72370  0.64330  Biso   1.000  H
  H274     1.0000 0.73210  0.72370  0.35670  Biso   1.000  H
  H275     1.0000 0.76790  0.22370  0.64330  Biso   1.000  H
  H276     1.0000 0.23210  0.22370  0.35670  Biso   1.000  H
  C621     1.0000 0.36070  0.46650  0.84840  Biso   1.000  C
  C622     1.0000 0.63930  0.46650  0.15160  Biso   1.000  C
  C623     1.0000 0.86070  0.96650  0.84840  Biso   1.000  C
  C624     1.0000 0.13930  0.96650  0.15160  Biso   1.000  C
  H277     1.0000 0.35840  0.43900  0.87160  Biso   1.000  H
  H278     1.0000 0.64160  0.43900  0.12840  Biso   1.000  H
  H279     1.0000 0.85840  0.93900  0.87160  Biso   1.000  H
  H280     1.0000 0.14160  0.93900  0.12840  Biso   1.000  H
  H281     1.0000 0.36710  0.51540  0.85790  Biso   1.000  H
  H282     1.0000 0.63290  0.51540  0.14210  Biso   1.000  H
  H283     1.0000 0.86710  0.01540  0.85790  Biso   1.000  H
  H284     1.0000 0.13290  0.01540  0.14210  Biso   1.000  H
  H285     1.0000 0.37660  0.44400  0.83940  Biso   1.000  H
  H286     1.0000 0.62340  0.44400  0.16060  Biso   1.000  H
  H287     1.0000 0.87660  0.94400  0.83940  Biso   1.000  H
  H288     1.0000 0.12340  0.94400  0.16060  Biso   1.000  H
  C625     1.0000 0.32960  0.46810  0.81150  Biso   1.000  C
  C626     1.0000 0.67040  0.46810  0.18850  Biso   1.000  C
  C627     1.0000 0.82960  0.96810  0.81150  Biso   1.000  C
  C628     1.0000 0.17040  0.96810  0.18850  Biso   1.000  C
  H289     1.0000 0.32220  0.41850  0.80410  Biso   1.000  H
  H290     1.0000 0.67780  0.41850  0.19590  Biso   1.000  H
  H291     1.0000 0.82220  0.91850  0.80410  Biso   1.000  H
  H292     1.0000 0.17780  0.91850  0.19590  Biso   1.000  H
  H293     1.0000 0.31400  0.49310  0.82050  Biso   1.000  H
  H294     1.0000 0.68600  0.49310  0.17950  Biso   1.000  H
  H295     1.0000 0.81400  0.99310  0.82050  Biso   1.000  H
  H296     1.0000 0.18600  0.99310  0.17950  Biso   1.000  H
  C629     1.0000 0.65090  0.83670  0.04130  Biso   1.000  C
  C630     1.0000 0.34910  0.83670  0.95870  Biso   1.000  C
  C631     1.0000 0.15090  0.33670  0.04130  Biso   1.000  C
  C632     1.0000 0.84910  0.33670  0.95870  Biso   1.000  C
  H297     1.0000 0.66020  0.85900  0.02230  Biso   1.000  H
  H298     1.0000 0.33980  0.85900  0.97770  Biso   1.000  H
  H299     1.0000 0.16020  0.35900  0.02230  Biso   1.000  H
  H300     1.0000 0.83980  0.35900  0.97770  Biso   1.000  H
  H301     1.0000 0.63830  0.79530  0.02650  Biso   1.000  H
  H302     1.0000 0.36170  0.79530  0.97350  Biso   1.000  H
  H303     1.0000 0.13830  0.29530  0.02650  Biso   1.000  H
  H304     1.0000 0.86170  0.29530  0.97350  Biso   1.000  H
  C633     1.0000 0.67710  0.81090  0.08160  Biso   1.000  C
  C634     1.0000 0.32290  0.81090  0.91840  Biso   1.000  C
  C635     1.0000 0.17710  0.31090  0.08160  Biso   1.000  C
  C636     1.0000 0.82290  0.31090  0.91840  Biso   1.000  C
  H305     1.0000 0.68800  0.77050  0.07480  Biso   1.000  H
  H306     1.0000 0.31200  0.77050  0.92520  Biso   1.000  H
  H307     1.0000 0.18800  0.27050  0.07480  Biso   1.000  H
  H308     1.0000 0.81200  0.27050  0.92520  Biso   1.000  H
  H309     1.0000 0.66810  0.79580  0.10230  Biso   1.000  H
  H310     1.0000 0.33190  0.79580  0.89770  Biso   1.000  H
  H311     1.0000 0.16810  0.29580  0.10230  Biso   1.000  H
  H312     1.0000 0.83190  0.29580  0.89770  Biso   1.000  H
  H313     1.0000 0.69200  0.84990  0.09340  Biso   1.000  H
  H314     1.0000 0.30800  0.84990  0.90660  Biso   1.000  H
  H315     1.0000 0.19200  0.34990  0.09340  Biso   1.000  H
  H316     1.0000 0.80800  0.34990  0.90660  Biso   1.000  H
  C637     1.0000 0.50320  0.90470  0.05700  Biso   1.000  C
  C638     1.0000 0.49680  0.90470  0.94300  Biso   1.000  C
  C639     1.0000 0.00320  0.40470  0.05700  Biso   1.000  C
  C640     1.0000 0.99680  0.40470  0.94300  Biso   1.000  C
  H317     1.0000 0.48630  0.90030  0.06810  Biso   1.000  H
  H318     1.0000 0.51370  0.90030  0.93190  Biso   1.000  H
  H319     1.0000 0.98630  0.40030  0.06810  Biso   1.000  H
  H320     1.0000 0.01370  0.40030  0.93190  Biso   1.000  H
  H321     1.0000 0.51020  0.85700  0.05250  Biso   1.000  H
  H322     1.0000 0.48980  0.85700  0.94750  Biso   1.000  H
  H323     1.0000 0.01020  0.35700  0.05250  Biso   1.000  H
  H324     1.0000 0.98980  0.35700  0.94750  Biso   1.000  H
  H325     1.0000 0.49560  0.93070  0.03020  Biso   1.000  H
  H326     1.0000 0.50440  0.93070  0.96980  Biso   1.000  H
  H327     1.0000 0.99560  0.43070  0.03020  Biso   1.000  H
  H328     1.0000 0.00440  0.43070  0.96980  Biso   1.000  H
  C641     1.0000 0.53050  0.94530  0.08860  Biso   1.000  C
  C642     1.0000 0.46950  0.94530  0.91140  Biso   1.000  C
  C643     1.0000 0.03050  0.44530  0.08860  Biso   1.000  C
  C644     1.0000 0.96950  0.44530  0.91140  Biso   1.000  C
  H329     1.0000 0.52380  0.99360  0.09350  Biso   1.000  H
  H330     1.0000 0.47620  0.99360  0.90650  Biso   1.000  H
  H331     1.0000 0.02380  0.49360  0.09350  Biso   1.000  H
  H332     1.0000 0.97620  0.49360  0.90650  Biso   1.000  H
  H333     1.0000 0.53860  0.91950  0.11580  Biso   1.000  H
  H334     1.0000 0.46140  0.91950  0.88420  Biso   1.000  H
  H335     1.0000 0.03860  0.41950  0.11580  Biso   1.000  H
  H336     1.0000 0.96140  0.41950  0.88420  Biso   1.000  H
  C645     1.0000 0.79630  0.17050  0.78000  Biso   1.000  C
  C646     1.0000 0.20370  0.17050  0.22000  Biso   1.000  C
  C647     1.0000 0.29630  0.67050  0.78000  Biso   1.000  C
  C648     1.0000 0.70370  0.67050  0.22000  Biso   1.000  C
  H337     1.0000 0.78480  0.21400  0.76650  Biso   1.000  H
  H338     1.0000 0.21520  0.21400  0.23350  Biso   1.000  H
  H339     1.0000 0.28480  0.71400  0.76650  Biso   1.000  H
  H340     1.0000 0.71520  0.71400  0.23350  Biso   1.000  H
  H341     1.0000 0.80160  0.14350  0.75850  Biso   1.000  H
  H342     1.0000 0.19840  0.14350  0.24150  Biso   1.000  H
  H343     1.0000 0.30160  0.64350  0.75850  Biso   1.000  H
  H344     1.0000 0.69840  0.64350  0.24150  Biso   1.000  H
  C649     1.0000 0.82690  0.19230  0.81650  Biso   1.000  C
  C650     1.0000 0.17310  0.19230  0.18350  Biso   1.000  C
  C651     1.0000 0.32690  0.69230  0.81650  Biso   1.000  C
  C652     1.0000 0.67310  0.69230  0.18350  Biso   1.000  C
  H345     1.0000 0.83950  0.22250  0.80530  Biso   1.000  H
  H346     1.0000 0.16050  0.22250  0.19470  Biso   1.000  H
  H347     1.0000 0.33950  0.72250  0.80530  Biso   1.000  H
  H348     1.0000 0.66050  0.72250  0.19470  Biso   1.000  H
  H349     1.0000 0.83880  0.14940  0.82920  Biso   1.000  H
  H350     1.0000 0.16120  0.14940  0.17080  Biso   1.000  H
  H351     1.0000 0.33880  0.64940  0.82920  Biso   1.000  H
  H352     1.0000 0.66120  0.64940  0.17080  Biso   1.000  H
  H353     1.0000 0.82170  0.21890  0.83790  Biso   1.000  H
  H354     1.0000 0.17830  0.21890  0.16210  Biso   1.000  H
  H355     1.0000 0.32170  0.71890  0.83790  Biso   1.000  H
  H356     1.0000 0.67830  0.71890  0.16210  Biso   1.000  H
  C653     1.0000 0.75750  0.82770  0.81350  Biso   1.000  C
  C654     1.0000 0.24250  0.82770  0.18650  Biso   1.000  C
  C655     1.0000 0.25750  0.32770  0.81350  Biso   1.000  C
  C656     1.0000 0.74250  0.32770  0.18650  Biso   1.000  C
  H357     1.0000 0.76170  0.78140  0.82790  Biso   1.000  H
  H358     1.0000 0.23830  0.78140  0.17210  Biso   1.000  H
  H359     1.0000 0.26170  0.28140  0.82790  Biso   1.000  H
  H360     1.0000 0.73830  0.28140  0.17210  Biso   1.000  H
  H361     1.0000 0.77320  0.83690  0.80080  Biso   1.000  H
  H362     1.0000 0.22680  0.83690  0.19920  Biso   1.000  H
  H363     1.0000 0.27320  0.33690  0.80080  Biso   1.000  H
  H364     1.0000 0.72680  0.33690  0.19920  Biso   1.000  H
  H365     1.0000 0.73660  0.82710  0.79140  Biso   1.000  H
  H366     1.0000 0.26340  0.82710  0.20860  Biso   1.000  H
  H367     1.0000 0.23660  0.32710  0.79140  Biso   1.000  H
  H368     1.0000 0.76340  0.32710  0.20860  Biso   1.000  H
  C657     1.0000 0.75900  0.88840  0.84630  Biso   1.000  C
  C658     1.0000 0.24100  0.88840  0.15370  Biso   1.000  C
  C659     1.0000 0.25900  0.38840  0.84630  Biso   1.000  C
  C660     1.0000 0.74100  0.38840  0.15370  Biso   1.000  C
  H369     1.0000 0.74440  0.87590  0.86060  Biso   1.000  H
  H370     1.0000 0.25560  0.87590  0.13940  Biso   1.000  H
  H371     1.0000 0.24440  0.37590  0.86060  Biso   1.000  H
  H372     1.0000 0.75560  0.37590  0.13940  Biso   1.000  H
  H373     1.0000 0.78040  0.88880  0.86800  Biso   1.000  H
  H374     1.0000 0.21960  0.88880  0.13200  Biso   1.000  H
  H375     1.0000 0.28040  0.38880  0.86800  Biso   1.000  H
  H376     1.0000 0.71960  0.38880  0.13200  Biso   1.000  H
  C661     1.0000 0.01160  0.42310  0.19300  Biso   1.000  C
  C662     1.0000 0.98840  0.42310  0.80700  Biso   1.000  C
  C663     1.0000 0.51160  0.92310  0.19300  Biso   1.000  C
  C664     1.0000 0.48840  0.92310  0.80700  Biso   1.000  C
  H377     1.0000 0.00740  0.40710  0.21820  Biso   1.000  H
  H378     1.0000 0.99260  0.40710  0.78180  Biso   1.000  H
  H379     1.0000 0.50740  0.90710  0.21820  Biso   1.000  H
  H380     1.0000 0.49260  0.90710  0.78180  Biso   1.000  H
  H381     1.0000 0.99210  0.41620  0.16810  Biso   1.000  H
  H382     1.0000 0.00790  0.41620  0.83190  Biso   1.000  H
  H383     1.0000 0.49210  0.91620  0.16810  Biso   1.000  H
  H384     1.0000 0.50790  0.91620  0.83190  Biso   1.000  H
  C665     1.0000 0.01950  0.50140  0.19740  Biso   1.000  C
  C666     1.0000 0.98050  0.50140  0.80260  Biso   1.000  C
  C667     1.0000 0.51950  0.00140  0.19740  Biso   1.000  C
  C668     1.0000 0.48050  0.00140  0.80260  Biso   1.000  C
  H385     1.0000 0.00220  0.52810  0.20100  Biso   1.000  H
  H386     1.0000 0.99780  0.52810  0.79900  Biso   1.000  H
  H387     1.0000 0.50220  0.02810  0.20100  Biso   1.000  H
  H388     1.0000 0.49780  0.02810  0.79900  Biso   1.000  H
  H389     1.0000 0.02280  0.51830  0.17210  Biso   1.000  H
  H390     1.0000 0.97720  0.51830  0.82790  Biso   1.000  H
  H391     1.0000 0.52280  0.01830  0.17210  Biso   1.000  H
  H392     1.0000 0.47720  0.01830  0.82790  Biso   1.000  H
  H393     1.0000 0.03860  0.50890  0.22210  Biso   1.000  H
  H394     1.0000 0.96140  0.50890  0.77790  Biso   1.000  H
  H395     1.0000 0.53860  0.00890  0.22210  Biso   1.000  H
  H396     1.0000 0.46140  0.00890  0.77790  Biso   1.000  H
  C669     1.0000 0.05920  0.25650  0.04170  Biso   1.000  C
  C670     1.0000 0.94080  0.25650  0.95830  Biso   1.000  C
  C671     1.0000 0.55920  0.75650  0.04170  Biso   1.000  C
  C672     1.0000 0.44080  0.75650  0.95830  Biso   1.000  C
  H397     1.0000 0.06670  0.25440  0.01820  Biso   1.000  H
  H398     1.0000 0.93330  0.25440  0.98180  Biso   1.000  H
  H399     1.0000 0.56670  0.75440  0.01820  Biso   1.000  H
  H400     1.0000 0.43330  0.75440  0.98180  Biso   1.000  H
  H401     1.0000 0.04390  0.29520  0.03690  Biso   1.000  H
  H402     1.0000 0.95610  0.29520  0.96310  Biso   1.000  H
  H403     1.0000 0.54390  0.79520  0.03690  Biso   1.000  H
  H404     1.0000 0.45610  0.79520  0.96310  Biso   1.000  H
  H405     1.0000 0.04920  0.21100  0.04370  Biso   1.000  H
  H406     1.0000 0.95080  0.21100  0.95630  Biso   1.000  H
  H407     1.0000 0.54920  0.71100  0.04370  Biso   1.000  H
  H408     1.0000 0.45080  0.71100  0.95630  Biso   1.000  H
  C673     1.0000 0.08710  0.27030  0.08320  Biso   1.000  C
  C674     1.0000 0.91290  0.27030  0.91680  Biso   1.000  C
  C675     1.0000 0.58710  0.77030  0.08320  Biso   1.000  C
  C676     1.0000 0.41290  0.77030  0.91680  Biso   1.000  C
  H409     1.0000 0.10160  0.22910  0.08930  Biso   1.000  H
  H410     1.0000 0.89840  0.22910  0.91070  Biso   1.000  H
  H411     1.0000 0.60160  0.72910  0.08930  Biso   1.000  H
  H412     1.0000 0.39840  0.72910  0.91070  Biso   1.000  H
  H413     1.0000 0.09870  0.31320  0.07990  Biso   1.000  H
  H414     1.0000 0.90130  0.31320  0.92010  Biso   1.000  H
  H415     1.0000 0.59870  0.81320  0.07990  Biso   1.000  H
  H416     1.0000 0.40130  0.81320  0.92010  Biso   1.000  H
