data_image0
_cell_length_a       9.3963
_cell_length_b       15.7906
_cell_length_c       22.1918
_cell_angle_alpha    90
_cell_angle_beta     93.2854
_cell_angle_gamma    90

_symmetry_space_group_name_H-M    "P 1"
_symmetry_int_tables_number       1

loop_
  _symmetry_equiv_pos_as_xyz
  'x, y, z'

loop_
  _atom_site_label
  _atom_site_occupancy
  _atom_site_fract_x
  _atom_site_fract_y
  _atom_site_fract_z
  _atom_site_thermal_displace_type
  _atom_site_B_iso_or_equiv
  _atom_site_type_symbol
  Cu1      1.0000 0.55626  0.66290  0.24436  Biso   1.000  Cu
  Cu2      1.0000 0.94374  0.16290  0.25564  Biso   1.000  Cu
  Cu3      1.0000 0.44374  0.33710  0.75564  Biso   1.000  Cu
  Cu4      1.0000 0.05626  0.83710  0.74436  Biso   1.000  Cu
  Cu5      1.0000 0.05932  0.50449  0.25029  Biso   1.000  Cu
  Cu6      1.0000 0.44068  0.00449  0.24971  Biso   1.000  Cu
  Cu7      1.0000 0.94068  0.49551  0.74971  Biso   1.000  Cu
  Cu8      1.0000 0.55932  0.99551  0.75029  Biso   1.000  Cu
  O1       1.0000 0.43380  0.55912  0.19128  Biso   1.000  O
  O2       1.0000 0.06620  0.05912  0.30872  Biso   1.000  O
  O3       1.0000 0.56620  0.44088  0.80872  Biso   1.000  O
  O4       1.0000 0.93380  0.94088  0.69128  Biso   1.000  O
  O5       1.0000 0.38876  0.64923  0.29446  Biso   1.000  O
  O6       1.0000 0.11124  0.14923  0.20554  Biso   1.000  O
  O7       1.0000 0.61124  0.35077  0.70554  Biso   1.000  O
  O8       1.0000 0.88876  0.85077  0.79446  Biso   1.000  O
  O9       1.0000 0.22386  0.49627  0.19990  Biso   1.000  O
  O10      1.0000 0.27614  0.99627  0.30010  Biso   1.000  O
  O11      1.0000 0.77614  0.50373  0.80010  Biso   1.000  O
  O12      1.0000 0.72386  0.00373  0.69990  Biso   1.000  O
  O13      1.0000 0.17618  0.58813  0.29651  Biso   1.000  O
  O14      1.0000 0.32382  0.08813  0.20349  Biso   1.000  O
  O15      1.0000 0.82382  0.41187  0.70349  Biso   1.000  O
  O16      1.0000 0.67618  0.91187  0.79651  Biso   1.000  O
  O17      1.0000 0.45607  0.75163  0.19560  Biso   1.000  O
  O18      1.0000 0.04393  0.25163  0.30440  Biso   1.000  O
  O19      1.0000 0.54393  0.24837  0.80440  Biso   1.000  O
  O20      1.0000 0.95607  0.74837  0.69560  Biso   1.000  O
  O21      1.0000 0.61740  0.78296  0.29932  Biso   1.000  O
  O22      1.0000 0.88260  0.28296  0.20068  Biso   1.000  O
  O23      1.0000 0.38260  0.21704  0.70068  Biso   1.000  O
  O24      1.0000 0.11740  0.71704  0.79932  Biso   1.000  O
  O25      1.0000 0.39042  0.88721  0.19237  Biso   1.000  O
  O26      1.0000 0.10958  0.38721  0.30763  Biso   1.000  O
  O27      1.0000 0.60958  0.11279  0.80763  Biso   1.000  O
  O28      1.0000 0.89042  0.61279  0.69237  Biso   1.000  O
  O29      1.0000 0.54360  0.91626  0.29786  Biso   1.000  O
  O30      1.0000 0.95640  0.41626  0.20214  Biso   1.000  O
  O31      1.0000 0.45640  0.08374  0.70214  Biso   1.000  O
  O32      1.0000 0.04360  0.58374  0.79786  Biso   1.000  O
  O33      1.0000 0.72380  0.66744  0.19512  Biso   1.000  O
  O34      1.0000 0.77620  0.16744  0.30488  Biso   1.000  O
  O35      1.0000 0.27620  0.33256  0.80488  Biso   1.000  O
  O36      1.0000 0.22380  0.83256  0.69512  Biso   1.000  O
  O37      1.0000 0.67201  0.58169  0.29343  Biso   1.000  O
  O38      1.0000 0.82799  0.08169  0.20657  Biso   1.000  O
  O39      1.0000 0.32799  0.41831  0.70657  Biso   1.000  O
  O40      1.0000 0.17201  0.91831  0.79343  Biso   1.000  O
  O41      1.0000 0.93766  0.60683  0.19095  Biso   1.000  O
  O42      1.0000 0.56234  0.10683  0.30905  Biso   1.000  O
  O43      1.0000 0.06234  0.39317  0.80905  Biso   1.000  O
  O44      1.0000 0.43766  0.89317  0.69095  Biso   1.000  O
  O45      1.0000 0.88752  0.52394  0.29640  Biso   1.000  O
  O46      1.0000 0.61248  0.02394  0.20360  Biso   1.000  O
  O47      1.0000 0.11248  0.47606  0.70360  Biso   1.000  O
  O48      1.0000 0.38752  0.97606  0.79640  Biso   1.000  O
  C1       1.0000 0.32190  0.54735  0.21645  Biso   1.000  C
  C2       1.0000 0.17810  0.04735  0.28355  Biso   1.000  C
  C3       1.0000 0.67810  0.45265  0.78355  Biso   1.000  C
  C4       1.0000 0.82190  0.95265  0.71645  Biso   1.000  C
  C5       1.0000 0.29430  0.60026  0.27373  Biso   1.000  C
  C6       1.0000 0.20570  0.10026  0.22627  Biso   1.000  C
  C7       1.0000 0.70570  0.39974  0.72627  Biso   1.000  C
  C8       1.0000 0.79430  0.89974  0.77373  Biso   1.000  C
  C9       1.0000 0.45650  0.82668  0.21615  Biso   1.000  C
  C10      1.0000 0.04350  0.32668  0.28385  Biso   1.000  C
  C11      1.0000 0.54350  0.17332  0.78385  Biso   1.000  C
  C12      1.0000 0.95650  0.67332  0.71615  Biso   1.000  C
  C13      1.0000 0.54730  0.84326  0.27609  Biso   1.000  C
  C14      1.0000 0.95270  0.34326  0.22391  Biso   1.000  C
  C15      1.0000 0.45270  0.15674  0.72391  Biso   1.000  C
  C16      1.0000 0.04730  0.65674  0.77609  Biso   1.000  C
  C17      1.0000 0.82150  0.61829  0.21422  Biso   1.000  C
  C18      1.0000 0.67850  0.11829  0.28578  Biso   1.000  C
  C19      1.0000 0.17850  0.38171  0.78578  Biso   1.000  C
  C20      1.0000 0.32150  0.88171  0.71422  Biso   1.000  C
  C21      1.0000 0.79260  0.57034  0.27276  Biso   1.000  C
  C22      1.0000 0.70740  0.07034  0.22724  Biso   1.000  C
  C23      1.0000 0.20740  0.42966  0.72724  Biso   1.000  C
  C24      1.0000 0.29260  0.92966  0.77276  Biso   1.000  C
  N1       1.0000 0.95250  0.87550  0.14428  Biso   1.000  N
  N2       1.0000 0.54750  0.37550  0.35572  Biso   1.000  N
  N3       1.0000 0.04750  0.12450  0.85572  Biso   1.000  N
  N4       1.0000 0.45250  0.62450  0.64428  Biso   1.000  N
  H1       1.0000 0.98570  0.82510  0.12870  Biso   1.000  H
  H2       1.0000 0.51430  0.32510  0.37130  Biso   1.000  H
  H3       1.0000 0.01430  0.17490  0.87130  Biso   1.000  H
  H4       1.0000 0.48570  0.67490  0.62870  Biso   1.000  H
  C25      1.0000 0.81300  0.89960  0.11110  Biso   1.000  C
  C26      1.0000 0.68700  0.39960  0.38890  Biso   1.000  C
  C27      1.0000 0.18700  0.10040  0.88890  Biso   1.000  C
  C28      1.0000 0.31300  0.60040  0.61110  Biso   1.000  C
  H5       1.0000 0.76710  0.94490  0.13390  Biso   1.000  H
  H6       1.0000 0.73290  0.44490  0.36610  Biso   1.000  H
  H7       1.0000 0.23290  0.05510  0.86610  Biso   1.000  H
  H8       1.0000 0.26710  0.55510  0.63390  Biso   1.000  H
  H9       1.0000 0.83340  0.92290  0.07110  Biso   1.000  H
  H10      1.0000 0.66660  0.42290  0.42890  Biso   1.000  H
  H11      1.0000 0.16660  0.07710  0.92890  Biso   1.000  H
  H12      1.0000 0.33340  0.57710  0.57110  Biso   1.000  H
  C29      1.0000 0.71110  0.82750  0.10240  Biso   1.000  C
  C30      1.0000 0.78890  0.32750  0.39760  Biso   1.000  C
  C31      1.0000 0.28890  0.17250  0.89760  Biso   1.000  C
  C32      1.0000 0.21110  0.67250  0.60240  Biso   1.000  C
  H13      1.0000 0.68710  0.80530  0.14230  Biso   1.000  H
  H14      1.0000 0.81290  0.30530  0.35770  Biso   1.000  H
  H15      1.0000 0.31290  0.19470  0.85770  Biso   1.000  H
  H16      1.0000 0.18710  0.69470  0.64230  Biso   1.000  H
  H17      1.0000 0.75700  0.78140  0.08030  Biso   1.000  H
  H18      1.0000 0.74300  0.28140  0.41970  Biso   1.000  H
  H19      1.0000 0.24300  0.21860  0.91970  Biso   1.000  H
  H20      1.0000 0.25700  0.71860  0.58030  Biso   1.000  H
  C33      1.0000 0.57640  0.85450  0.06750  Biso   1.000  C
  C34      1.0000 0.92360  0.35450  0.43250  Biso   1.000  C
  C35      1.0000 0.42360  0.14550  0.93250  Biso   1.000  C
  C36      1.0000 0.07640  0.64550  0.56750  Biso   1.000  C
  H21      1.0000 0.51200  0.80590  0.06230  Biso   1.000  H
  H22      1.0000 0.98800  0.30590  0.43770  Biso   1.000  H
  H23      1.0000 0.48800  0.19410  0.93770  Biso   1.000  H
  H24      1.0000 0.01200  0.69410  0.56230  Biso   1.000  H
  H25      1.0000 0.59980  0.87590  0.02780  Biso   1.000  H
  H26      1.0000 0.90020  0.37590  0.47220  Biso   1.000  H
  H27      1.0000 0.40020  0.12410  0.97220  Biso   1.000  H
  H28      1.0000 0.09980  0.62410  0.52780  Biso   1.000  H
  H29      1.0000 0.52970  0.89940  0.08970  Biso   1.000  H
  H30      1.0000 0.97030  0.39940  0.41030  Biso   1.000  H
  H31      1.0000 0.47030  0.10060  0.91030  Biso   1.000  H
  H32      1.0000 0.02970  0.60060  0.58970  Biso   1.000  H
  C37      1.0000 0.06060  0.94310  0.13780  Biso   1.000  C
  C38      1.0000 0.43940  0.44310  0.36220  Biso   1.000  C
  C39      1.0000 0.93940  0.05690  0.86220  Biso   1.000  C
  C40      1.0000 0.56060  0.55690  0.63780  Biso   1.000  C
  H33      1.0000 0.14360  0.93240  0.16630  Biso   1.000  H
  H34      1.0000 0.35640  0.43240  0.33370  Biso   1.000  H
  H35      1.0000 0.85640  0.06760  0.83370  Biso   1.000  H
  H36      1.0000 0.64360  0.56760  0.66630  Biso   1.000  H
  H37      1.0000 0.01920  0.99860  0.14810  Biso   1.000  H
  H38      1.0000 0.48080  0.49860  0.35190  Biso   1.000  H
  H39      1.0000 0.98080  0.00140  0.85190  Biso   1.000  H
  H40      1.0000 0.51920  0.50140  0.64810  Biso   1.000  H
  C41      1.0000 0.10950  0.94620  0.07420  Biso   1.000  C
  C42      1.0000 0.39050  0.44620  0.42580  Biso   1.000  C
  C43      1.0000 0.89050  0.05380  0.92580  Biso   1.000  C
  C44      1.0000 0.60950  0.55380  0.57420  Biso   1.000  C
  H41      1.0000 0.02740  0.94000  0.04450  Biso   1.000  H
  H42      1.0000 0.47260  0.44000  0.45550  Biso   1.000  H
  H43      1.0000 0.97260  0.06000  0.95550  Biso   1.000  H
  H44      1.0000 0.52740  0.56000  0.54450  Biso   1.000  H
  H45      1.0000 0.17850  0.90030  0.06760  Biso   1.000  H
  H46      1.0000 0.32150  0.40030  0.43240  Biso   1.000  H
  H47      1.0000 0.82150  0.09970  0.93240  Biso   1.000  H
  H48      1.0000 0.67850  0.59970  0.56760  Biso   1.000  H
  C45      1.0000 0.17940  0.03250  0.06790  Biso   1.000  C
  C46      1.0000 0.32060  0.53250  0.43210  Biso   1.000  C
  C47      1.0000 0.82060  0.96750  0.93210  Biso   1.000  C
  C48      1.0000 0.67940  0.46750  0.56790  Biso   1.000  C
  H49      1.0000 0.21170  0.03880  0.02700  Biso   1.000  H
  H50      1.0000 0.28830  0.53880  0.47300  Biso   1.000  H
  H51      1.0000 0.78830  0.96120  0.97300  Biso   1.000  H
  H52      1.0000 0.71170  0.46120  0.52700  Biso   1.000  H
  H53      1.0000 0.26130  0.03710  0.09720  Biso   1.000  H
  H54      1.0000 0.23870  0.53710  0.40280  Biso   1.000  H
  H55      1.0000 0.73870  0.96290  0.90280  Biso   1.000  H
  H56      1.0000 0.76130  0.46290  0.59720  Biso   1.000  H
  H57      1.0000 0.11030  0.07710  0.07570  Biso   1.000  H
  H58      1.0000 0.38970  0.57710  0.42430  Biso   1.000  H
  H59      1.0000 0.88970  0.92290  0.92430  Biso   1.000  H
  H60      1.0000 0.61030  0.42290  0.57570  Biso   1.000  H
  C49      1.0000 0.93150  0.86470  0.21140  Biso   1.000  C
  C50      1.0000 0.56850  0.36470  0.28860  Biso   1.000  C
  C51      1.0000 0.06850  0.13530  0.78860  Biso   1.000  C
  C52      1.0000 0.43150  0.63530  0.71140  Biso   1.000  C
  H61      1.0000 0.92320  0.92120  0.23020  Biso   1.000  H
  H62      1.0000 0.57680  0.42120  0.26980  Biso   1.000  H
  H63      1.0000 0.07680  0.07880  0.76980  Biso   1.000  H
  H64      1.0000 0.42320  0.57880  0.73020  Biso   1.000  H
  H65      1.0000 0.84130  0.83380  0.21660  Biso   1.000  H
  H66      1.0000 0.65870  0.33380  0.28340  Biso   1.000  H
  H67      1.0000 0.15870  0.16620  0.78340  Biso   1.000  H
  H68      1.0000 0.34130  0.66620  0.71660  Biso   1.000  H
  C53      1.0000 0.05160  0.81750  0.24290  Biso   1.000  C
  C54      1.0000 0.44840  0.31750  0.25710  Biso   1.000  C
  C55      1.0000 0.94840  0.18250  0.75710  Biso   1.000  C
  C56      1.0000 0.55160  0.68250  0.74290  Biso   1.000  C
  H69      1.0000 0.14230  0.84740  0.23700  Biso   1.000  H
  H70      1.0000 0.35770  0.34740  0.26300  Biso   1.000  H
  H71      1.0000 0.85770  0.15260  0.76300  Biso   1.000  H
  H72      1.0000 0.64230  0.65260  0.73700  Biso   1.000  H
  H73      1.0000 0.05810  0.76020  0.22520  Biso   1.000  H
  H74      1.0000 0.44190  0.26020  0.27480  Biso   1.000  H
  H75      1.0000 0.94190  0.23980  0.77480  Biso   1.000  H
  H76      1.0000 0.55810  0.73980  0.72520  Biso   1.000  H
  C57      1.0000 0.02930  0.81010  0.31010  Biso   1.000  C
  C58      1.0000 0.47070  0.31010  0.18990  Biso   1.000  C
  C59      1.0000 0.97070  0.18990  0.68990  Biso   1.000  C
  C60      1.0000 0.52930  0.68990  0.81010  Biso   1.000  C
  H77      1.0000 0.10750  0.77730  0.32970  Biso   1.000  H
  H78      1.0000 0.39250  0.27730  0.17030  Biso   1.000  H
  H79      1.0000 0.89250  0.22270  0.67030  Biso   1.000  H
  H80      1.0000 0.60750  0.72270  0.82970  Biso   1.000  H
  H81      1.0000 0.93860  0.78150  0.31590  Biso   1.000  H
  H82      1.0000 0.56140  0.28150  0.18410  Biso   1.000  H
  H83      1.0000 0.06140  0.21850  0.68410  Biso   1.000  H
  H84      1.0000 0.43860  0.71850  0.81590  Biso   1.000  H
  H85      1.0000 0.02750  0.86680  0.32800  Biso   1.000  H
  H86      1.0000 0.47250  0.36680  0.17200  Biso   1.000  H
  H87      1.0000 0.97250  0.13320  0.67200  Biso   1.000  H
  H88      1.0000 0.52750  0.63320  0.82800  Biso   1.000  H
  N5       1.0000 0.00650  0.84560  0.15030  Biso   1.000  N
  N6       1.0000 0.49350  0.34560  0.34970  Biso   1.000  N
  N7       1.0000 0.99350  0.15440  0.84970  Biso   1.000  N
  N8       1.0000 0.50650  0.65440  0.65030  Biso   1.000  N
  H89      1.0000 0.07930  0.80710  0.14450  Biso   1.000  H
  H90      1.0000 0.42070  0.30710  0.35550  Biso   1.000  H
  H91      1.0000 0.92070  0.19290  0.85550  Biso   1.000  H
  H92      1.0000 0.57930  0.69290  0.64450  Biso   1.000  H
  C61      1.0000 0.88550  0.81720  0.10850  Biso   1.000  C
  C62      1.0000 0.61450  0.31720  0.39150  Biso   1.000  C
  C63      1.0000 0.11450  0.18280  0.89150  Biso   1.000  C
  C64      1.0000 0.38550  0.68280  0.60850  Biso   1.000  C
  H93      1.0000 0.91480  0.82100  0.06650  Biso   1.000  H
  H94      1.0000 0.58520  0.32100  0.43350  Biso   1.000  H
  H95      1.0000 0.08520  0.17900  0.93350  Biso   1.000  H
  H96      1.0000 0.41480  0.67900  0.56650  Biso   1.000  H
  H97      1.0000 0.86470  0.75700  0.11690  Biso   1.000  H
  H98      1.0000 0.63530  0.25700  0.38310  Biso   1.000  H
  H99      1.0000 0.13530  0.24300  0.88310  Biso   1.000  H
  H100     1.0000 0.36470  0.74300  0.61690  Biso   1.000  H
  C65      1.0000 0.75300  0.86770  0.11410  Biso   1.000  C
  C66      1.0000 0.74700  0.36770  0.38590  Biso   1.000  C
  C67      1.0000 0.24700  0.13230  0.88590  Biso   1.000  C
  C68      1.0000 0.25300  0.63230  0.61410  Biso   1.000  C
  H101     1.0000 0.77160  0.92770  0.10420  Biso   1.000  H
  H102     1.0000 0.72840  0.42770  0.39580  Biso   1.000  H
  H103     1.0000 0.22840  0.07230  0.89580  Biso   1.000  H
  H104     1.0000 0.27160  0.57230  0.60420  Biso   1.000  H
  H105     1.0000 0.72380  0.86520  0.15620  Biso   1.000  H
  H106     1.0000 0.77620  0.36520  0.34380  Biso   1.000  H
  H107     1.0000 0.27620  0.13480  0.84380  Biso   1.000  H
  H108     1.0000 0.22380  0.63480  0.65620  Biso   1.000  H
  C69      1.0000 0.63290  0.83330  0.07150  Biso   1.000  C
  C70      1.0000 0.86710  0.33330  0.42850  Biso   1.000  C
  C71      1.0000 0.36710  0.16670  0.92850  Biso   1.000  C
  C72      1.0000 0.13290  0.66670  0.57150  Biso   1.000  C
  H109     1.0000 0.54620  0.86660  0.07610  Biso   1.000  H
  H110     1.0000 0.95380  0.36660  0.42390  Biso   1.000  H
  H111     1.0000 0.45380  0.13340  0.92390  Biso   1.000  H
  H112     1.0000 0.04620  0.63340  0.57610  Biso   1.000  H
  H113     1.0000 0.61480  0.77400  0.08130  Biso   1.000  H
  H114     1.0000 0.88520  0.27400  0.41870  Biso   1.000  H
  H115     1.0000 0.38520  0.22600  0.91870  Biso   1.000  H
  H116     1.0000 0.11480  0.72600  0.58130  Biso   1.000  H
  H117     1.0000 0.66090  0.83750  0.02970  Biso   1.000  H
  H118     1.0000 0.83910  0.33750  0.47030  Biso   1.000  H
  H119     1.0000 0.33910  0.16250  0.97030  Biso   1.000  H
  H120     1.0000 0.16090  0.66250  0.52970  Biso   1.000  H
  C73      1.0000 0.06600  0.92960  0.13360  Biso   1.000  C
  C74      1.0000 0.43400  0.42960  0.36640  Biso   1.000  C
  C75      1.0000 0.93400  0.07040  0.86640  Biso   1.000  C
  C76      1.0000 0.56600  0.57040  0.63360  Biso   1.000  C
  H121     1.0000 0.14110  0.94650  0.16450  Biso   1.000  H
  H122     1.0000 0.35890  0.44650  0.33550  Biso   1.000  H
  H123     1.0000 0.85890  0.05350  0.83550  Biso   1.000  H
  H124     1.0000 0.64110  0.55350  0.66450  Biso   1.000  H
  H125     1.0000 0.98970  0.97270  0.13320  Biso   1.000  H
  H126     1.0000 0.51030  0.47270  0.36680  Biso   1.000  H
  H127     1.0000 0.01030  0.02730  0.86680  Biso   1.000  H
  H128     1.0000 0.48970  0.52730  0.63320  Biso   1.000  H
  C77      1.0000 0.12900  0.92760  0.07260  Biso   1.000  C
  C78      1.0000 0.37100  0.42760  0.42740  Biso   1.000  C
  C79      1.0000 0.87100  0.07240  0.92740  Biso   1.000  C
  C80      1.0000 0.62900  0.57240  0.57260  Biso   1.000  C
  H129     1.0000 0.05050  0.93090  0.04100  Biso   1.000  H
  H130     1.0000 0.44950  0.43090  0.45900  Biso   1.000  H
  H131     1.0000 0.94950  0.06910  0.95900  Biso   1.000  H
  H132     1.0000 0.55050  0.56910  0.54100  Biso   1.000  H
  H133     1.0000 0.17780  0.87260  0.06790  Biso   1.000  H
  H134     1.0000 0.32220  0.37260  0.43210  Biso   1.000  H
  H135     1.0000 0.82220  0.12740  0.93210  Biso   1.000  H
  H136     1.0000 0.67780  0.62740  0.56790  Biso   1.000  H
  C81      1.0000 0.23500  0.99860  0.06190  Biso   1.000  C
  C82      1.0000 0.26500  0.49860  0.43810  Biso   1.000  C
  C83      1.0000 0.76500  0.00140  0.93810  Biso   1.000  C
  C84      1.0000 0.73500  0.50140  0.56190  Biso   1.000  C
  H137     1.0000 0.27600  0.99030  0.02270  Biso   1.000  H
  H138     1.0000 0.22400  0.49030  0.47730  Biso   1.000  H
  H139     1.0000 0.72400  0.00970  0.97730  Biso   1.000  H
  H140     1.0000 0.77600  0.50970  0.52270  Biso   1.000  H
  H141     1.0000 0.31130  0.99770  0.09390  Biso   1.000  H
  H142     1.0000 0.18870  0.49770  0.40610  Biso   1.000  H
  H143     1.0000 0.68870  0.00230  0.90610  Biso   1.000  H
  H144     1.0000 0.81130  0.50230  0.59390  Biso   1.000  H
  H145     1.0000 0.18570  0.05320  0.06220  Biso   1.000  H
  H146     1.0000 0.31430  0.55320  0.43780  Biso   1.000  H
  H147     1.0000 0.81430  0.94680  0.93780  Biso   1.000  H
  H148     1.0000 0.68570  0.44680  0.56220  Biso   1.000  H
  C85      1.0000 0.97180  0.83410  0.21460  Biso   1.000  C
  C86      1.0000 0.52820  0.33410  0.28540  Biso   1.000  C
  C87      1.0000 0.02820  0.16590  0.78540  Biso   1.000  C
  C88      1.0000 0.47180  0.66590  0.71460  Biso   1.000  C
  H149     1.0000 0.93960  0.88890  0.23060  Biso   1.000  H
  H150     1.0000 0.56040  0.38890  0.26940  Biso   1.000  H
  H151     1.0000 0.06040  0.11110  0.76940  Biso   1.000  H
  H152     1.0000 0.43960  0.61110  0.73060  Biso   1.000  H
  H153     1.0000 0.89170  0.79350  0.21630  Biso   1.000  H
  H154     1.0000 0.60830  0.29350  0.28370  Biso   1.000  H
  H155     1.0000 0.10830  0.20650  0.78370  Biso   1.000  H
  H156     1.0000 0.39170  0.70650  0.71630  Biso   1.000  H
  C89      1.0000 0.09260  0.80290  0.25340  Biso   1.000  C
  C90      1.0000 0.40740  0.30290  0.24660  Biso   1.000  C
  C91      1.0000 0.90740  0.19710  0.74660  Biso   1.000  C
  C92      1.0000 0.59260  0.69710  0.75340  Biso   1.000  C
  H157     1.0000 0.17010  0.84550  0.25450  Biso   1.000  H
  H158     1.0000 0.32990  0.34550  0.24550  Biso   1.000  H
  H159     1.0000 0.82990  0.15450  0.74550  Biso   1.000  H
  H160     1.0000 0.67010  0.65450  0.75450  Biso   1.000  H
  H161     1.0000 0.12950  0.75010  0.23600  Biso   1.000  H
  H162     1.0000 0.37050  0.25010  0.26400  Biso   1.000  H
  H163     1.0000 0.87050  0.24990  0.76400  Biso   1.000  H
  H164     1.0000 0.62950  0.74990  0.73600  Biso   1.000  H
  C93      1.0000 0.05100  0.78560  0.31730  Biso   1.000  C
  C94      1.0000 0.44900  0.28560  0.18270  Biso   1.000  C
  C95      1.0000 0.94900  0.21440  0.68270  Biso   1.000  C
  C96      1.0000 0.55100  0.71440  0.81730  Biso   1.000  C
  H165     1.0000 0.13470  0.76560  0.34170  Biso   1.000  H
  H166     1.0000 0.36530  0.26560  0.15830  Biso   1.000  H
  H167     1.0000 0.86530  0.23440  0.65830  Biso   1.000  H
  H168     1.0000 0.63470  0.73440  0.84170  Biso   1.000  H
  H169     1.0000 0.97650  0.74220  0.31660  Biso   1.000  H
  H170     1.0000 0.52350  0.24220  0.18340  Biso   1.000  H
  H171     1.0000 0.02350  0.25780  0.68340  Biso   1.000  H
  H172     1.0000 0.47650  0.75780  0.81660  Biso   1.000  H
  H173     1.0000 0.01530  0.83780  0.33490  Biso   1.000  H
  H174     1.0000 0.48470  0.33780  0.16510  Biso   1.000  H
  H175     1.0000 0.98470  0.16220  0.66510  Biso   1.000  H
  H176     1.0000 0.51530  0.66220  0.83490  Biso   1.000  H
  N9       1.0000 0.66610  0.81000  0.41950  Biso   1.000  N
  N10      1.0000 0.83390  0.31000  0.08050  Biso   1.000  N
  N11      1.0000 0.33390  0.19000  0.58050  Biso   1.000  N
  N12      1.0000 0.16610  0.69000  0.91950  Biso   1.000  N
  H177     1.0000 0.65660  0.80840  0.37760  Biso   1.000  H
  H178     1.0000 0.84340  0.30840  0.12240  Biso   1.000  H
  H179     1.0000 0.34340  0.19160  0.62240  Biso   1.000  H
  H180     1.0000 0.15660  0.69160  0.87760  Biso   1.000  H
  C97      1.0000 0.68820  0.90090  0.43890  Biso   1.000  C
  C98      1.0000 0.81180  0.40090  0.06110  Biso   1.000  C
  C99      1.0000 0.31180  0.09910  0.56110  Biso   1.000  C
  C100     1.0000 0.18820  0.59910  0.93890  Biso   1.000  C
  H181     1.0000 0.70190  0.90320  0.48340  Biso   1.000  H
  H182     1.0000 0.79810  0.40320  0.01660  Biso   1.000  H
  H183     1.0000 0.29810  0.09680  0.51660  Biso   1.000  H
  H184     1.0000 0.20190  0.59680  0.98340  Biso   1.000  H
  H185     1.0000 0.60170  0.93400  0.42690  Biso   1.000  H
  H186     1.0000 0.89830  0.43400  0.07310  Biso   1.000  H
  H187     1.0000 0.39830  0.06600  0.57310  Biso   1.000  H
  H188     1.0000 0.10170  0.56600  0.92690  Biso   1.000  H
  C101     1.0000 0.81540  0.94080  0.41140  Biso   1.000  C
  C102     1.0000 0.68460  0.44080  0.08860  Biso   1.000  C
  C103     1.0000 0.18460  0.05920  0.58860  Biso   1.000  C
  C104     1.0000 0.31540  0.55920  0.91140  Biso   1.000  C
  H189     1.0000 0.80650  0.93420  0.36700  Biso   1.000  H
  H190     1.0000 0.69350  0.43420  0.13300  Biso   1.000  H
  H191     1.0000 0.19350  0.06580  0.63300  Biso   1.000  H
  H192     1.0000 0.30650  0.56580  0.86700  Biso   1.000  H
  H193     1.0000 0.90360  0.91150  0.42650  Biso   1.000  H
  H194     1.0000 0.59640  0.41150  0.07350  Biso   1.000  H
  H195     1.0000 0.09640  0.08850  0.57350  Biso   1.000  H
  H196     1.0000 0.40360  0.58850  0.92650  Biso   1.000  H
  C105     1.0000 0.82600  0.03500  0.42750  Biso   1.000  C
  C106     1.0000 0.67400  0.53500  0.07250  Biso   1.000  C
  C107     1.0000 0.17400  0.96500  0.57250  Biso   1.000  C
  C108     1.0000 0.32600  0.46500  0.92750  Biso   1.000  C
  H197     1.0000 0.90880  0.05980  0.40930  Biso   1.000  H
  H198     1.0000 0.59120  0.55980  0.09070  Biso   1.000  H
  H199     1.0000 0.09120  0.94020  0.59070  Biso   1.000  H
  H200     1.0000 0.40880  0.44020  0.90930  Biso   1.000  H
  H201     1.0000 0.83580  0.04140  0.47140  Biso   1.000  H
  H202     1.0000 0.66420  0.54140  0.02860  Biso   1.000  H
  H203     1.0000 0.16420  0.95860  0.52860  Biso   1.000  H
  H204     1.0000 0.33580  0.45860  0.97140  Biso   1.000  H
  H205     1.0000 0.73910  0.06410  0.41190  Biso   1.000  H
  H206     1.0000 0.76090  0.56410  0.08810  Biso   1.000  H
  H207     1.0000 0.26090  0.93590  0.58810  Biso   1.000  H
  H208     1.0000 0.23910  0.43590  0.91190  Biso   1.000  H
  C109     1.0000 0.53340  0.77240  0.44380  Biso   1.000  C
  C110     1.0000 0.96660  0.27240  0.05620  Biso   1.000  C
  C111     1.0000 0.46660  0.22760  0.55620  Biso   1.000  C
  C112     1.0000 0.03340  0.72760  0.94380  Biso   1.000  C
  H209     1.0000 0.52360  0.71320  0.42940  Biso   1.000  H
  H210     1.0000 0.97640  0.21320  0.07060  Biso   1.000  H
  H211     1.0000 0.47640  0.28680  0.57060  Biso   1.000  H
  H212     1.0000 0.02360  0.78680  0.92940  Biso   1.000  H
  H213     1.0000 0.54530  0.77080  0.48840  Biso   1.000  H
  H214     1.0000 0.95470  0.27080  0.01160  Biso   1.000  H
  H215     1.0000 0.45470  0.22920  0.51160  Biso   1.000  H
  H216     1.0000 0.04530  0.72920  0.98840  Biso   1.000  H
  C113     1.0000 0.39820  0.81940  0.42610  Biso   1.000  C
  C114     1.0000 0.10180  0.31940  0.07390  Biso   1.000  C
  C115     1.0000 0.60180  0.18060  0.57390  Biso   1.000  C
  C116     1.0000 0.89820  0.68060  0.92610  Biso   1.000  C
  H217     1.0000 0.38860  0.82520  0.38160  Biso   1.000  H
  H218     1.0000 0.11140  0.32520  0.11840  Biso   1.000  H
  H219     1.0000 0.61140  0.17480  0.61840  Biso   1.000  H
  H220     1.0000 0.88860  0.67480  0.88160  Biso   1.000  H
  H221     1.0000 0.40270  0.87700  0.44380  Biso   1.000  H
  H222     1.0000 0.09730  0.37700  0.05620  Biso   1.000  H
  H223     1.0000 0.59730  0.12300  0.55620  Biso   1.000  H
  H224     1.0000 0.90270  0.62300  0.94380  Biso   1.000  H
  C117     1.0000 0.26860  0.77280  0.44800  Biso   1.000  C
  C118     1.0000 0.23140  0.27280  0.05200  Biso   1.000  C
  C119     1.0000 0.73140  0.22720  0.55200  Biso   1.000  C
  C120     1.0000 0.76860  0.72720  0.94800  Biso   1.000  C
  H225     1.0000 0.18210  0.80520  0.43680  Biso   1.000  H
  H226     1.0000 0.31790  0.30520  0.06320  Biso   1.000  H
  H227     1.0000 0.81790  0.19480  0.56320  Biso   1.000  H
  H228     1.0000 0.68210  0.69480  0.93680  Biso   1.000  H
  H229     1.0000 0.27840  0.76670  0.49200  Biso   1.000  H
  H230     1.0000 0.22160  0.26670  0.00800  Biso   1.000  H
  H231     1.0000 0.72160  0.23330  0.50800  Biso   1.000  H
  H232     1.0000 0.77840  0.73330  0.99200  Biso   1.000  H
  H233     1.0000 0.26190  0.71670  0.42920  Biso   1.000  H
  H234     1.0000 0.23810  0.21670  0.07080  Biso   1.000  H
  H235     1.0000 0.73810  0.28330  0.57080  Biso   1.000  H
  H236     1.0000 0.76190  0.78330  0.92920  Biso   1.000  H
  C121     1.0000 0.79390  0.75640  0.43990  Biso   1.000  C
  C122     1.0000 0.70610  0.25640  0.06010  Biso   1.000  C
  C123     1.0000 0.20610  0.24360  0.56010  Biso   1.000  C
  C124     1.0000 0.29390  0.74360  0.93990  Biso   1.000  C
  H237     1.0000 0.88070  0.78170  0.42420  Biso   1.000  H
  H238     1.0000 0.61930  0.28170  0.07580  Biso   1.000  H
  H239     1.0000 0.11930  0.21830  0.57580  Biso   1.000  H
  H240     1.0000 0.38070  0.71830  0.92420  Biso   1.000  H
  H241     1.0000 0.80480  0.75750  0.48450  Biso   1.000  H
  H242     1.0000 0.69520  0.25750  0.01550  Biso   1.000  H
  H243     1.0000 0.19520  0.24250  0.51550  Biso   1.000  H
  H244     1.0000 0.30480  0.74250  0.98450  Biso   1.000  H
  C125     1.0000 0.78180  0.66590  0.41920  Biso   1.000  C
  C126     1.0000 0.71820  0.16590  0.08080  Biso   1.000  C
  C127     1.0000 0.21820  0.33410  0.58080  Biso   1.000  C
  C128     1.0000 0.28180  0.83410  0.91920  Biso   1.000  C
  H245     1.0000 0.75110  0.66490  0.37580  Biso   1.000  H
  H246     1.0000 0.74890  0.16490  0.12420  Biso   1.000  H
  H247     1.0000 0.24890  0.33510  0.62420  Biso   1.000  H
  H248     1.0000 0.25110  0.83510  0.87580  Biso   1.000  H
  H249     1.0000 0.70740  0.63720  0.44150  Biso   1.000  H
  H250     1.0000 0.79260  0.13720  0.05850  Biso   1.000  H
  H251     1.0000 0.29260  0.36280  0.55850  Biso   1.000  H
  H252     1.0000 0.20740  0.86280  0.94150  Biso   1.000  H
  C129     1.0000 0.91990  0.61750  0.42850  Biso   1.000  C
  C130     1.0000 0.58010  0.11750  0.07150  Biso   1.000  C
  C131     1.0000 0.08010  0.38250  0.57150  Biso   1.000  C
  C132     1.0000 0.41990  0.88250  0.92850  Biso   1.000  C
  H253     1.0000 0.90610  0.55930  0.41410  Biso   1.000  H
  H254     1.0000 0.59390  0.05930  0.08590  Biso   1.000  H
  H255     1.0000 0.09390  0.44070  0.58590  Biso   1.000  H
  H256     1.0000 0.40610  0.94070  0.91410  Biso   1.000  H
  H257     1.0000 0.94960  0.61690  0.47160  Biso   1.000  H
  H258     1.0000 0.55040  0.11690  0.02840  Biso   1.000  H
  H259     1.0000 0.05040  0.38310  0.52840  Biso   1.000  H
  H260     1.0000 0.44960  0.88310  0.97160  Biso   1.000  H
  H261     1.0000 0.99370  0.64500  0.40590  Biso   1.000  H
  H262     1.0000 0.50630  0.14500  0.09410  Biso   1.000  H
  H263     1.0000 0.00630  0.35500  0.59410  Biso   1.000  H
  H264     1.0000 0.49370  0.85500  0.90590  Biso   1.000  H
  N13      1.0000 0.67170  0.81960  0.42830  Biso   1.000  N
  N14      1.0000 0.82830  0.31960  0.07170  Biso   1.000  N
  N15      1.0000 0.32830  0.18040  0.57170  Biso   1.000  N
  N16      1.0000 0.17170  0.68040  0.92830  Biso   1.000  N
  H265     1.0000 0.66370  0.81710  0.38630  Biso   1.000  H
  H266     1.0000 0.83630  0.31710  0.11370  Biso   1.000  H
  H267     1.0000 0.33630  0.18290  0.61370  Biso   1.000  H
  H268     1.0000 0.16370  0.68290  0.88630  Biso   1.000  H
  C133     1.0000 0.79330  0.87800  0.44580  Biso   1.000  C
  C134     1.0000 0.70670  0.37800  0.05420  Biso   1.000  C
  C135     1.0000 0.20670  0.12200  0.55420  Biso   1.000  C
  C136     1.0000 0.29330  0.62200  0.94580  Biso   1.000  C
  H269     1.0000 0.79970  0.88360  0.49030  Biso   1.000  H
  H270     1.0000 0.70030  0.38360  0.00970  Biso   1.000  H
  H271     1.0000 0.20030  0.11640  0.50970  Biso   1.000  H
  H272     1.0000 0.29970  0.61640  0.99030  Biso   1.000  H
  H273     1.0000 0.88290  0.85140  0.43390  Biso   1.000  H
  H274     1.0000 0.61710  0.35140  0.06610  Biso   1.000  H
  H275     1.0000 0.11710  0.14860  0.56610  Biso   1.000  H
  H276     1.0000 0.38290  0.64860  0.93390  Biso   1.000  H
  C137     1.0000 0.78330  0.96450  0.41890  Biso   1.000  C
  C138     1.0000 0.71670  0.46450  0.08110  Biso   1.000  C
  C139     1.0000 0.21670  0.03550  0.58110  Biso   1.000  C
  C140     1.0000 0.28330  0.53550  0.91890  Biso   1.000  C
  H277     1.0000 0.69770  0.99370  0.43270  Biso   1.000  H
  H278     1.0000 0.80230  0.49370  0.06730  Biso   1.000  H
  H279     1.0000 0.30230  0.00630  0.56730  Biso   1.000  H
  H280     1.0000 0.19770  0.50630  0.93270  Biso   1.000  H
  H281     1.0000 0.77350  0.96010  0.37430  Biso   1.000  H
  H282     1.0000 0.72650  0.46010  0.12570  Biso   1.000  H
  H283     1.0000 0.22650  0.03990  0.62570  Biso   1.000  H
  H284     1.0000 0.27350  0.53990  0.87430  Biso   1.000  H
  C141     1.0000 0.91710  0.01620  0.43760  Biso   1.000  C
  C142     1.0000 0.58290  0.51620  0.06240  Biso   1.000  C
  C143     1.0000 0.08290  0.98380  0.56240  Biso   1.000  C
  C144     1.0000 0.41710  0.48380  0.93760  Biso   1.000  C
  C145     1.0000 0.53400  0.85470  0.44920  Biso   1.000  C
  C146     1.0000 0.96600  0.35470  0.05080  Biso   1.000  C
  C147     1.0000 0.46600  0.14530  0.55080  Biso   1.000  C
  C148     1.0000 0.03400  0.64530  0.94920  Biso   1.000  C
  H285     1.0000 0.51590  0.91020  0.42950  Biso   1.000  H
  H286     1.0000 0.98410  0.41020  0.07050  Biso   1.000  H
  H287     1.0000 0.48410  0.08980  0.57050  Biso   1.000  H
  H288     1.0000 0.01590  0.58980  0.92950  Biso   1.000  H
  H289     1.0000 0.54540  0.86480  0.49330  Biso   1.000  H
  H290     1.0000 0.95460  0.36480  0.00670  Biso   1.000  H
  H291     1.0000 0.45460  0.13520  0.50670  Biso   1.000  H
  H292     1.0000 0.04540  0.63520  0.99330  Biso   1.000  H
  C149     1.0000 0.40550  0.79890  0.43650  Biso   1.000  C
  C150     1.0000 0.09450  0.29890  0.06350  Biso   1.000  C
  C151     1.0000 0.59450  0.20110  0.56350  Biso   1.000  C
  C152     1.0000 0.90550  0.70110  0.93650  Biso   1.000  C
  H293     1.0000 0.41500  0.74640  0.46080  Biso   1.000  H
  H294     1.0000 0.08500  0.24640  0.03920  Biso   1.000  H
  H295     1.0000 0.58500  0.25360  0.53920  Biso   1.000  H
  H296     1.0000 0.91500  0.75360  0.96080  Biso   1.000  H
  H297     1.0000 0.39810  0.78300  0.39330  Biso   1.000  H
  H298     1.0000 0.10190  0.28300  0.10670  Biso   1.000  H
  H299     1.0000 0.60190  0.21700  0.60670  Biso   1.000  H
  H300     1.0000 0.89810  0.71700  0.89330  Biso   1.000  H
  C153     1.0000 0.27130  0.84740  0.45270  Biso   1.000  C
  C154     1.0000 0.22870  0.34740  0.04730  Biso   1.000  C
  C155     1.0000 0.72870  0.15260  0.54730  Biso   1.000  C
  C156     1.0000 0.77130  0.65260  0.95270  Biso   1.000  C
  C157     1.0000 0.70130  0.73160  0.45120  Biso   1.000  C
  C158     1.0000 0.79870  0.23160  0.04880  Biso   1.000  C
  C159     1.0000 0.29870  0.26840  0.54880  Biso   1.000  C
  C160     1.0000 0.20130  0.76840  0.95120  Biso   1.000  C
  H301     1.0000 0.61730  0.69560  0.44060  Biso   1.000  H
  H302     1.0000 0.88270  0.19560  0.05940  Biso   1.000  H
  H303     1.0000 0.38270  0.30440  0.55940  Biso   1.000  H
  H304     1.0000 0.11730  0.80440  0.94060  Biso   1.000  H
  H305     1.0000 0.71380  0.73350  0.49580  Biso   1.000  H
  H306     1.0000 0.78620  0.23350  0.00420  Biso   1.000  H
  H307     1.0000 0.28620  0.26650  0.50420  Biso   1.000  H
  H308     1.0000 0.21380  0.76650  0.99580  Biso   1.000  H
  C161     1.0000 0.83280  0.69060  0.42640  Biso   1.000  C
  C162     1.0000 0.66720  0.19060  0.07360  Biso   1.000  C
  C163     1.0000 0.16720  0.30940  0.57360  Biso   1.000  C
  C164     1.0000 0.33280  0.80940  0.92640  Biso   1.000  C
  H309     1.0000 0.92000  0.71880  0.44350  Biso   1.000  H
  H310     1.0000 0.58000  0.21880  0.05650  Biso   1.000  H
  H311     1.0000 0.08000  0.28120  0.55650  Biso   1.000  H
  H312     1.0000 0.42000  0.78120  0.94350  Biso   1.000  H
  H313     1.0000 0.82980  0.69690  0.38190  Biso   1.000  H
  H314     1.0000 0.67020  0.19690  0.11810  Biso   1.000  H
  H315     1.0000 0.17020  0.30310  0.61810  Biso   1.000  H
  H316     1.0000 0.32980  0.80310  0.88190  Biso   1.000  H
  C165     1.0000 0.83580  0.59590  0.44320  Biso   1.000  C
  C166     1.0000 0.66420  0.09590  0.05680  Biso   1.000  C
  C167     1.0000 0.16420  0.40410  0.55680  Biso   1.000  C
  C168     1.0000 0.33580  0.90410  0.94320  Biso   1.000  C
  N17      1.0000 0.62500  0.84890  0.40410  Biso   1.000  N
  N18      1.0000 0.87500  0.34890  0.09590  Biso   1.000  N
  N19      1.0000 0.37500  0.15110  0.59590  Biso   1.000  N
  N20      1.0000 0.12500  0.65110  0.90410  Biso   1.000  N
  H317     1.0000 0.64890  0.84570  0.36410  Biso   1.000  H
  H318     1.0000 0.85110  0.34570  0.13590  Biso   1.000  H
  H319     1.0000 0.35110  0.15430  0.63590  Biso   1.000  H
  H320     1.0000 0.14890  0.65430  0.86410  Biso   1.000  H
  C169     1.0000 0.65190  0.93860  0.42340  Biso   1.000  C
  C170     1.0000 0.84810  0.43860  0.07660  Biso   1.000  C
  C171     1.0000 0.34810  0.06140  0.57660  Biso   1.000  C
  C172     1.0000 0.15190  0.56140  0.92340  Biso   1.000  C
  H321     1.0000 0.64770  0.94240  0.46780  Biso   1.000  H
  H322     1.0000 0.85230  0.44240  0.03220  Biso   1.000  H
  H323     1.0000 0.35230  0.05760  0.53220  Biso   1.000  H
  H324     1.0000 0.14770  0.55760  0.96780  Biso   1.000  H
  H325     1.0000 0.57550  0.97500  0.40500  Biso   1.000  H
  H326     1.0000 0.92450  0.47500  0.09500  Biso   1.000  H
  H327     1.0000 0.42450  0.02500  0.59500  Biso   1.000  H
  H328     1.0000 0.07550  0.52500  0.90500  Biso   1.000  H
  C173     1.0000 0.79500  0.97140  0.40550  Biso   1.000  C
  C174     1.0000 0.70500  0.47140  0.09450  Biso   1.000  C
  C175     1.0000 0.20500  0.02860  0.59450  Biso   1.000  C
  C176     1.0000 0.29500  0.52860  0.90550  Biso   1.000  C
  H329     1.0000 0.79930  0.96870  0.36100  Biso   1.000  H
  H330     1.0000 0.70070  0.46870  0.13900  Biso   1.000  H
  H331     1.0000 0.20070  0.03130  0.63900  Biso   1.000  H
  H332     1.0000 0.29930  0.53130  0.86100  Biso   1.000  H
  H333     1.0000 0.87200  0.93520  0.42360  Biso   1.000  H
  H334     1.0000 0.62800  0.43520  0.07640  Biso   1.000  H
  H335     1.0000 0.12800  0.06480  0.57640  Biso   1.000  H
  H336     1.0000 0.37200  0.56480  0.92360  Biso   1.000  H
  C177     1.0000 0.81700  0.06200  0.42660  Biso   1.000  C
  C178     1.0000 0.68300  0.56200  0.07340  Biso   1.000  C
  C179     1.0000 0.18300  0.93800  0.57340  Biso   1.000  C
  C180     1.0000 0.31700  0.43800  0.92660  Biso   1.000  C
  H337     1.0000 0.91010  0.08230  0.41460  Biso   1.000  H
  H338     1.0000 0.58990  0.58230  0.08540  Biso   1.000  H
  H339     1.0000 0.08990  0.91770  0.58540  Biso   1.000  H
  H340     1.0000 0.41010  0.41770  0.91460  Biso   1.000  H
  H341     1.0000 0.81450  0.06440  0.47060  Biso   1.000  H
  H342     1.0000 0.68550  0.56440  0.02940  Biso   1.000  H
  H343     1.0000 0.18550  0.93560  0.52940  Biso   1.000  H
  H344     1.0000 0.31450  0.43560  0.97060  Biso   1.000  H
  H345     1.0000 0.74160  0.09790  0.40810  Biso   1.000  H
  H346     1.0000 0.75840  0.59790  0.09190  Biso   1.000  H
  H347     1.0000 0.25840  0.90210  0.59190  Biso   1.000  H
  H348     1.0000 0.24160  0.40210  0.90810  Biso   1.000  H
  C181     1.0000 0.47030  0.82620  0.40430  Biso   1.000  C
  C182     1.0000 0.02970  0.32620  0.09570  Biso   1.000  C
  C183     1.0000 0.52970  0.17380  0.59570  Biso   1.000  C
  C184     1.0000 0.97030  0.67380  0.90430  Biso   1.000  C
  H349     1.0000 0.45670  0.76950  0.38590  Biso   1.000  H
  H350     1.0000 0.04330  0.26950  0.11410  Biso   1.000  H
  H351     1.0000 0.54330  0.23050  0.61410  Biso   1.000  H
  H352     1.0000 0.95670  0.73050  0.88590  Biso   1.000  H
  H353     1.0000 0.41520  0.86710  0.37840  Biso   1.000  H
  H354     1.0000 0.08480  0.36710  0.12160  Biso   1.000  H
  H355     1.0000 0.58480  0.13290  0.62160  Biso   1.000  H
  H356     1.0000 0.91520  0.63290  0.87840  Biso   1.000  H
  C185     1.0000 0.40970  0.82500  0.46570  Biso   1.000  C
  C186     1.0000 0.09030  0.32500  0.03430  Biso   1.000  C
  C187     1.0000 0.59030  0.17500  0.53430  Biso   1.000  C
  C188     1.0000 0.90970  0.67500  0.96570  Biso   1.000  C
  H357     1.0000 0.42710  0.88060  0.48580  Biso   1.000  H
  H358     1.0000 0.07290  0.38060  0.01420  Biso   1.000  H
  H359     1.0000 0.57290  0.11940  0.51420  Biso   1.000  H
  H360     1.0000 0.92710  0.61940  0.98580  Biso   1.000  H
  H361     1.0000 0.45700  0.78080  0.49100  Biso   1.000  H
  H362     1.0000 0.04300  0.28080  0.00900  Biso   1.000  H
  H363     1.0000 0.54300  0.21920  0.50900  Biso   1.000  H
  H364     1.0000 0.95700  0.71920  0.99100  Biso   1.000  H
  C189     1.0000 0.24880  0.80810  0.45870  Biso   1.000  C
  C190     1.0000 0.25120  0.30810  0.04130  Biso   1.000  C
  C191     1.0000 0.75120  0.19190  0.54130  Biso   1.000  C
  C192     1.0000 0.74880  0.69190  0.95870  Biso   1.000  C
  H365     1.0000 0.21130  0.80050  0.49860  Biso   1.000  H
  H366     1.0000 0.28870  0.30050  0.00140  Biso   1.000  H
  H367     1.0000 0.78870  0.19950  0.50140  Biso   1.000  H
  H368     1.0000 0.71130  0.69950  0.99860  Biso   1.000  H
  H369     1.0000 0.23160  0.75660  0.43470  Biso   1.000  H
  H370     1.0000 0.26840  0.25660  0.06530  Biso   1.000  H
  H371     1.0000 0.76840  0.24340  0.56530  Biso   1.000  H
  H372     1.0000 0.73160  0.74340  0.93470  Biso   1.000  H
  H373     1.0000 0.20090  0.85610  0.43820  Biso   1.000  H
  H374     1.0000 0.29910  0.35610  0.06180  Biso   1.000  H
  H375     1.0000 0.79910  0.14390  0.56180  Biso   1.000  H
  H376     1.0000 0.70090  0.64390  0.93820  Biso   1.000  H
  C193     1.0000 0.72000  0.78720  0.43820  Biso   1.000  C
  C194     1.0000 0.78000  0.28720  0.06180  Biso   1.000  C
  C195     1.0000 0.28000  0.21280  0.56180  Biso   1.000  C
  C196     1.0000 0.22000  0.71280  0.93820  Biso   1.000  C
  H377     1.0000 0.82040  0.80370  0.43340  Biso   1.000  H
  H378     1.0000 0.67960  0.30370  0.06660  Biso   1.000  H
  H379     1.0000 0.17960  0.19630  0.56660  Biso   1.000  H
  H380     1.0000 0.32040  0.69630  0.93340  Biso   1.000  H
  H381     1.0000 0.70230  0.79130  0.48160  Biso   1.000  H
  H382     1.0000 0.79770  0.29130  0.01840  Biso   1.000  H
  H383     1.0000 0.29770  0.20870  0.51840  Biso   1.000  H
  H384     1.0000 0.20230  0.70870  0.98160  Biso   1.000  H
  C197     1.0000 0.70100  0.69720  0.41860  Biso   1.000  C
  C198     1.0000 0.79900  0.19720  0.08140  Biso   1.000  C
  C199     1.0000 0.29900  0.30280  0.58140  Biso   1.000  C
  C200     1.0000 0.20100  0.80280  0.91860  Biso   1.000  C
  H385     1.0000 0.69120  0.69510  0.37400  Biso   1.000  H
  H386     1.0000 0.80880  0.19510  0.12600  Biso   1.000  H
  H387     1.0000 0.30880  0.30490  0.62600  Biso   1.000  H
  H388     1.0000 0.19120  0.80490  0.87400  Biso   1.000  H
  H389     1.0000 0.61080  0.67540  0.43400  Biso   1.000  H
  H390     1.0000 0.88920  0.17540  0.06600  Biso   1.000  H
  H391     1.0000 0.38920  0.32460  0.56600  Biso   1.000  H
  H392     1.0000 0.11080  0.82460  0.93400  Biso   1.000  H
  C201     1.0000 0.82200  0.63980  0.44060  Biso   1.000  C
  C202     1.0000 0.67800  0.13980  0.05940  Biso   1.000  C
  C203     1.0000 0.17800  0.36020  0.55940  Biso   1.000  C
  C204     1.0000 0.32200  0.86020  0.94060  Biso   1.000  C
  H393     1.0000 0.80150  0.58160  0.42760  Biso   1.000  H
  H394     1.0000 0.69850  0.08160  0.07240  Biso   1.000  H
  H395     1.0000 0.19850  0.41840  0.57240  Biso   1.000  H
  H396     1.0000 0.30150  0.91840  0.92760  Biso   1.000  H
  H397     1.0000 0.83290  0.64190  0.48470  Biso   1.000  H
  H398     1.0000 0.66710  0.14190  0.01530  Biso   1.000  H
  H399     1.0000 0.16710  0.35810  0.51530  Biso   1.000  H
  H400     1.0000 0.33290  0.85810  0.98470  Biso   1.000  H
  H401     1.0000 0.91060  0.65890  0.42360  Biso   1.000  H
  H402     1.0000 0.58940  0.15890  0.07640  Biso   1.000  H
  H403     1.0000 0.08940  0.34110  0.57640  Biso   1.000  H
  H404     1.0000 0.41060  0.84110  0.92360  Biso   1.000  H
  O49      1.0000 0.02280  0.71350  0.10361  Biso   1.000  O
  O50      1.0000 0.47720  0.21350  0.39639  Biso   1.000  O
  O51      1.0000 0.97720  0.28650  0.89639  Biso   1.000  O
  O52      1.0000 0.52280  0.78650  0.60361  Biso   1.000  O
  O53      1.0000 0.22450  0.73860  0.11134  Biso   1.000  O
  O54      1.0000 0.27550  0.23860  0.38866  Biso   1.000  O
  O55      1.0000 0.77550  0.26140  0.88866  Biso   1.000  O
  O56      1.0000 0.72450  0.76140  0.61134  Biso   1.000  O
  O57      1.0000 0.30900  0.68230  0.09338  Biso   1.000  O
  O58      1.0000 0.19100  0.18230  0.40662  Biso   1.000  O
  O59      1.0000 0.69100  0.31770  0.90662  Biso   1.000  O
  O60      1.0000 0.80900  0.81770  0.59338  Biso   1.000  O
  O61      1.0000 0.10870  0.57630  0.09100  Biso   1.000  O
  O62      1.0000 0.39130  0.07630  0.40900  Biso   1.000  O
  O63      1.0000 0.89130  0.42370  0.90900  Biso   1.000  O
  O64      1.0000 0.60870  0.92370  0.59100  Biso   1.000  O
  O65      1.0000 0.13800  0.53110  0.08340  Biso   1.000  O
  O66      1.0000 0.36200  0.03110  0.41660  Biso   1.000  O
  O67      1.0000 0.86200  0.46890  0.91660  Biso   1.000  O
  O68      1.0000 0.63800  0.96890  0.58340  Biso   1.000  O
