data_image0
_cell_length_a       9.3787
_cell_length_b       15.9582
_cell_length_c       22.5721
_cell_angle_alpha    90
_cell_angle_beta     93.0504
_cell_angle_gamma    90

_symmetry_space_group_name_H-M    "P 1"
_symmetry_int_tables_number       1

loop_
  _symmetry_equiv_pos_as_xyz
  'x, y, z'

loop_
  _atom_site_label
  _atom_site_occupancy
  _atom_site_fract_x
  _atom_site_fract_y
  _atom_site_fract_z
  _atom_site_thermal_displace_type
  _atom_site_B_iso_or_equiv
  _atom_site_type_symbol
  Cu1      1.0000 0.54891  0.66248  0.24509  Biso   1.000  Cu
  Cu2      1.0000 0.95109  0.16248  0.25491  Biso   1.000  Cu
  Cu3      1.0000 0.45109  0.33752  0.75491  Biso   1.000  Cu
  Cu4      1.0000 0.04891  0.83752  0.74509  Biso   1.000  Cu
  Cu5      1.0000 0.05090  0.50304  0.24716  Biso   1.000  Cu
  Cu6      1.0000 0.44910  0.00304  0.25284  Biso   1.000  Cu
  Cu7      1.0000 0.94910  0.49696  0.75284  Biso   1.000  Cu
  Cu8      1.0000 0.55090  0.99696  0.74716  Biso   1.000  Cu
  O1       1.0000 0.42530  0.56211  0.19021  Biso   1.000  O
  O2       1.0000 0.07470  0.06211  0.30979  Biso   1.000  O
  O3       1.0000 0.57470  0.43789  0.80979  Biso   1.000  O
  O4       1.0000 0.92530  0.93789  0.69021  Biso   1.000  O
  O5       1.0000 0.37930  0.64587  0.29329  Biso   1.000  O
  O6       1.0000 0.12070  0.14587  0.20671  Biso   1.000  O
  O7       1.0000 0.62070  0.35413  0.70671  Biso   1.000  O
  O8       1.0000 0.87930  0.85413  0.79329  Biso   1.000  O
  O9       1.0000 0.21570  0.49897  0.19702  Biso   1.000  O
  O10      1.0000 0.28430  0.99897  0.30298  Biso   1.000  O
  O11      1.0000 0.78430  0.50103  0.80298  Biso   1.000  O
  O12      1.0000 0.71570  0.00103  0.69702  Biso   1.000  O
  O13      1.0000 0.16640  0.58524  0.29383  Biso   1.000  O
  O14      1.0000 0.33360  0.08524  0.20617  Biso   1.000  O
  O15      1.0000 0.83360  0.41476  0.70617  Biso   1.000  O
  O16      1.0000 0.66640  0.91476  0.79383  Biso   1.000  O
  O17      1.0000 0.45080  0.75285  0.19898  Biso   1.000  O
  O18      1.0000 0.04920  0.25285  0.30102  Biso   1.000  O
  O19      1.0000 0.54920  0.24715  0.80102  Biso   1.000  O
  O20      1.0000 0.95080  0.74715  0.69898  Biso   1.000  O
  O21      1.0000 0.61000  0.78004  0.30139  Biso   1.000  O
  O22      1.0000 0.89000  0.28004  0.19861  Biso   1.000  O
  O23      1.0000 0.39000  0.21996  0.69861  Biso   1.000  O
  O24      1.0000 0.11000  0.71996  0.80139  Biso   1.000  O
  O25      1.0000 0.39200  0.88733  0.19664  Biso   1.000  O
  O26      1.0000 0.10800  0.38733  0.30336  Biso   1.000  O
  O27      1.0000 0.60800  0.11267  0.80336  Biso   1.000  O
  O28      1.0000 0.89200  0.61267  0.69664  Biso   1.000  O
  O29      1.0000 0.54790  0.91345  0.29949  Biso   1.000  O
  O30      1.0000 0.95210  0.41345  0.20051  Biso   1.000  O
  O31      1.0000 0.45210  0.08655  0.70051  Biso   1.000  O
  O32      1.0000 0.04790  0.58655  0.79949  Biso   1.000  O
  O33      1.0000 0.71700  0.66753  0.19633  Biso   1.000  O
  O34      1.0000 0.78300  0.16753  0.30367  Biso   1.000  O
  O35      1.0000 0.28300  0.33247  0.80367  Biso   1.000  O
  O36      1.0000 0.21700  0.83247  0.69633  Biso   1.000  O
  O37      1.0000 0.66390  0.57960  0.29149  Biso   1.000  O
  O38      1.0000 0.83610  0.07960  0.20851  Biso   1.000  O
  O39      1.0000 0.33610  0.42040  0.70851  Biso   1.000  O
  O40      1.0000 0.16390  0.92040  0.79149  Biso   1.000  O
  O41      1.0000 0.92640  0.60425  0.18947  Biso   1.000  O
  O42      1.0000 0.57360  0.10425  0.31053  Biso   1.000  O
  O43      1.0000 0.07360  0.39575  0.81053  Biso   1.000  O
  O44      1.0000 0.42640  0.89575  0.68947  Biso   1.000  O
  O45      1.0000 0.87730  0.52048  0.29276  Biso   1.000  O
  O46      1.0000 0.62270  0.02048  0.20724  Biso   1.000  O
  O47      1.0000 0.12270  0.47952  0.70724  Biso   1.000  O
  O48      1.0000 0.37730  0.97952  0.79276  Biso   1.000  O
  C1       1.0000 0.31330  0.54948  0.21461  Biso   1.000  C
  C2       1.0000 0.18670  0.04948  0.28539  Biso   1.000  C
  C3       1.0000 0.68670  0.45052  0.78539  Biso   1.000  C
  C4       1.0000 0.81330  0.95052  0.71461  Biso   1.000  C
  C5       1.0000 0.28470  0.59799  0.27211  Biso   1.000  C
  C6       1.0000 0.21530  0.09799  0.22789  Biso   1.000  C
  C7       1.0000 0.71530  0.40201  0.72789  Biso   1.000  C
  C8       1.0000 0.78470  0.90201  0.77211  Biso   1.000  C
  C9       1.0000 0.45470  0.82644  0.21939  Biso   1.000  C
  C10      1.0000 0.04530  0.32644  0.28061  Biso   1.000  C
  C11      1.0000 0.54530  0.17356  0.78061  Biso   1.000  C
  C12      1.0000 0.95470  0.67356  0.71939  Biso   1.000  C
  C13      1.0000 0.54600  0.84077  0.27813  Biso   1.000  C
  C14      1.0000 0.95400  0.34077  0.22187  Biso   1.000  C
  C15      1.0000 0.45400  0.15923  0.72187  Biso   1.000  C
  C16      1.0000 0.04600  0.65923  0.77813  Biso   1.000  C
  C17      1.0000 0.81330  0.61728  0.21326  Biso   1.000  C
  C18      1.0000 0.68670  0.11728  0.28674  Biso   1.000  C
  C19      1.0000 0.18670  0.38272  0.78674  Biso   1.000  C
  C20      1.0000 0.31330  0.88272  0.71326  Biso   1.000  C
  C21      1.0000 0.78360  0.56798  0.27051  Biso   1.000  C
  C22      1.0000 0.71640  0.06798  0.22949  Biso   1.000  C
  C23      1.0000 0.21640  0.43202  0.72949  Biso   1.000  C
  C24      1.0000 0.28360  0.93202  0.77051  Biso   1.000  C
  N1       1.0000 0.95690  0.87160  0.14660  Biso   1.000  N
  N2       1.0000 0.54310  0.37160  0.35340  Biso   1.000  N
  N3       1.0000 0.04310  0.12840  0.85340  Biso   1.000  N
  N4       1.0000 0.45690  0.62840  0.64660  Biso   1.000  N
  H1       1.0000 0.98630  0.82250  0.12970  Biso   1.000  H
  H2       1.0000 0.51370  0.32250  0.37030  Biso   1.000  H
  H3       1.0000 0.01370  0.17750  0.87030  Biso   1.000  H
  H4       1.0000 0.48630  0.67750  0.62970  Biso   1.000  H
  C25      1.0000 0.81500  0.89630  0.11490  Biso   1.000  C
  C26      1.0000 0.68500  0.39630  0.38510  Biso   1.000  C
  C27      1.0000 0.18500  0.10370  0.88510  Biso   1.000  C
  C28      1.0000 0.31500  0.60370  0.61490  Biso   1.000  C
  H5       1.0000 0.76740  0.93700  0.13970  Biso   1.000  H
  H6       1.0000 0.73260  0.43700  0.36030  Biso   1.000  H
  H7       1.0000 0.23260  0.06300  0.86030  Biso   1.000  H
  H8       1.0000 0.26740  0.56300  0.63970  Biso   1.000  H
  H9       1.0000 0.83540  0.92450  0.07780  Biso   1.000  H
  H10      1.0000 0.66460  0.42450  0.42220  Biso   1.000  H
  H11      1.0000 0.16460  0.07550  0.92220  Biso   1.000  H
  H12      1.0000 0.33540  0.57550  0.57780  Biso   1.000  H
  C29      1.0000 0.71700  0.82820  0.10140  Biso   1.000  C
  C30      1.0000 0.78300  0.32820  0.39860  Biso   1.000  C
  C31      1.0000 0.28300  0.17180  0.89860  Biso   1.000  C
  C32      1.0000 0.21700  0.67180  0.60140  Biso   1.000  C
  H13      1.0000 0.69260  0.80140  0.13860  Biso   1.000  H
  H14      1.0000 0.80740  0.30140  0.36140  Biso   1.000  H
  H15      1.0000 0.30740  0.19860  0.86140  Biso   1.000  H
  H16      1.0000 0.19260  0.69860  0.63860  Biso   1.000  H
  H17      1.0000 0.76520  0.78630  0.07780  Biso   1.000  H
  H18      1.0000 0.73480  0.28630  0.42220  Biso   1.000  H
  H19      1.0000 0.23480  0.21370  0.92220  Biso   1.000  H
  H20      1.0000 0.26520  0.71370  0.57780  Biso   1.000  H
  C33      1.0000 0.58450  0.85420  0.06880  Biso   1.000  C
  C34      1.0000 0.91550  0.35420  0.43120  Biso   1.000  C
  C35      1.0000 0.41550  0.14580  0.93120  Biso   1.000  C
  C36      1.0000 0.08450  0.64580  0.56880  Biso   1.000  C
  H21      1.0000 0.52130  0.80630  0.06360  Biso   1.000  H
  H22      1.0000 0.97870  0.30630  0.43640  Biso   1.000  H
  H23      1.0000 0.47870  0.19370  0.93640  Biso   1.000  H
  H24      1.0000 0.02130  0.69370  0.56360  Biso   1.000  H
  H25      1.0000 0.60680  0.87580  0.03020  Biso   1.000  H
  H26      1.0000 0.89320  0.37580  0.46980  Biso   1.000  H
  H27      1.0000 0.39320  0.12420  0.96980  Biso   1.000  H
  H28      1.0000 0.10680  0.62420  0.53020  Biso   1.000  H
  H29      1.0000 0.53800  0.89740  0.09090  Biso   1.000  H
  H30      1.0000 0.96200  0.39740  0.40910  Biso   1.000  H
  H31      1.0000 0.46200  0.10260  0.90910  Biso   1.000  H
  H32      1.0000 0.03800  0.60260  0.59090  Biso   1.000  H
  C37      1.0000 0.07050  0.93620  0.13760  Biso   1.000  C
  C38      1.0000 0.42950  0.43620  0.36240  Biso   1.000  C
  C39      1.0000 0.92950  0.06380  0.86240  Biso   1.000  C
  C40      1.0000 0.57050  0.56380  0.63760  Biso   1.000  C
  H33      1.0000 0.03200  0.99200  0.14530  Biso   1.000  H
  H34      1.0000 0.46800  0.49200  0.35470  Biso   1.000  H
  H35      1.0000 0.96800  0.00800  0.85470  Biso   1.000  H
  H36      1.0000 0.53200  0.50800  0.64530  Biso   1.000  H
  H37      1.0000 0.15110  0.92630  0.16620  Biso   1.000  H
  H38      1.0000 0.34890  0.42630  0.33380  Biso   1.000  H
  H39      1.0000 0.84890  0.07370  0.83380  Biso   1.000  H
  H40      1.0000 0.65110  0.57370  0.66620  Biso   1.000  H
  C41      1.0000 0.12260  0.93410  0.07640  Biso   1.000  C
  C42      1.0000 0.37740  0.43410  0.42360  Biso   1.000  C
  C43      1.0000 0.87740  0.06590  0.92360  Biso   1.000  C
  C44      1.0000 0.62260  0.56590  0.57640  Biso   1.000  C
  H41      1.0000 0.04110  0.93810  0.04750  Biso   1.000  H
  H42      1.0000 0.45890  0.43810  0.45250  Biso   1.000  H
  H43      1.0000 0.95890  0.06190  0.95250  Biso   1.000  H
  H44      1.0000 0.54110  0.56190  0.54750  Biso   1.000  H
  H45      1.0000 0.17100  0.88070  0.07000  Biso   1.000  H
  H46      1.0000 0.32900  0.38070  0.43000  Biso   1.000  H
  H47      1.0000 0.82900  0.11930  0.93000  Biso   1.000  H
  H48      1.0000 0.67100  0.61930  0.57000  Biso   1.000  H
  C45      1.0000 0.22470  0.00560  0.06670  Biso   1.000  C
  C46      1.0000 0.27530  0.50560  0.43330  Biso   1.000  C
  C47      1.0000 0.77530  0.99440  0.93330  Biso   1.000  C
  C48      1.0000 0.72470  0.49440  0.56670  Biso   1.000  C
  H49      1.0000 0.25260  0.00490  0.02600  Biso   1.000  H
  H50      1.0000 0.24740  0.50490  0.47400  Biso   1.000  H
  H51      1.0000 0.74740  0.99510  0.97400  Biso   1.000  H
  H52      1.0000 0.75260  0.49510  0.52600  Biso   1.000  H
  H53      1.0000 0.30870  0.99930  0.09330  Biso   1.000  H
  H54      1.0000 0.19130  0.49930  0.40670  Biso   1.000  H
  H55      1.0000 0.69130  0.00070  0.90670  Biso   1.000  H
  H56      1.0000 0.80870  0.50070  0.59330  Biso   1.000  H
  H57      1.0000 0.17810  0.05830  0.07470  Biso   1.000  H
  H58      1.0000 0.32190  0.55830  0.42530  Biso   1.000  H
  H59      1.0000 0.82190  0.94170  0.92530  Biso   1.000  H
  H60      1.0000 0.67810  0.44170  0.57470  Biso   1.000  H
  C49      1.0000 0.93950  0.85410  0.21120  Biso   1.000  C
  C50      1.0000 0.56050  0.35410  0.28880  Biso   1.000  C
  C51      1.0000 0.06050  0.14590  0.78880  Biso   1.000  C
  C52      1.0000 0.43950  0.64590  0.71120  Biso   1.000  C
  H61      1.0000 0.92030  0.90730  0.23100  Biso   1.000  H
  H62      1.0000 0.57970  0.40730  0.26900  Biso   1.000  H
  H63      1.0000 0.07970  0.09270  0.76900  Biso   1.000  H
  H64      1.0000 0.42030  0.59270  0.73100  Biso   1.000  H
  H65      1.0000 0.85540  0.81840  0.21460  Biso   1.000  H
  H66      1.0000 0.64460  0.31840  0.28540  Biso   1.000  H
  H67      1.0000 0.14460  0.18160  0.78540  Biso   1.000  H
  H68      1.0000 0.35540  0.68160  0.71460  Biso   1.000  H
  C53      1.0000 0.06260  0.81330  0.24330  Biso   1.000  C
  C54      1.0000 0.43740  0.31330  0.25670  Biso   1.000  C
  C55      1.0000 0.93740  0.18670  0.75670  Biso   1.000  C
  C56      1.0000 0.56260  0.68670  0.74330  Biso   1.000  C
  H69      1.0000 0.14780  0.84860  0.24130  Biso   1.000  H
  H70      1.0000 0.35220  0.34860  0.25870  Biso   1.000  H
  H71      1.0000 0.85220  0.15140  0.75870  Biso   1.000  H
  H72      1.0000 0.64780  0.65140  0.74130  Biso   1.000  H
  H73      1.0000 0.08220  0.75910  0.22500  Biso   1.000  H
  H74      1.0000 0.41780  0.25910  0.27500  Biso   1.000  H
  H75      1.0000 0.91780  0.24090  0.77500  Biso   1.000  H
  H76      1.0000 0.58220  0.74090  0.72500  Biso   1.000  H
  C57      1.0000 0.02600  0.80090  0.30750  Biso   1.000  C
  C58      1.0000 0.47400  0.30090  0.19250  Biso   1.000  C
  C59      1.0000 0.97400  0.19910  0.69250  Biso   1.000  C
  C60      1.0000 0.52600  0.69910  0.80750  Biso   1.000  C
  H77      1.0000 0.10030  0.76780  0.32790  Biso   1.000  H
  H78      1.0000 0.39970  0.26780  0.17210  Biso   1.000  H
  H79      1.0000 0.89970  0.23220  0.67210  Biso   1.000  H
  H80      1.0000 0.60030  0.73220  0.82790  Biso   1.000  H
  H81      1.0000 0.93550  0.77210  0.30880  Biso   1.000  H
  H82      1.0000 0.56450  0.27210  0.19120  Biso   1.000  H
  H83      1.0000 0.06450  0.22790  0.69120  Biso   1.000  H
  H84      1.0000 0.43550  0.72790  0.80880  Biso   1.000  H
  H85      1.0000 0.01980  0.85510  0.32670  Biso   1.000  H
  H86      1.0000 0.48020  0.35510  0.17330  Biso   1.000  H
  H87      1.0000 0.98020  0.14490  0.67330  Biso   1.000  H
  H88      1.0000 0.51980  0.64490  0.82670  Biso   1.000  H
  O49      1.0000 0.02560  0.71300  0.10323  Biso   1.000  O
  O50      1.0000 0.47440  0.21300  0.39677  Biso   1.000  O
  O51      1.0000 0.97440  0.28700  0.89677  Biso   1.000  O
  O52      1.0000 0.52560  0.78700  0.60323  Biso   1.000  O
  O53      1.0000 0.22670  0.74040  0.10870  Biso   1.000  O
  O54      1.0000 0.27330  0.24040  0.39130  Biso   1.000  O
  O55      1.0000 0.77330  0.25960  0.89130  Biso   1.000  O
  O56      1.0000 0.72670  0.75960  0.60870  Biso   1.000  O
  O57      1.0000 0.09800  0.58230  0.09100  Biso   1.000  O
  O58      1.0000 0.40200  0.08230  0.40900  Biso   1.000  O
  O59      1.0000 0.90200  0.41770  0.90900  Biso   1.000  O
  O60      1.0000 0.59800  0.91770  0.59100  Biso   1.000  O
  N5       1.0000 0.66100  0.81460  0.42350  Biso   1.000  N
  N6       1.0000 0.83900  0.31460  0.07650  Biso   1.000  N
  N7       1.0000 0.33900  0.18540  0.57650  Biso   1.000  N
  N8       1.0000 0.16100  0.68540  0.92350  Biso   1.000  N
  H89      1.0000 0.64870  0.81310  0.38280  Biso   1.000  H
  H90      1.0000 0.85130  0.31310  0.11720  Biso   1.000  H
  H91      1.0000 0.35130  0.18690  0.61720  Biso   1.000  H
  H92      1.0000 0.14870  0.68690  0.88280  Biso   1.000  H
  C61      1.0000 0.69420  0.90410  0.44160  Biso   1.000  C
  C62      1.0000 0.80580  0.40410  0.05840  Biso   1.000  C
  C63      1.0000 0.30580  0.09590  0.55840  Biso   1.000  C
  C64      1.0000 0.19420  0.59590  0.94160  Biso   1.000  C
  H93      1.0000 0.61020  0.93890  0.43190  Biso   1.000  H
  H94      1.0000 0.88980  0.43890  0.06810  Biso   1.000  H
  H95      1.0000 0.38980  0.06110  0.56810  Biso   1.000  H
  H96      1.0000 0.11020  0.56110  0.93190  Biso   1.000  H
  H97      1.0000 0.71350  0.90620  0.48460  Biso   1.000  H
  H98      1.0000 0.78650  0.40620  0.01540  Biso   1.000  H
  H99      1.0000 0.28650  0.09380  0.51540  Biso   1.000  H
  H100     1.0000 0.21350  0.59380  0.98460  Biso   1.000  H
  C65      1.0000 0.81860  0.93970  0.41200  Biso   1.000  C
  C66      1.0000 0.68140  0.43970  0.08800  Biso   1.000  C
  C67      1.0000 0.18140  0.06030  0.58800  Biso   1.000  C
  C68      1.0000 0.31860  0.56030  0.91200  Biso   1.000  C
  H101     1.0000 0.79980  0.93690  0.36890  Biso   1.000  H
  H102     1.0000 0.70020  0.43690  0.13110  Biso   1.000  H
  H103     1.0000 0.20020  0.06310  0.63110  Biso   1.000  H
  H104     1.0000 0.29980  0.56310  0.86890  Biso   1.000  H
  H105     1.0000 0.90290  0.90520  0.42200  Biso   1.000  H
  H106     1.0000 0.59710  0.40520  0.07800  Biso   1.000  H
  H107     1.0000 0.09710  0.09480  0.57800  Biso   1.000  H
  H108     1.0000 0.40290  0.59480  0.92200  Biso   1.000  H
  C69      1.0000 0.85100  0.02890  0.42920  Biso   1.000  C
  C70      1.0000 0.64900  0.52890  0.07080  Biso   1.000  C
  C71      1.0000 0.14900  0.97110  0.57080  Biso   1.000  C
  C72      1.0000 0.35100  0.47110  0.92920  Biso   1.000  C
  H109     1.0000 0.93410  0.04800  0.40930  Biso   1.000  H
  H110     1.0000 0.56590  0.54800  0.09070  Biso   1.000  H
  H111     1.0000 0.06590  0.95200  0.59070  Biso   1.000  H
  H112     1.0000 0.43410  0.45200  0.90930  Biso   1.000  H
  H113     1.0000 0.87000  0.03230  0.47180  Biso   1.000  H
  H114     1.0000 0.63000  0.53230  0.02820  Biso   1.000  H
  H115     1.0000 0.13000  0.96770  0.52820  Biso   1.000  H
  H116     1.0000 0.37000  0.46770  0.97180  Biso   1.000  H
  H117     1.0000 0.76980  0.06410  0.41770  Biso   1.000  H
  H118     1.0000 0.73020  0.56410  0.08230  Biso   1.000  H
  H119     1.0000 0.23020  0.93590  0.58230  Biso   1.000  H
  H120     1.0000 0.26980  0.43590  0.91770  Biso   1.000  H
  C73      1.0000 0.52530  0.78490  0.44860  Biso   1.000  C
  C74      1.0000 0.97470  0.28490  0.05140  Biso   1.000  C
  C75      1.0000 0.47470  0.21510  0.55140  Biso   1.000  C
  C76      1.0000 0.02530  0.71510  0.94860  Biso   1.000  C
  H121     1.0000 0.51540  0.72490  0.44040  Biso   1.000  H
  H122     1.0000 0.98460  0.22490  0.05960  Biso   1.000  H
  H123     1.0000 0.48460  0.27510  0.55960  Biso   1.000  H
  H124     1.0000 0.01540  0.77510  0.94040  Biso   1.000  H
  H125     1.0000 0.53450  0.79160  0.49180  Biso   1.000  H
  H126     1.0000 0.96550  0.29160  0.00820  Biso   1.000  H
  H127     1.0000 0.46550  0.20840  0.50820  Biso   1.000  H
  H128     1.0000 0.03450  0.70840  0.99180  Biso   1.000  H
  C77      1.0000 0.39240  0.82700  0.42670  Biso   1.000  C
  C78      1.0000 0.10760  0.32700  0.07330  Biso   1.000  C
  C79      1.0000 0.60760  0.17300  0.57330  Biso   1.000  C
  C80      1.0000 0.89240  0.67300  0.92670  Biso   1.000  C
  H129     1.0000 0.38620  0.82520  0.38330  Biso   1.000  H
  H130     1.0000 0.11380  0.32520  0.11670  Biso   1.000  H
  H131     1.0000 0.61380  0.17480  0.61670  Biso   1.000  H
  H132     1.0000 0.88620  0.67480  0.88330  Biso   1.000  H
  H133     1.0000 0.39620  0.88600  0.43880  Biso   1.000  H
  H134     1.0000 0.10380  0.38600  0.06120  Biso   1.000  H
  H135     1.0000 0.60380  0.11400  0.56120  Biso   1.000  H
  H136     1.0000 0.89620  0.61400  0.93880  Biso   1.000  H
  C81      1.0000 0.26100  0.78770  0.44950  Biso   1.000  C
  C82      1.0000 0.23900  0.28770  0.05050  Biso   1.000  C
  C83      1.0000 0.73900  0.21230  0.55050  Biso   1.000  C
  C84      1.0000 0.76100  0.71230  0.94950  Biso   1.000  C
  H137     1.0000 0.17820  0.82140  0.43770  Biso   1.000  H
  H138     1.0000 0.32180  0.32140  0.06230  Biso   1.000  H
  H139     1.0000 0.82180  0.17860  0.56230  Biso   1.000  H
  H140     1.0000 0.67820  0.67860  0.93770  Biso   1.000  H
  H141     1.0000 0.27030  0.78440  0.49250  Biso   1.000  H
  H142     1.0000 0.22970  0.28440  0.00750  Biso   1.000  H
  H143     1.0000 0.72970  0.21560  0.50750  Biso   1.000  H
  H144     1.0000 0.77030  0.71560  0.99250  Biso   1.000  H
  H145     1.0000 0.24930  0.73170  0.43320  Biso   1.000  H
  H146     1.0000 0.25070  0.23170  0.06680  Biso   1.000  H
  H147     1.0000 0.75070  0.26830  0.56680  Biso   1.000  H
  H148     1.0000 0.74930  0.76830  0.93320  Biso   1.000  H
  C85      1.0000 0.78560  0.75790  0.44150  Biso   1.000  C
  C86      1.0000 0.71440  0.25790  0.05850  Biso   1.000  C
  C87      1.0000 0.21440  0.24210  0.55850  Biso   1.000  C
  C88      1.0000 0.28560  0.74210  0.94150  Biso   1.000  C
  H149     1.0000 0.87330  0.78370  0.42830  Biso   1.000  H
  H150     1.0000 0.62670  0.28370  0.07170  Biso   1.000  H
  H151     1.0000 0.12670  0.21630  0.57170  Biso   1.000  H
  H152     1.0000 0.37330  0.71630  0.92830  Biso   1.000  H
  H153     1.0000 0.79390  0.75500  0.48490  Biso   1.000  H
  H154     1.0000 0.70610  0.25500  0.01510  Biso   1.000  H
  H155     1.0000 0.20610  0.24500  0.51510  Biso   1.000  H
  H156     1.0000 0.29390  0.74500  0.98490  Biso   1.000  H
  C89      1.0000 0.77690  0.67230  0.41820  Biso   1.000  C
  C90      1.0000 0.72310  0.17230  0.08180  Biso   1.000  C
  C91      1.0000 0.22310  0.32770  0.58180  Biso   1.000  C
  C92      1.0000 0.27690  0.82770  0.91820  Biso   1.000  C
  H157     1.0000 0.75870  0.67550  0.37510  Biso   1.000  H
  H158     1.0000 0.74130  0.17550  0.12490  Biso   1.000  H
  H159     1.0000 0.24130  0.32450  0.62490  Biso   1.000  H
  H160     1.0000 0.25870  0.82450  0.87510  Biso   1.000  H
  H161     1.0000 0.69430  0.64480  0.43460  Biso   1.000  H
  H162     1.0000 0.80570  0.14480  0.06540  Biso   1.000  H
  H163     1.0000 0.30570  0.35520  0.56540  Biso   1.000  H
  H164     1.0000 0.19430  0.85520  0.93460  Biso   1.000  H
  C93      1.0000 0.90350  0.61840  0.43050  Biso   1.000  C
  C94      1.0000 0.59650  0.11840  0.06950  Biso   1.000  C
  C95      1.0000 0.09650  0.38160  0.56950  Biso   1.000  C
  C96      1.0000 0.40350  0.88160  0.93050  Biso   1.000  C
  H165     1.0000 0.88370  0.56240  0.41550  Biso   1.000  H
  H166     1.0000 0.61630  0.06240  0.08450  Biso   1.000  H
  H167     1.0000 0.11630  0.43760  0.58450  Biso   1.000  H
  H168     1.0000 0.38370  0.93760  0.91550  Biso   1.000  H
  H169     1.0000 0.92520  0.61590  0.47300  Biso   1.000  H
  H170     1.0000 0.57480  0.11590  0.02700  Biso   1.000  H
  H171     1.0000 0.07480  0.38410  0.52700  Biso   1.000  H
  H172     1.0000 0.42520  0.88410  0.97300  Biso   1.000  H
  H173     1.0000 0.98450  0.64160  0.41110  Biso   1.000  H
  H174     1.0000 0.51550  0.14160  0.08890  Biso   1.000  H
  H175     1.0000 0.01550  0.35840  0.58890  Biso   1.000  H
  H176     1.0000 0.48450  0.85840  0.91110  Biso   1.000  H
  N9       1.0000 0.02480  0.86190  0.14720  Biso   1.000  N
  N10      1.0000 0.47520  0.36190  0.35280  Biso   1.000  N
  N11      1.0000 0.97520  0.13810  0.85280  Biso   1.000  N
  N12      1.0000 0.52480  0.63810  0.64720  Biso   1.000  N
  H177     1.0000 0.10210  0.82880  0.13990  Biso   1.000  H
  H178     1.0000 0.39790  0.32880  0.36010  Biso   1.000  H
  H179     1.0000 0.89790  0.17120  0.86010  Biso   1.000  H
  H180     1.0000 0.60210  0.67120  0.63990  Biso   1.000  H
  C97      1.0000 0.89720  0.82510  0.11530  Biso   1.000  C
  C98      1.0000 0.60280  0.32510  0.38470  Biso   1.000  C
  C99      1.0000 0.10280  0.17490  0.88470  Biso   1.000  C
  C100     1.0000 0.39720  0.67490  0.61530  Biso   1.000  C
  H181     1.0000 0.88930  0.76630  0.12710  Biso   1.000  H
  H182     1.0000 0.61070  0.26630  0.37290  Biso   1.000  H
  H183     1.0000 0.11070  0.23370  0.87290  Biso   1.000  H
  H184     1.0000 0.38930  0.73370  0.62710  Biso   1.000  H
  H185     1.0000 0.91170  0.82640  0.07270  Biso   1.000  H
  H186     1.0000 0.58830  0.32640  0.42730  Biso   1.000  H
  H187     1.0000 0.08830  0.17360  0.92730  Biso   1.000  H
  H188     1.0000 0.41170  0.67360  0.57270  Biso   1.000  H
  C101     1.0000 0.76050  0.86810  0.12620  Biso   1.000  C
  C102     1.0000 0.73950  0.36810  0.37380  Biso   1.000  C
  C103     1.0000 0.23950  0.13190  0.87380  Biso   1.000  C
  C104     1.0000 0.26050  0.63190  0.62620  Biso   1.000  C
  H189     1.0000 0.77170  0.92870  0.12130  Biso   1.000  H
  H190     1.0000 0.72830  0.42870  0.37870  Biso   1.000  H
  H191     1.0000 0.22830  0.07130  0.87870  Biso   1.000  H
  H192     1.0000 0.27170  0.57130  0.62130  Biso   1.000  H
  H193     1.0000 0.73410  0.85730  0.16690  Biso   1.000  H
  H194     1.0000 0.76590  0.35730  0.33310  Biso   1.000  H
  H195     1.0000 0.26590  0.14270  0.83310  Biso   1.000  H
  H196     1.0000 0.23410  0.64270  0.66690  Biso   1.000  H
  C105     1.0000 0.64270  0.83560  0.08220  Biso   1.000  C
  C106     1.0000 0.85730  0.33560  0.41780  Biso   1.000  C
  C107     1.0000 0.35730  0.16440  0.91780  Biso   1.000  C
  C108     1.0000 0.14270  0.66440  0.58220  Biso   1.000  C
  H197     1.0000 0.55630  0.86800  0.08640  Biso   1.000  H
  H198     1.0000 0.94370  0.36800  0.41360  Biso   1.000  H
  H199     1.0000 0.44370  0.13200  0.91360  Biso   1.000  H
  H200     1.0000 0.05630  0.63200  0.58640  Biso   1.000  H
  H201     1.0000 0.62390  0.77710  0.09050  Biso   1.000  H
  H202     1.0000 0.87610  0.27710  0.40950  Biso   1.000  H
  H203     1.0000 0.37610  0.22290  0.90950  Biso   1.000  H
  H204     1.0000 0.12390  0.72290  0.59050  Biso   1.000  H
  H205     1.0000 0.67350  0.84120  0.04210  Biso   1.000  H
  H206     1.0000 0.82650  0.34120  0.45790  Biso   1.000  H
  H207     1.0000 0.32650  0.15880  0.95790  Biso   1.000  H
  H208     1.0000 0.17350  0.65880  0.54210  Biso   1.000  H
  C109     1.0000 0.05300  0.94940  0.12290  Biso   1.000  C
  C110     1.0000 0.44700  0.44940  0.37710  Biso   1.000  C
  C111     1.0000 0.94700  0.05060  0.87710  Biso   1.000  C
  C112     1.0000 0.55300  0.55060  0.62290  Biso   1.000  C
  H209     1.0000 0.96150  0.97410  0.10870  Biso   1.000  H
  H210     1.0000 0.53850  0.47410  0.39130  Biso   1.000  H
  H211     1.0000 0.03850  0.02590  0.89130  Biso   1.000  H
  H212     1.0000 0.46150  0.52590  0.60870  Biso   1.000  H
  H213     1.0000 0.09250  0.98460  0.15530  Biso   1.000  H
  H214     1.0000 0.40750  0.48460  0.34470  Biso   1.000  H
  H215     1.0000 0.90750  0.01540  0.84470  Biso   1.000  H
  H216     1.0000 0.59250  0.51540  0.65530  Biso   1.000  H
  C113     1.0000 0.15000  0.95070  0.07460  Biso   1.000  C
  C114     1.0000 0.35000  0.45070  0.42540  Biso   1.000  C
  C115     1.0000 0.85000  0.04930  0.92540  Biso   1.000  C
  C116     1.0000 0.65000  0.54930  0.57460  Biso   1.000  C
  H217     1.0000 0.10550  0.92170  0.04020  Biso   1.000  H
  H218     1.0000 0.39450  0.42170  0.45980  Biso   1.000  H
  H219     1.0000 0.89450  0.07830  0.95980  Biso   1.000  H
  H220     1.0000 0.60550  0.57830  0.54020  Biso   1.000  H
  H221     1.0000 0.23760  0.92040  0.08700  Biso   1.000  H
  H222     1.0000 0.26240  0.42040  0.41300  Biso   1.000  H
  H223     1.0000 0.76240  0.07960  0.91300  Biso   1.000  H
  H224     1.0000 0.73760  0.57960  0.58700  Biso   1.000  H
  C117     1.0000 0.18800  0.03790  0.05720  Biso   1.000  C
  C118     1.0000 0.31200  0.53790  0.44280  Biso   1.000  C
  C119     1.0000 0.81200  0.96210  0.94280  Biso   1.000  C
  C120     1.0000 0.68800  0.46210  0.55720  Biso   1.000  C
  H225     1.0000 0.23490  0.03650  0.01990  Biso   1.000  H
  H226     1.0000 0.26510  0.53650  0.48010  Biso   1.000  H
  H227     1.0000 0.76510  0.96350  0.98010  Biso   1.000  H
  H228     1.0000 0.73490  0.46350  0.51990  Biso   1.000  H
  H229     1.0000 0.25150  0.06240  0.08770  Biso   1.000  H
  H230     1.0000 0.24850  0.56240  0.41230  Biso   1.000  H
  H231     1.0000 0.74850  0.93760  0.91230  Biso   1.000  H
  H232     1.0000 0.75150  0.43760  0.58770  Biso   1.000  H
  H233     1.0000 0.10160  0.07130  0.05250  Biso   1.000  H
  H234     1.0000 0.39840  0.57130  0.44750  Biso   1.000  H
  H235     1.0000 0.89840  0.92870  0.94750  Biso   1.000  H
  H236     1.0000 0.60160  0.42870  0.55250  Biso   1.000  H
  C121     1.0000 0.01860  0.87120  0.21360  Biso   1.000  C
  C122     1.0000 0.48140  0.37120  0.28640  Biso   1.000  C
  C123     1.0000 0.98140  0.12880  0.78640  Biso   1.000  C
  C124     1.0000 0.51860  0.62880  0.71360  Biso   1.000  C
  H237     1.0000 0.09610  0.90810  0.22830  Biso   1.000  H
  H238     1.0000 0.40390  0.40810  0.27170  Biso   1.000  H
  H239     1.0000 0.90390  0.09190  0.77170  Biso   1.000  H
  H240     1.0000 0.59610  0.59190  0.72830  Biso   1.000  H
  H241     1.0000 0.92800  0.89770  0.22260  Biso   1.000  H
  H242     1.0000 0.57200  0.39770  0.27740  Biso   1.000  H
  H243     1.0000 0.07200  0.10230  0.77740  Biso   1.000  H
  H244     1.0000 0.42800  0.60230  0.72260  Biso   1.000  H
  C125     1.0000 0.03100  0.79060  0.24470  Biso   1.000  C
  C126     1.0000 0.46900  0.29060  0.25530  Biso   1.000  C
  C127     1.0000 0.96900  0.20940  0.75530  Biso   1.000  C
  C128     1.0000 0.53100  0.70940  0.74470  Biso   1.000  C
  H245     1.0000 0.93920  0.76150  0.23980  Biso   1.000  H
  H246     1.0000 0.56080  0.26150  0.26020  Biso   1.000  H
  H247     1.0000 0.06080  0.23850  0.76020  Biso   1.000  H
  H248     1.0000 0.43920  0.73850  0.73980  Biso   1.000  H
  H249     1.0000 0.10200  0.75640  0.22540  Biso   1.000  H
  H250     1.0000 0.39800  0.25640  0.27460  Biso   1.000  H
  H251     1.0000 0.89800  0.24360  0.77460  Biso   1.000  H
  H252     1.0000 0.60200  0.74360  0.72540  Biso   1.000  H
  C129     1.0000 0.07200  0.79500  0.30820  Biso   1.000  C
  C130     1.0000 0.42800  0.29500  0.19180  Biso   1.000  C
  C131     1.0000 0.92800  0.20500  0.69180  Biso   1.000  C
  C132     1.0000 0.57200  0.70500  0.80820  Biso   1.000  C
  H253     1.0000 0.16630  0.77120  0.31540  Biso   1.000  H
  H254     1.0000 0.33370  0.27120  0.18460  Biso   1.000  H
  H255     1.0000 0.83370  0.22880  0.68460  Biso   1.000  H
  H256     1.0000 0.66630  0.72880  0.81540  Biso   1.000  H
  H257     1.0000 0.00370  0.76320  0.33020  Biso   1.000  H
  H258     1.0000 0.49630  0.26320  0.16980  Biso   1.000  H
  H259     1.0000 0.99630  0.23680  0.66980  Biso   1.000  H
  H260     1.0000 0.50370  0.73680  0.83020  Biso   1.000  H
  H261     1.0000 0.07180  0.85280  0.32100  Biso   1.000  H
  H262     1.0000 0.42820  0.35280  0.17900  Biso   1.000  H
  H263     1.0000 0.92820  0.14720  0.67900  Biso   1.000  H
  H264     1.0000 0.57180  0.64720  0.82100  Biso   1.000  H
  N13      1.0000 0.66820  0.82160  0.42470  Biso   1.000  N
  N14      1.0000 0.83180  0.32160  0.07530  Biso   1.000  N
  N15      1.0000 0.33180  0.17840  0.57530  Biso   1.000  N
  N16      1.0000 0.16820  0.67840  0.92470  Biso   1.000  N
  H265     1.0000 0.65870  0.81960  0.38390  Biso   1.000  H
  H266     1.0000 0.84130  0.31960  0.11610  Biso   1.000  H
  H267     1.0000 0.34130  0.18040  0.61610  Biso   1.000  H
  H268     1.0000 0.15870  0.68040  0.88390  Biso   1.000  H
  C133     1.0000 0.78830  0.88170  0.44090  Biso   1.000  C
  C134     1.0000 0.71170  0.38170  0.05910  Biso   1.000  C
  C135     1.0000 0.21170  0.11830  0.55910  Biso   1.000  C
  C136     1.0000 0.28830  0.61830  0.94090  Biso   1.000  C
  H269     1.0000 0.80650  0.87980  0.48410  Biso   1.000  H
  H270     1.0000 0.69350  0.37980  0.01590  Biso   1.000  H
  H271     1.0000 0.19350  0.12020  0.51590  Biso   1.000  H
  H272     1.0000 0.30650  0.62020  0.98410  Biso   1.000  H
  H273     1.0000 0.87460  0.86130  0.42300  Biso   1.000  H
  H274     1.0000 0.62540  0.36130  0.07700  Biso   1.000  H
  H275     1.0000 0.12540  0.13870  0.57700  Biso   1.000  H
  H276     1.0000 0.37460  0.63870  0.92300  Biso   1.000  H
  C137     1.0000 0.76700  0.96810  0.42370  Biso   1.000  C
  C138     1.0000 0.73300  0.46810  0.07630  Biso   1.000  C
  C139     1.0000 0.23300  0.03190  0.57630  Biso   1.000  C
  C140     1.0000 0.26700  0.53190  0.92370  Biso   1.000  C
  H277     1.0000 0.67360  0.98600  0.43660  Biso   1.000  H
  H278     1.0000 0.82640  0.48600  0.06340  Biso   1.000  H
  H279     1.0000 0.32640  0.01400  0.56340  Biso   1.000  H
  H280     1.0000 0.17360  0.51400  0.93660  Biso   1.000  H
  H281     1.0000 0.76340  0.97100  0.38030  Biso   1.000  H
  H282     1.0000 0.73660  0.47100  0.11970  Biso   1.000  H
  H283     1.0000 0.23660  0.02900  0.61970  Biso   1.000  H
  H284     1.0000 0.26340  0.52900  0.88030  Biso   1.000  H
  C141     1.0000 0.87600  0.02910  0.44700  Biso   1.000  C
  C142     1.0000 0.62400  0.52910  0.05300  Biso   1.000  C
  C143     1.0000 0.12400  0.97090  0.55300  Biso   1.000  C
  C144     1.0000 0.37600  0.47090  0.94700  Biso   1.000  C
  C145     1.0000 0.52750  0.85050  0.44630  Biso   1.000  C
  C146     1.0000 0.97250  0.35050  0.05370  Biso   1.000  C
  C147     1.0000 0.47250  0.14950  0.55370  Biso   1.000  C
  C148     1.0000 0.02750  0.64950  0.94630  Biso   1.000  C
  H285     1.0000 0.53580  0.85450  0.48970  Biso   1.000  H
  H286     1.0000 0.96420  0.35450  0.01030  Biso   1.000  H
  H287     1.0000 0.46420  0.14550  0.51030  Biso   1.000  H
  H288     1.0000 0.03580  0.64550  0.98970  Biso   1.000  H
  H289     1.0000 0.50750  0.90690  0.43080  Biso   1.000  H
  H290     1.0000 0.99250  0.40690  0.06920  Biso   1.000  H
  H291     1.0000 0.49250  0.09310  0.56920  Biso   1.000  H
  H292     1.0000 0.00750  0.59310  0.93080  Biso   1.000  H
  C149     1.0000 0.40380  0.79470  0.42900  Biso   1.000  C
  C150     1.0000 0.09620  0.29470  0.07100  Biso   1.000  C
  C151     1.0000 0.59620  0.20530  0.57100  Biso   1.000  C
  C152     1.0000 0.90380  0.70530  0.92900  Biso   1.000  C
  H293     1.0000 0.39490  0.78980  0.38550  Biso   1.000  H
  H294     1.0000 0.10510  0.28980  0.11450  Biso   1.000  H
  H295     1.0000 0.60510  0.21020  0.61450  Biso   1.000  H
  H296     1.0000 0.89490  0.71020  0.88550  Biso   1.000  H
  H297     1.0000 0.42100  0.73860  0.44540  Biso   1.000  H
  H298     1.0000 0.07900  0.23860  0.05460  Biso   1.000  H
  H299     1.0000 0.57900  0.26140  0.55460  Biso   1.000  H
  H300     1.0000 0.92100  0.76140  0.94540  Biso   1.000  H
  C153     1.0000 0.26790  0.82900  0.45100  Biso   1.000  C
  C154     1.0000 0.23210  0.32900  0.04900  Biso   1.000  C
  C155     1.0000 0.73210  0.17100  0.54900  Biso   1.000  C
  C156     1.0000 0.76790  0.67100  0.95100  Biso   1.000  C
  C157     1.0000 0.70440  0.73390  0.44600  Biso   1.000  C
  C158     1.0000 0.79560  0.23390  0.05400  Biso   1.000  C
  C159     1.0000 0.29560  0.26610  0.55400  Biso   1.000  C
  C160     1.0000 0.20440  0.76610  0.94600  Biso   1.000  C
  H301     1.0000 0.71620  0.73460  0.48940  Biso   1.000  H
  H302     1.0000 0.78380  0.23460  0.01060  Biso   1.000  H
  H303     1.0000 0.28380  0.26540  0.51060  Biso   1.000  H
  H304     1.0000 0.21620  0.76540  0.98940  Biso   1.000  H
  H305     1.0000 0.62390  0.69690  0.43500  Biso   1.000  H
  H306     1.0000 0.87610  0.19690  0.06500  Biso   1.000  H
  H307     1.0000 0.37610  0.30310  0.56500  Biso   1.000  H
  H308     1.0000 0.12390  0.80310  0.93500  Biso   1.000  H
  C161     1.0000 0.83470  0.69850  0.42200  Biso   1.000  C
  C162     1.0000 0.66530  0.19850  0.07800  Biso   1.000  C
  C163     1.0000 0.16530  0.30150  0.57800  Biso   1.000  C
  C164     1.0000 0.33470  0.80150  0.92200  Biso   1.000  C
  H309     1.0000 0.91820  0.72560  0.44170  Biso   1.000  H
  H310     1.0000 0.58180  0.22560  0.05830  Biso   1.000  H
  H311     1.0000 0.08180  0.27440  0.55830  Biso   1.000  H
  H312     1.0000 0.41820  0.77440  0.94170  Biso   1.000  H
  H313     1.0000 0.83510  0.71170  0.37960  Biso   1.000  H
  H314     1.0000 0.66490  0.21170  0.12040  Biso   1.000  H
  H315     1.0000 0.16490  0.28830  0.62040  Biso   1.000  H
  H316     1.0000 0.33510  0.78830  0.87960  Biso   1.000  H
  C165     1.0000 0.84800  0.60640  0.43000  Biso   1.000  C
  C166     1.0000 0.65200  0.10640  0.07000  Biso   1.000  C
  C167     1.0000 0.15200  0.39360  0.57000  Biso   1.000  C
  C168     1.0000 0.34800  0.89360  0.93000  Biso   1.000  C
  N17      1.0000 0.63900  0.82800  0.41560  Biso   1.000  N
  N18      1.0000 0.86100  0.32800  0.08440  Biso   1.000  N
  N19      1.0000 0.36100  0.17200  0.58440  Biso   1.000  N
  N20      1.0000 0.13900  0.67200  0.91560  Biso   1.000  N
  H317     1.0000 0.66710  0.82560  0.37720  Biso   1.000  H
  H318     1.0000 0.83290  0.32560  0.12280  Biso   1.000  H
  H319     1.0000 0.33290  0.17440  0.62280  Biso   1.000  H
  H320     1.0000 0.16710  0.67440  0.87720  Biso   1.000  H
  C169     1.0000 0.66600  0.91700  0.43400  Biso   1.000  C
  C170     1.0000 0.83400  0.41700  0.06600  Biso   1.000  C
  C171     1.0000 0.33400  0.08300  0.56600  Biso   1.000  C
  C172     1.0000 0.16600  0.58300  0.93400  Biso   1.000  C
  H321     1.0000 0.58290  0.95080  0.42170  Biso   1.000  H
  H322     1.0000 0.91710  0.45080  0.07830  Biso   1.000  H
  H323     1.0000 0.41710  0.04920  0.57830  Biso   1.000  H
  H324     1.0000 0.08290  0.54920  0.92170  Biso   1.000  H
  H325     1.0000 0.67540  0.91890  0.47780  Biso   1.000  H
  H326     1.0000 0.82460  0.41890  0.02220  Biso   1.000  H
  H327     1.0000 0.32460  0.08110  0.52220  Biso   1.000  H
  H328     1.0000 0.17540  0.58110  0.97780  Biso   1.000  H
  C173     1.0000 0.79600  0.95500  0.41030  Biso   1.000  C
  C174     1.0000 0.70400  0.45500  0.08970  Biso   1.000  C
  C175     1.0000 0.20400  0.04500  0.58970  Biso   1.000  C
  C176     1.0000 0.29600  0.54500  0.91030  Biso   1.000  C
  H329     1.0000 0.78590  0.95400  0.36690  Biso   1.000  H
  H330     1.0000 0.71410  0.45400  0.13310  Biso   1.000  H
  H331     1.0000 0.21410  0.04600  0.63310  Biso   1.000  H
  H332     1.0000 0.28590  0.54600  0.86690  Biso   1.000  H
  H333     1.0000 0.87900  0.92070  0.42260  Biso   1.000  H
  H334     1.0000 0.62100  0.42070  0.07740  Biso   1.000  H
  H335     1.0000 0.12100  0.07930  0.57740  Biso   1.000  H
  H336     1.0000 0.37900  0.57930  0.92260  Biso   1.000  H
  C177     1.0000 0.82100  0.04300  0.43100  Biso   1.000  C
  C178     1.0000 0.67900  0.54300  0.06900  Biso   1.000  C
  C179     1.0000 0.17900  0.95700  0.56900  Biso   1.000  C
  C180     1.0000 0.32100  0.45700  0.93100  Biso   1.000  C
  H337     1.0000 0.91300  0.06170  0.41870  Biso   1.000  H
  H338     1.0000 0.58700  0.56170  0.08130  Biso   1.000  H
  H339     1.0000 0.08700  0.93830  0.58130  Biso   1.000  H
  H340     1.0000 0.41300  0.43830  0.91870  Biso   1.000  H
  H341     1.0000 0.81850  0.04520  0.47360  Biso   1.000  H
  H342     1.0000 0.68150  0.54520  0.02640  Biso   1.000  H
  H343     1.0000 0.18150  0.95480  0.52640  Biso   1.000  H
  H344     1.0000 0.31850  0.45480  0.97360  Biso   1.000  H
  H345     1.0000 0.74640  0.07880  0.41310  Biso   1.000  H
  H346     1.0000 0.75360  0.57880  0.08690  Biso   1.000  H
  H347     1.0000 0.25360  0.92120  0.58690  Biso   1.000  H
  H348     1.0000 0.24640  0.42120  0.91310  Biso   1.000  H
  C181     1.0000 0.48400  0.80500  0.41120  Biso   1.000  C
  C182     1.0000 0.01600  0.30500  0.08880  Biso   1.000  C
  C183     1.0000 0.51600  0.19500  0.58880  Biso   1.000  C
  C184     1.0000 0.98400  0.69500  0.91120  Biso   1.000  C
  H349     1.0000 0.44200  0.82800  0.37390  Biso   1.000  H
  H350     1.0000 0.05800  0.32800  0.12610  Biso   1.000  H
  H351     1.0000 0.55800  0.17200  0.62610  Biso   1.000  H
  H352     1.0000 0.94200  0.67200  0.87390  Biso   1.000  H
  H353     1.0000 0.47620  0.74420  0.40900  Biso   1.000  H
  H354     1.0000 0.02380  0.24420  0.09100  Biso   1.000  H
  H355     1.0000 0.52380  0.25580  0.59100  Biso   1.000  H
  H356     1.0000 0.97620  0.75580  0.90900  Biso   1.000  H
  C185     1.0000 0.39800  0.83500  0.46000  Biso   1.000  C
  C186     1.0000 0.10200  0.33500  0.04000  Biso   1.000  C
  C187     1.0000 0.60200  0.16500  0.54000  Biso   1.000  C
  C188     1.0000 0.89800  0.66500  0.96000  Biso   1.000  C
  H357     1.0000 0.42420  0.89350  0.46920  Biso   1.000  H
  H358     1.0000 0.07580  0.39350  0.03080  Biso   1.000  H
  H359     1.0000 0.57580  0.10650  0.53080  Biso   1.000  H
  H360     1.0000 0.92420  0.60650  0.96920  Biso   1.000  H
  H361     1.0000 0.42270  0.80160  0.49560  Biso   1.000  H
  H362     1.0000 0.07730  0.30160  0.00440  Biso   1.000  H
  H363     1.0000 0.57730  0.19840  0.50440  Biso   1.000  H
  H364     1.0000 0.92270  0.69840  0.99560  Biso   1.000  H
  C189     1.0000 0.24200  0.83000  0.44700  Biso   1.000  C
  C190     1.0000 0.25800  0.33000  0.05300  Biso   1.000  C
  C191     1.0000 0.75800  0.17000  0.55300  Biso   1.000  C
  C192     1.0000 0.74200  0.67000  0.94700  Biso   1.000  C
  H365     1.0000 0.19360  0.82350  0.48310  Biso   1.000  H
  H366     1.0000 0.30640  0.32350  0.01690  Biso   1.000  H
  H367     1.0000 0.80640  0.17650  0.51690  Biso   1.000  H
  H368     1.0000 0.69360  0.67650  0.98310  Biso   1.000  H
  H369     1.0000 0.22100  0.78270  0.42080  Biso   1.000  H
  H370     1.0000 0.27900  0.28270  0.07920  Biso   1.000  H
  H371     1.0000 0.77900  0.21730  0.57920  Biso   1.000  H
  H372     1.0000 0.72100  0.71730  0.92080  Biso   1.000  H
  H373     1.0000 0.20960  0.88130  0.42690  Biso   1.000  H
  H374     1.0000 0.29040  0.38130  0.07310  Biso   1.000  H
  H375     1.0000 0.79040  0.11870  0.57310  Biso   1.000  H
  H376     1.0000 0.70960  0.61870  0.92690  Biso   1.000  H
  C193     1.0000 0.73200  0.76600  0.44900  Biso   1.000  C
  C194     1.0000 0.76800  0.26600  0.05100  Biso   1.000  C
  C195     1.0000 0.26800  0.23400  0.55100  Biso   1.000  C
  C196     1.0000 0.23200  0.73400  0.94900  Biso   1.000  C
  H377     1.0000 0.83150  0.78420  0.44710  Biso   1.000  H
  H378     1.0000 0.66850  0.28420  0.05290  Biso   1.000  H
  H379     1.0000 0.16850  0.21580  0.55290  Biso   1.000  H
  H380     1.0000 0.33150  0.71580  0.94710  Biso   1.000  H
  H381     1.0000 0.70820  0.76670  0.49050  Biso   1.000  H
  H382     1.0000 0.79180  0.26670  0.00950  Biso   1.000  H
  H383     1.0000 0.29180  0.23330  0.50950  Biso   1.000  H
  H384     1.0000 0.20820  0.73330  0.99050  Biso   1.000  H
  C197     1.0000 0.72100  0.67900  0.42700  Biso   1.000  C
  C198     1.0000 0.77900  0.17900  0.07300  Biso   1.000  C
  C199     1.0000 0.27900  0.32100  0.57300  Biso   1.000  C
  C200     1.0000 0.22100  0.82100  0.92700  Biso   1.000  C
  H385     1.0000 0.72010  0.67950  0.38380  Biso   1.000  H
  H386     1.0000 0.77990  0.17950  0.11620  Biso   1.000  H
  H387     1.0000 0.27990  0.32050  0.61620  Biso   1.000  H
  H388     1.0000 0.22010  0.82050  0.88380  Biso   1.000  H
  H389     1.0000 0.63030  0.65540  0.43860  Biso   1.000  H
  H390     1.0000 0.86970  0.15540  0.06140  Biso   1.000  H
  H391     1.0000 0.36970  0.34460  0.56140  Biso   1.000  H
  H392     1.0000 0.13030  0.84460  0.93860  Biso   1.000  H
  C201     1.0000 0.83800  0.62300  0.45000  Biso   1.000  C
  C202     1.0000 0.66200  0.12300  0.05000  Biso   1.000  C
  C203     1.0000 0.16200  0.37700  0.55000  Biso   1.000  C
  C204     1.0000 0.33800  0.87700  0.95000  Biso   1.000  C
  H393     1.0000 0.81760  0.56570  0.43670  Biso   1.000  H
  H394     1.0000 0.68240  0.06570  0.06330  Biso   1.000  H
  H395     1.0000 0.18240  0.43430  0.56330  Biso   1.000  H
  H396     1.0000 0.31760  0.93430  0.93670  Biso   1.000  H
  H397     1.0000 0.84540  0.62460  0.49260  Biso   1.000  H
  H398     1.0000 0.65460  0.12460  0.00740  Biso   1.000  H
  H399     1.0000 0.15460  0.37540  0.50740  Biso   1.000  H
  H400     1.0000 0.34540  0.87540  0.99260  Biso   1.000  H
  H401     1.0000 0.92760  0.64080  0.43420  Biso   1.000  H
  H402     1.0000 0.57240  0.14080  0.06580  Biso   1.000  H
  H403     1.0000 0.07240  0.35920  0.56580  Biso   1.000  H
  H404     1.0000 0.42760  0.85920  0.93420  Biso   1.000  H
  O61      1.0000 0.31770  0.68610  0.09593  Biso   1.000  O
  O62      1.0000 0.18230  0.18610  0.40407  Biso   1.000  O
  O63      1.0000 0.68230  0.31390  0.90407  Biso   1.000  O
  O64      1.0000 0.81770  0.81390  0.59593  Biso   1.000  O
  O65      1.0000 0.20100  0.51860  0.08420  Biso   1.000  O
  O66      1.0000 0.29900  0.01860  0.41580  Biso   1.000  O
  O67      1.0000 0.79900  0.48140  0.91580  Biso   1.000  O
  O68      1.0000 0.70100  0.98140  0.58420  Biso   1.000  O
