data_image0
_cell_length_a       9.3957
_cell_length_b       15.8261
_cell_length_c       22.2735
_cell_angle_alpha    90
_cell_angle_beta     93.3334
_cell_angle_gamma    90

_symmetry_space_group_name_H-M    "P 1"
_symmetry_int_tables_number       1

loop_
  _symmetry_equiv_pos_as_xyz
  'x, y, z'

loop_
  _atom_site_label
  _atom_site_occupancy
  _atom_site_fract_x
  _atom_site_fract_y
  _atom_site_fract_z
  _atom_site_thermal_displace_type
  _atom_site_B_iso_or_equiv
  _atom_site_type_symbol
  Cu1      1.0000 0.55454  0.66232  0.24459  Biso   1.000  Cu
  Cu2      1.0000 0.94546  0.16232  0.25541  Biso   1.000  Cu
  Cu3      1.0000 0.44546  0.33768  0.75541  Biso   1.000  Cu
  Cu4      1.0000 0.05454  0.83768  0.74459  Biso   1.000  Cu
  Cu5      1.0000 0.05730  0.50378  0.24937  Biso   1.000  Cu
  Cu6      1.0000 0.44270  0.00378  0.25063  Biso   1.000  Cu
  Cu7      1.0000 0.94270  0.49622  0.75063  Biso   1.000  Cu
  Cu8      1.0000 0.55730  0.99622  0.74937  Biso   1.000  Cu
  O1       1.0000 0.43140  0.55963  0.19104  Biso   1.000  O
  O2       1.0000 0.06860  0.05963  0.30896  Biso   1.000  O
  O3       1.0000 0.56860  0.44037  0.80896  Biso   1.000  O
  O4       1.0000 0.93140  0.94037  0.69104  Biso   1.000  O
  O5       1.0000 0.38680  0.64790  0.29416  Biso   1.000  O
  O6       1.0000 0.11320  0.14790  0.20584  Biso   1.000  O
  O7       1.0000 0.61320  0.35210  0.70584  Biso   1.000  O
  O8       1.0000 0.88680  0.85210  0.79416  Biso   1.000  O
  O9       1.0000 0.22180  0.49664  0.19900  Biso   1.000  O
  O10      1.0000 0.27820  0.99664  0.30100  Biso   1.000  O
  O11      1.0000 0.77820  0.50336  0.80100  Biso   1.000  O
  O12      1.0000 0.72180  0.00336  0.69900  Biso   1.000  O
  O13      1.0000 0.17370  0.58707  0.29565  Biso   1.000  O
  O14      1.0000 0.32630  0.08707  0.20435  Biso   1.000  O
  O15      1.0000 0.82630  0.41293  0.70435  Biso   1.000  O
  O16      1.0000 0.67370  0.91293  0.79565  Biso   1.000  O
  O17      1.0000 0.45470  0.75156  0.19657  Biso   1.000  O
  O18      1.0000 0.04530  0.25156  0.30343  Biso   1.000  O
  O19      1.0000 0.54530  0.24844  0.80343  Biso   1.000  O
  O20      1.0000 0.95470  0.74844  0.69657  Biso   1.000  O
  O21      1.0000 0.61580  0.78192  0.29990  Biso   1.000  O
  O22      1.0000 0.88420  0.28192  0.20010  Biso   1.000  O
  O23      1.0000 0.38420  0.21808  0.70010  Biso   1.000  O
  O24      1.0000 0.11580  0.71808  0.79990  Biso   1.000  O
  O25      1.0000 0.39060  0.88687  0.19348  Biso   1.000  O
  O26      1.0000 0.10940  0.38687  0.30652  Biso   1.000  O
  O27      1.0000 0.60940  0.11313  0.80652  Biso   1.000  O
  O28      1.0000 0.89060  0.61313  0.69348  Biso   1.000  O
  O29      1.0000 0.54520  0.91525  0.29845  Biso   1.000  O
  O30      1.0000 0.95480  0.41525  0.20155  Biso   1.000  O
  O31      1.0000 0.45480  0.08475  0.70155  Biso   1.000  O
  O32      1.0000 0.04520  0.58475  0.79845  Biso   1.000  O
  O33      1.0000 0.72160  0.66711  0.19533  Biso   1.000  O
  O34      1.0000 0.77840  0.16711  0.30467  Biso   1.000  O
  O35      1.0000 0.27840  0.33289  0.80467  Biso   1.000  O
  O36      1.0000 0.22160  0.83289  0.69533  Biso   1.000  O
  O37      1.0000 0.67050  0.58058  0.29307  Biso   1.000  O
  O38      1.0000 0.82950  0.08058  0.20693  Biso   1.000  O
  O39      1.0000 0.32950  0.41942  0.70693  Biso   1.000  O
  O40      1.0000 0.17050  0.91942  0.79307  Biso   1.000  O
  O41      1.0000 0.93460  0.60588  0.19045  Biso   1.000  O
  O42      1.0000 0.56540  0.10588  0.30955  Biso   1.000  O
  O43      1.0000 0.06540  0.39412  0.80955  Biso   1.000  O
  O44      1.0000 0.43460  0.89412  0.69045  Biso   1.000  O
  O45      1.0000 0.88530  0.52256  0.29542  Biso   1.000  O
  O46      1.0000 0.61470  0.02256  0.20458  Biso   1.000  O
  O47      1.0000 0.11470  0.47744  0.70458  Biso   1.000  O
  O48      1.0000 0.38530  0.97744  0.79542  Biso   1.000  O
  C1       1.0000 0.31970  0.54759  0.21594  Biso   1.000  C
  C2       1.0000 0.18030  0.04759  0.28406  Biso   1.000  C
  C3       1.0000 0.68030  0.45241  0.78406  Biso   1.000  C
  C4       1.0000 0.81970  0.95241  0.71594  Biso   1.000  C
  C5       1.0000 0.29230  0.59948  0.27316  Biso   1.000  C
  C6       1.0000 0.20770  0.09948  0.22684  Biso   1.000  C
  C7       1.0000 0.70770  0.40052  0.72684  Biso   1.000  C
  C8       1.0000 0.79230  0.90052  0.77316  Biso   1.000  C
  C9       1.0000 0.45610  0.82618  0.21698  Biso   1.000  C
  C10      1.0000 0.04390  0.32618  0.28302  Biso   1.000  C
  C11      1.0000 0.54390  0.17382  0.78302  Biso   1.000  C
  C12      1.0000 0.95610  0.67382  0.71698  Biso   1.000  C
  C13      1.0000 0.54700  0.84211  0.27666  Biso   1.000  C
  C14      1.0000 0.95300  0.34211  0.22334  Biso   1.000  C
  C15      1.0000 0.45300  0.15789  0.72334  Biso   1.000  C
  C16      1.0000 0.04700  0.65789  0.77666  Biso   1.000  C
  C17      1.0000 0.81910  0.61782  0.21402  Biso   1.000  C
  C18      1.0000 0.68090  0.11782  0.28598  Biso   1.000  C
  C19      1.0000 0.18090  0.38218  0.78598  Biso   1.000  C
  C20      1.0000 0.31910  0.88218  0.71402  Biso   1.000  C
  C21      1.0000 0.79090  0.56933  0.27221  Biso   1.000  C
  C22      1.0000 0.70910  0.06933  0.22779  Biso   1.000  C
  C23      1.0000 0.20910  0.43067  0.72779  Biso   1.000  C
  C24      1.0000 0.29090  0.93067  0.77221  Biso   1.000  C
  N1       1.0000 0.95350  0.87490  0.14430  Biso   1.000  N
  N2       1.0000 0.54650  0.37490  0.35570  Biso   1.000  N
  N3       1.0000 0.04650  0.12510  0.85570  Biso   1.000  N
  N4       1.0000 0.45350  0.62510  0.64430  Biso   1.000  N
  H1       1.0000 0.98210  0.82330  0.12890  Biso   1.000  H
  H2       1.0000 0.51790  0.32330  0.37110  Biso   1.000  H
  H3       1.0000 0.01790  0.17670  0.87110  Biso   1.000  H
  H4       1.0000 0.48210  0.67670  0.62890  Biso   1.000  H
  C25      1.0000 0.81330  0.89900  0.11150  Biso   1.000  C
  C26      1.0000 0.68670  0.39900  0.38850  Biso   1.000  C
  C27      1.0000 0.18670  0.10100  0.88850  Biso   1.000  C
  C28      1.0000 0.31330  0.60100  0.61150  Biso   1.000  C
  H5       1.0000 0.76760  0.94390  0.13460  Biso   1.000  H
  H6       1.0000 0.73240  0.44390  0.36540  Biso   1.000  H
  H7       1.0000 0.23240  0.05610  0.86540  Biso   1.000  H
  H8       1.0000 0.26760  0.55610  0.63460  Biso   1.000  H
  H9       1.0000 0.83340  0.92280  0.07180  Biso   1.000  H
  H10      1.0000 0.66660  0.42280  0.42820  Biso   1.000  H
  H11      1.0000 0.16660  0.07720  0.92820  Biso   1.000  H
  H12      1.0000 0.33340  0.57720  0.57180  Biso   1.000  H
  C29      1.0000 0.71170  0.82810  0.10230  Biso   1.000  C
  C30      1.0000 0.78830  0.32810  0.39770  Biso   1.000  C
  C31      1.0000 0.28830  0.17190  0.89770  Biso   1.000  C
  C32      1.0000 0.21170  0.67190  0.60230  Biso   1.000  C
  H13      1.0000 0.68800  0.80540  0.14190  Biso   1.000  H
  H14      1.0000 0.81200  0.30540  0.35810  Biso   1.000  H
  H15      1.0000 0.31200  0.19460  0.85810  Biso   1.000  H
  H16      1.0000 0.18800  0.69460  0.64190  Biso   1.000  H
  H17      1.0000 0.75750  0.78230  0.08000  Biso   1.000  H
  H18      1.0000 0.74250  0.28230  0.42000  Biso   1.000  H
  H19      1.0000 0.24250  0.21770  0.92000  Biso   1.000  H
  H20      1.0000 0.25750  0.71770  0.58000  Biso   1.000  H
  C33      1.0000 0.57720  0.85470  0.06800  Biso   1.000  C
  C34      1.0000 0.92280  0.35470  0.43200  Biso   1.000  C
  C35      1.0000 0.42280  0.14530  0.93200  Biso   1.000  C
  C36      1.0000 0.07720  0.64530  0.56800  Biso   1.000  C
  H21      1.0000 0.51310  0.80610  0.06280  Biso   1.000  H
  H22      1.0000 0.98690  0.30610  0.43720  Biso   1.000  H
  H23      1.0000 0.48690  0.19390  0.93720  Biso   1.000  H
  H24      1.0000 0.01310  0.69390  0.56280  Biso   1.000  H
  H25      1.0000 0.60010  0.87630  0.02850  Biso   1.000  H
  H26      1.0000 0.89990  0.37630  0.47150  Biso   1.000  H
  H27      1.0000 0.39990  0.12370  0.97150  Biso   1.000  H
  H28      1.0000 0.10010  0.62370  0.52850  Biso   1.000  H
  H29      1.0000 0.53050  0.89920  0.09030  Biso   1.000  H
  H30      1.0000 0.96950  0.39920  0.40970  Biso   1.000  H
  H31      1.0000 0.46950  0.10080  0.90970  Biso   1.000  H
  H32      1.0000 0.03050  0.60080  0.59030  Biso   1.000  H
  C37      1.0000 0.06870  0.93790  0.13450  Biso   1.000  C
  C38      1.0000 0.43130  0.43790  0.36550  Biso   1.000  C
  C39      1.0000 0.93130  0.06210  0.86550  Biso   1.000  C
  C40      1.0000 0.56870  0.56210  0.63450  Biso   1.000  C
  H33      1.0000 0.14600  0.93060  0.16620  Biso   1.000  H
  H34      1.0000 0.35400  0.43060  0.33380  Biso   1.000  H
  H35      1.0000 0.85400  0.06940  0.83380  Biso   1.000  H
  H36      1.0000 0.64600  0.56940  0.66620  Biso   1.000  H
  H37      1.0000 0.02940  0.99550  0.13850  Biso   1.000  H
  H38      1.0000 0.47060  0.49550  0.36150  Biso   1.000  H
  H39      1.0000 0.97060  0.00450  0.86150  Biso   1.000  H
  H40      1.0000 0.52940  0.50450  0.63850  Biso   1.000  H
  C41      1.0000 0.13070  0.92990  0.07370  Biso   1.000  C
  C42      1.0000 0.36930  0.42990  0.42630  Biso   1.000  C
  C43      1.0000 0.86930  0.07010  0.92630  Biso   1.000  C
  C44      1.0000 0.63070  0.57010  0.57370  Biso   1.000  C
  H41      1.0000 0.05260  0.93010  0.04190  Biso   1.000  H
  H42      1.0000 0.44740  0.43010  0.45810  Biso   1.000  H
  H43      1.0000 0.94740  0.06990  0.95810  Biso   1.000  H
  H44      1.0000 0.55260  0.56990  0.54190  Biso   1.000  H
  H45      1.0000 0.18220  0.87550  0.07150  Biso   1.000  H
  H46      1.0000 0.31780  0.37550  0.42850  Biso   1.000  H
  H47      1.0000 0.81780  0.12450  0.92850  Biso   1.000  H
  H48      1.0000 0.68220  0.62450  0.57150  Biso   1.000  H
  C45      1.0000 0.23210  0.00200  0.06320  Biso   1.000  C
  C46      1.0000 0.26790  0.50200  0.43680  Biso   1.000  C
  C47      1.0000 0.76790  0.99800  0.93680  Biso   1.000  C
  C48      1.0000 0.73210  0.49800  0.56320  Biso   1.000  C
  H49      1.0000 0.25970  0.00050  0.02140  Biso   1.000  H
  H50      1.0000 0.24030  0.50050  0.47860  Biso   1.000  H
  H51      1.0000 0.74030  0.99950  0.97860  Biso   1.000  H
  H52      1.0000 0.75970  0.49950  0.52140  Biso   1.000  H
  H53      1.0000 0.31730  0.99630  0.09040  Biso   1.000  H
  H54      1.0000 0.18270  0.49630  0.40960  Biso   1.000  H
  H55      1.0000 0.68270  0.00370  0.90960  Biso   1.000  H
  H56      1.0000 0.81730  0.50370  0.59040  Biso   1.000  H
  H57      1.0000 0.18490  0.05580  0.07080  Biso   1.000  H
  H58      1.0000 0.31510  0.55580  0.42920  Biso   1.000  H
  H59      1.0000 0.81510  0.94420  0.92920  Biso   1.000  H
  H60      1.0000 0.68490  0.44420  0.57080  Biso   1.000  H
  C49      1.0000 0.93280  0.86290  0.21060  Biso   1.000  C
  C50      1.0000 0.56720  0.36290  0.28940  Biso   1.000  C
  C51      1.0000 0.06720  0.13710  0.78940  Biso   1.000  C
  C52      1.0000 0.43280  0.63710  0.71060  Biso   1.000  C
  H61      1.0000 0.92450  0.91900  0.22970  Biso   1.000  H
  H62      1.0000 0.57550  0.41900  0.27030  Biso   1.000  H
  H63      1.0000 0.07550  0.08100  0.77030  Biso   1.000  H
  H64      1.0000 0.42450  0.58100  0.72970  Biso   1.000  H
  H65      1.0000 0.84230  0.83220  0.21530  Biso   1.000  H
  H66      1.0000 0.65770  0.33220  0.28470  Biso   1.000  H
  H67      1.0000 0.15770  0.16780  0.78470  Biso   1.000  H
  H68      1.0000 0.34230  0.66780  0.71530  Biso   1.000  H
  C53      1.0000 0.05130  0.81530  0.24210  Biso   1.000  C
  C54      1.0000 0.44870  0.31530  0.25790  Biso   1.000  C
  C55      1.0000 0.94870  0.18470  0.75790  Biso   1.000  C
  C56      1.0000 0.55130  0.68470  0.74210  Biso   1.000  C
  H69      1.0000 0.14270  0.84370  0.23500  Biso   1.000  H
  H70      1.0000 0.35730  0.34370  0.26500  Biso   1.000  H
  H71      1.0000 0.85730  0.15630  0.76500  Biso   1.000  H
  H72      1.0000 0.64270  0.65630  0.73500  Biso   1.000  H
  H73      1.0000 0.05510  0.75760  0.22500  Biso   1.000  H
  H74      1.0000 0.44490  0.25760  0.27500  Biso   1.000  H
  H75      1.0000 0.94490  0.24240  0.77500  Biso   1.000  H
  H76      1.0000 0.55510  0.74240  0.72500  Biso   1.000  H
  C57      1.0000 0.03500  0.80910  0.30840  Biso   1.000  C
  C58      1.0000 0.46500  0.30910  0.19160  Biso   1.000  C
  C59      1.0000 0.96500  0.19090  0.69160  Biso   1.000  C
  C60      1.0000 0.53500  0.69090  0.80840  Biso   1.000  C
  H77      1.0000 0.11280  0.77520  0.32690  Biso   1.000  H
  H78      1.0000 0.38720  0.27520  0.17310  Biso   1.000  H
  H79      1.0000 0.88720  0.22480  0.67310  Biso   1.000  H
  H80      1.0000 0.61280  0.72480  0.82690  Biso   1.000  H
  H81      1.0000 0.94340  0.78220  0.31560  Biso   1.000  H
  H82      1.0000 0.55660  0.28220  0.18440  Biso   1.000  H
  H83      1.0000 0.05660  0.21780  0.68440  Biso   1.000  H
  H84      1.0000 0.44340  0.71780  0.81560  Biso   1.000  H
  H85      1.0000 0.03730  0.86590  0.32600  Biso   1.000  H
  H86      1.0000 0.46270  0.36590  0.17400  Biso   1.000  H
  H87      1.0000 0.96270  0.13410  0.67400  Biso   1.000  H
  H88      1.0000 0.53730  0.63410  0.82600  Biso   1.000  H
  N5       1.0000 0.67130  0.81940  0.42770  Biso   1.000  N
  N6       1.0000 0.82870  0.31940  0.07230  Biso   1.000  N
  N7       1.0000 0.32870  0.18060  0.57230  Biso   1.000  N
  N8       1.0000 0.17130  0.68060  0.92770  Biso   1.000  N
  H89      1.0000 0.66280  0.81670  0.38590  Biso   1.000  H
  H90      1.0000 0.83720  0.31670  0.11410  Biso   1.000  H
  H91      1.0000 0.33720  0.18330  0.61410  Biso   1.000  H
  H92      1.0000 0.16280  0.68330  0.88590  Biso   1.000  H
  C61      1.0000 0.79430  0.87760  0.44510  Biso   1.000  C
  C62      1.0000 0.70570  0.37760  0.05490  Biso   1.000  C
  C63      1.0000 0.20570  0.12240  0.55490  Biso   1.000  C
  C64      1.0000 0.29430  0.62240  0.94510  Biso   1.000  C
  H93      1.0000 0.80260  0.88240  0.48940  Biso   1.000  H
  H94      1.0000 0.69740  0.38240  0.01060  Biso   1.000  H
  H95      1.0000 0.19740  0.11760  0.51060  Biso   1.000  H
  H96      1.0000 0.30260  0.61760  0.98940  Biso   1.000  H
  H97      1.0000 0.88330  0.85140  0.43230  Biso   1.000  H
  H98      1.0000 0.61670  0.35140  0.06770  Biso   1.000  H
  H99      1.0000 0.11670  0.14860  0.56770  Biso   1.000  H
  H100     1.0000 0.38330  0.64860  0.93230  Biso   1.000  H
  C65      1.0000 0.78310  0.96430  0.41910  Biso   1.000  C
  C66      1.0000 0.71690  0.46430  0.08090  Biso   1.000  C
  C67      1.0000 0.21690  0.03570  0.58090  Biso   1.000  C
  C68      1.0000 0.28310  0.53570  0.91910  Biso   1.000  C
  H101     1.0000 0.69830  0.99310  0.43380  Biso   1.000  H
  H102     1.0000 0.80170  0.49310  0.06620  Biso   1.000  H
  H103     1.0000 0.30170  0.00690  0.56620  Biso   1.000  H
  H104     1.0000 0.19830  0.50690  0.93380  Biso   1.000  H
  H105     1.0000 0.77130  0.96070  0.37470  Biso   1.000  H
  H106     1.0000 0.72870  0.46070  0.12530  Biso   1.000  H
  H107     1.0000 0.22870  0.03930  0.62530  Biso   1.000  H
  H108     1.0000 0.27130  0.53930  0.87470  Biso   1.000  H
  C69      1.0000 0.91730  0.01550  0.43710  Biso   1.000  C
  C70      1.0000 0.58270  0.51550  0.06290  Biso   1.000  C
  C71      1.0000 0.08270  0.98450  0.56290  Biso   1.000  C
  C72      1.0000 0.41730  0.48450  0.93710  Biso   1.000  C
  C73      1.0000 0.53370  0.85380  0.44880  Biso   1.000  C
  C74      1.0000 0.96630  0.35380  0.05120  Biso   1.000  C
  C75      1.0000 0.46630  0.14620  0.55120  Biso   1.000  C
  C76      1.0000 0.03370  0.64620  0.94880  Biso   1.000  C
  H109     1.0000 0.51560  0.90950  0.42970  Biso   1.000  H
  H110     1.0000 0.98440  0.40950  0.07030  Biso   1.000  H
  H111     1.0000 0.48440  0.09050  0.57030  Biso   1.000  H
  H112     1.0000 0.01560  0.59050  0.92970  Biso   1.000  H
  H113     1.0000 0.54520  0.86300  0.49280  Biso   1.000  H
  H114     1.0000 0.95480  0.36300  0.00720  Biso   1.000  H
  H115     1.0000 0.45480  0.13700  0.50720  Biso   1.000  H
  H116     1.0000 0.04520  0.63700  0.99280  Biso   1.000  H
  C77      1.0000 0.40520  0.79870  0.43580  Biso   1.000  C
  C78      1.0000 0.09480  0.29870  0.06420  Biso   1.000  C
  C79      1.0000 0.59480  0.20130  0.56420  Biso   1.000  C
  C80      1.0000 0.90520  0.70130  0.93580  Biso   1.000  C
  H117     1.0000 0.41480  0.74580  0.45940  Biso   1.000  H
  H118     1.0000 0.08520  0.24580  0.04060  Biso   1.000  H
  H119     1.0000 0.58520  0.25420  0.54060  Biso   1.000  H
  H120     1.0000 0.91480  0.75420  0.95940  Biso   1.000  H
  H121     1.0000 0.39760  0.78360  0.39260  Biso   1.000  H
  H122     1.0000 0.10240  0.28360  0.10740  Biso   1.000  H
  H123     1.0000 0.60240  0.21640  0.60740  Biso   1.000  H
  H124     1.0000 0.89760  0.71640  0.89260  Biso   1.000  H
  C81      1.0000 0.27170  0.84630  0.45230  Biso   1.000  C
  C82      1.0000 0.22830  0.34630  0.04770  Biso   1.000  C
  C83      1.0000 0.72830  0.15370  0.54770  Biso   1.000  C
  C84      1.0000 0.77170  0.65370  0.95230  Biso   1.000  C
  C85      1.0000 0.70200  0.73180  0.45090  Biso   1.000  C
  C86      1.0000 0.79800  0.23180  0.04910  Biso   1.000  C
  C87      1.0000 0.29800  0.26820  0.54910  Biso   1.000  C
  C88      1.0000 0.20200  0.76820  0.95090  Biso   1.000  C
  H125     1.0000 0.61770  0.69580  0.44100  Biso   1.000  H
  H126     1.0000 0.88230  0.19580  0.05900  Biso   1.000  H
  H127     1.0000 0.38230  0.30420  0.55900  Biso   1.000  H
  H128     1.0000 0.11770  0.80420  0.94100  Biso   1.000  H
  H129     1.0000 0.71590  0.73420  0.49520  Biso   1.000  H
  H130     1.0000 0.78410  0.23420  0.00480  Biso   1.000  H
  H131     1.0000 0.28410  0.26580  0.50480  Biso   1.000  H
  H132     1.0000 0.21590  0.76580  0.99520  Biso   1.000  H
  C89      1.0000 0.83160  0.69040  0.42600  Biso   1.000  C
  C90      1.0000 0.66840  0.19040  0.07400  Biso   1.000  C
  C91      1.0000 0.16840  0.30960  0.57400  Biso   1.000  C
  C92      1.0000 0.33160  0.80960  0.92600  Biso   1.000  C
  H133     1.0000 0.91950  0.71790  0.44320  Biso   1.000  H
  H134     1.0000 0.58050  0.21790  0.05680  Biso   1.000  H
  H135     1.0000 0.08050  0.28210  0.55680  Biso   1.000  H
  H136     1.0000 0.41950  0.78210  0.94320  Biso   1.000  H
  H137     1.0000 0.82850  0.69720  0.38180  Biso   1.000  H
  H138     1.0000 0.67150  0.19720  0.11820  Biso   1.000  H
  H139     1.0000 0.17150  0.30280  0.61820  Biso   1.000  H
  H140     1.0000 0.32850  0.80280  0.88180  Biso   1.000  H
  C93      1.0000 0.83360  0.59620  0.44220  Biso   1.000  C
  C94      1.0000 0.66640  0.09620  0.05780  Biso   1.000  C
  C95      1.0000 0.16640  0.40380  0.55780  Biso   1.000  C
  C96      1.0000 0.33360  0.90380  0.94220  Biso   1.000  C
  O49      1.0000 0.02340  0.71300  0.10342  Biso   1.000  O
  O50      1.0000 0.47660  0.21300  0.39658  Biso   1.000  O
  O51      1.0000 0.97660  0.28700  0.89658  Biso   1.000  O
  O52      1.0000 0.52340  0.78700  0.60342  Biso   1.000  O
  O53      1.0000 0.22500  0.73890  0.11110  Biso   1.000  O
  O54      1.0000 0.27500  0.23890  0.38890  Biso   1.000  O
  O55      1.0000 0.77500  0.26110  0.88890  Biso   1.000  O
  O56      1.0000 0.72500  0.76110  0.61110  Biso   1.000  O
  O57      1.0000 0.10630  0.57750  0.09050  Biso   1.000  O
  O58      1.0000 0.39370  0.07750  0.40950  Biso   1.000  O
  O59      1.0000 0.89370  0.42250  0.90950  Biso   1.000  O
  O60      1.0000 0.60630  0.92250  0.59050  Biso   1.000  O
  N9       1.0000 0.00930  0.84760  0.15010  Biso   1.000  N
  N10      1.0000 0.49070  0.34760  0.34990  Biso   1.000  N
  N11      1.0000 0.99070  0.15240  0.84990  Biso   1.000  N
  N12      1.0000 0.50930  0.65240  0.65010  Biso   1.000  N
  H141     1.0000 0.08570  0.81210  0.14350  Biso   1.000  H
  H142     1.0000 0.41430  0.31210  0.35650  Biso   1.000  H
  H143     1.0000 0.91430  0.18790  0.85650  Biso   1.000  H
  H144     1.0000 0.58570  0.68790  0.64350  Biso   1.000  H
  C97      1.0000 0.88770  0.81840  0.10960  Biso   1.000  C
  C98      1.0000 0.61230  0.31840  0.39040  Biso   1.000  C
  C99      1.0000 0.11230  0.18160  0.89040  Biso   1.000  C
  C100     1.0000 0.38770  0.68160  0.60960  Biso   1.000  C
  H145     1.0000 0.86840  0.75830  0.11830  Biso   1.000  H
  H146     1.0000 0.63160  0.25830  0.38170  Biso   1.000  H
  H147     1.0000 0.13160  0.24170  0.88170  Biso   1.000  H
  H148     1.0000 0.36840  0.74170  0.61830  Biso   1.000  H
  H149     1.0000 0.91520  0.82220  0.06750  Biso   1.000  H
  H150     1.0000 0.58480  0.32220  0.43250  Biso   1.000  H
  H151     1.0000 0.08480  0.17780  0.93250  Biso   1.000  H
  H152     1.0000 0.41520  0.67780  0.56750  Biso   1.000  H
  C101     1.0000 0.75350  0.86830  0.11590  Biso   1.000  C
  C102     1.0000 0.74650  0.36830  0.38410  Biso   1.000  C
  C103     1.0000 0.24650  0.13170  0.88410  Biso   1.000  C
  C104     1.0000 0.25350  0.63170  0.61590  Biso   1.000  C
  H153     1.0000 0.76990  0.92820  0.10560  Biso   1.000  H
  H154     1.0000 0.73010  0.42820  0.39440  Biso   1.000  H
  H155     1.0000 0.23010  0.07180  0.89440  Biso   1.000  H
  H156     1.0000 0.26990  0.57180  0.60560  Biso   1.000  H
  H157     1.0000 0.72530  0.86570  0.15800  Biso   1.000  H
  H158     1.0000 0.77470  0.36570  0.34200  Biso   1.000  H
  H159     1.0000 0.27470  0.13430  0.84200  Biso   1.000  H
  H160     1.0000 0.22530  0.63430  0.65800  Biso   1.000  H
  C105     1.0000 0.63480  0.83160  0.07390  Biso   1.000  C
  C106     1.0000 0.86520  0.33160  0.42610  Biso   1.000  C
  C107     1.0000 0.36520  0.16840  0.92610  Biso   1.000  C
  C108     1.0000 0.13480  0.66840  0.57390  Biso   1.000  C
  H161     1.0000 0.54710  0.86420  0.07780  Biso   1.000  H
  H162     1.0000 0.95290  0.36420  0.42220  Biso   1.000  H
  H163     1.0000 0.45290  0.13580  0.92220  Biso   1.000  H
  H164     1.0000 0.04710  0.63580  0.57780  Biso   1.000  H
  H165     1.0000 0.61830  0.77250  0.08460  Biso   1.000  H
  H166     1.0000 0.88170  0.27250  0.41540  Biso   1.000  H
  H167     1.0000 0.38170  0.22750  0.91540  Biso   1.000  H
  H168     1.0000 0.11830  0.72750  0.58460  Biso   1.000  H
  H169     1.0000 0.66300  0.83470  0.03230  Biso   1.000  H
  H170     1.0000 0.83700  0.33470  0.46770  Biso   1.000  H
  H171     1.0000 0.33700  0.16530  0.96770  Biso   1.000  H
  H172     1.0000 0.16300  0.66530  0.53230  Biso   1.000  H
  C109     1.0000 0.05700  0.93550  0.13710  Biso   1.000  C
  C110     1.0000 0.44300  0.43550  0.36290  Biso   1.000  C
  C111     1.0000 0.94300  0.06450  0.86290  Biso   1.000  C
  C112     1.0000 0.55700  0.56450  0.63710  Biso   1.000  C
  H173     1.0000 0.13660  0.95060  0.16610  Biso   1.000  H
  H174     1.0000 0.36340  0.45060  0.33390  Biso   1.000  H
  H175     1.0000 0.86340  0.04940  0.83390  Biso   1.000  H
  H176     1.0000 0.63660  0.54940  0.66610  Biso   1.000  H
  H177     1.0000 0.97720  0.97490  0.14360  Biso   1.000  H
  H178     1.0000 0.52280  0.47490  0.35640  Biso   1.000  H
  H179     1.0000 0.02280  0.02510  0.85640  Biso   1.000  H
  H180     1.0000 0.47720  0.52510  0.64360  Biso   1.000  H
  C113     1.0000 0.10400  0.94780  0.07450  Biso   1.000  C
  C114     1.0000 0.39600  0.44780  0.42550  Biso   1.000  C
  C115     1.0000 0.89600  0.05220  0.92550  Biso   1.000  C
  C116     1.0000 0.60400  0.55220  0.57450  Biso   1.000  C
  H181     1.0000 0.02070  0.94270  0.04540  Biso   1.000  H
  H182     1.0000 0.47930  0.44270  0.45460  Biso   1.000  H
  H183     1.0000 0.97930  0.05730  0.95460  Biso   1.000  H
  H184     1.0000 0.52070  0.55730  0.54540  Biso   1.000  H
  H185     1.0000 0.17300  0.90290  0.06530  Biso   1.000  H
  H186     1.0000 0.32700  0.40290  0.43470  Biso   1.000  H
  H187     1.0000 0.82700  0.09710  0.93470  Biso   1.000  H
  H188     1.0000 0.67300  0.59710  0.56530  Biso   1.000  H
  C117     1.0000 0.17300  0.03350  0.06740  Biso   1.000  C
  C118     1.0000 0.32700  0.53350  0.43260  Biso   1.000  C
  C119     1.0000 0.82700  0.96650  0.93260  Biso   1.000  C
  C120     1.0000 0.67300  0.46650  0.56740  Biso   1.000  C
  H189     1.0000 0.22210  0.03480  0.02980  Biso   1.000  H
  H190     1.0000 0.27790  0.53480  0.47020  Biso   1.000  H
  H191     1.0000 0.77790  0.96520  0.97020  Biso   1.000  H
  H192     1.0000 0.72210  0.46520  0.52980  Biso   1.000  H
  H193     1.0000 0.24200  0.04360  0.10140  Biso   1.000  H
  H194     1.0000 0.25800  0.54360  0.39860  Biso   1.000  H
  H195     1.0000 0.75800  0.95640  0.89860  Biso   1.000  H
  H196     1.0000 0.74200  0.45640  0.60140  Biso   1.000  H
  H197     1.0000 0.09950  0.07750  0.06650  Biso   1.000  H
  H198     1.0000 0.40050  0.57750  0.43350  Biso   1.000  H
  H199     1.0000 0.90050  0.92250  0.93350  Biso   1.000  H
  H200     1.0000 0.59950  0.42250  0.56650  Biso   1.000  H
  C121     1.0000 0.97570  0.83680  0.21520  Biso   1.000  C
  C122     1.0000 0.52430  0.33680  0.28480  Biso   1.000  C
  C123     1.0000 0.02430  0.16320  0.78480  Biso   1.000  C
  C124     1.0000 0.47570  0.66320  0.71520  Biso   1.000  C
  H201     1.0000 0.94970  0.89260  0.23130  Biso   1.000  H
  H202     1.0000 0.55030  0.39260  0.26870  Biso   1.000  H
  H203     1.0000 0.05030  0.10740  0.76870  Biso   1.000  H
  H204     1.0000 0.44970  0.60740  0.73130  Biso   1.000  H
  H205     1.0000 0.89130  0.79960  0.21690  Biso   1.000  H
  H206     1.0000 0.60870  0.29960  0.28310  Biso   1.000  H
  H207     1.0000 0.10870  0.20040  0.78310  Biso   1.000  H
  H208     1.0000 0.39130  0.70040  0.71690  Biso   1.000  H
  C125     1.0000 0.09020  0.80170  0.25390  Biso   1.000  C
  C126     1.0000 0.40980  0.30170  0.24610  Biso   1.000  C
  C127     1.0000 0.90980  0.19830  0.74610  Biso   1.000  C
  C128     1.0000 0.59020  0.69830  0.75390  Biso   1.000  C
  H209     1.0000 0.17160  0.84150  0.25550  Biso   1.000  H
  H210     1.0000 0.32840  0.34150  0.24450  Biso   1.000  H
  H211     1.0000 0.82840  0.15850  0.74450  Biso   1.000  H
  H212     1.0000 0.67160  0.65850  0.75550  Biso   1.000  H
  H213     1.0000 0.12260  0.74820  0.23600  Biso   1.000  H
  H214     1.0000 0.37740  0.24820  0.26400  Biso   1.000  H
  H215     1.0000 0.87740  0.25180  0.76400  Biso   1.000  H
  H216     1.0000 0.62260  0.75180  0.73600  Biso   1.000  H
  C129     1.0000 0.04900  0.78440  0.31680  Biso   1.000  C
  C130     1.0000 0.45100  0.28440  0.18320  Biso   1.000  C
  C131     1.0000 0.95100  0.21560  0.68320  Biso   1.000  C
  C132     1.0000 0.54900  0.71560  0.81680  Biso   1.000  C
  H217     1.0000 0.13250  0.76500  0.34130  Biso   1.000  H
  H218     1.0000 0.36750  0.26500  0.15870  Biso   1.000  H
  H219     1.0000 0.86750  0.23500  0.65870  Biso   1.000  H
  H220     1.0000 0.63250  0.73500  0.84130  Biso   1.000  H
  H221     1.0000 0.97490  0.74060  0.31590  Biso   1.000  H
  H222     1.0000 0.52510  0.24060  0.18410  Biso   1.000  H
  H223     1.0000 0.02510  0.25940  0.68410  Biso   1.000  H
  H224     1.0000 0.47490  0.75940  0.81590  Biso   1.000  H
  H225     1.0000 0.01180  0.83630  0.33410  Biso   1.000  H
  H226     1.0000 0.48820  0.33630  0.16590  Biso   1.000  H
  H227     1.0000 0.98820  0.16370  0.66590  Biso   1.000  H
  H228     1.0000 0.51180  0.66370  0.83410  Biso   1.000  H
  N13      1.0000 0.66620  0.81150  0.42090  Biso   1.000  N
  N14      1.0000 0.83380  0.31150  0.07910  Biso   1.000  N
  N15      1.0000 0.33380  0.18850  0.57910  Biso   1.000  N
  N16      1.0000 0.16620  0.68850  0.92090  Biso   1.000  N
  H229     1.0000 0.65600  0.81040  0.37920  Biso   1.000  H
  H230     1.0000 0.84400  0.31040  0.12080  Biso   1.000  H
  H231     1.0000 0.34400  0.18960  0.62080  Biso   1.000  H
  H232     1.0000 0.15600  0.68960  0.87920  Biso   1.000  H
  C133     1.0000 0.68910  0.90230  0.43980  Biso   1.000  C
  C134     1.0000 0.81090  0.40230  0.06020  Biso   1.000  C
  C135     1.0000 0.31090  0.09770  0.56020  Biso   1.000  C
  C136     1.0000 0.18910  0.59770  0.93980  Biso   1.000  C
  H233     1.0000 0.60210  0.93520  0.42830  Biso   1.000  H
  H234     1.0000 0.89790  0.43520  0.07170  Biso   1.000  H
  H235     1.0000 0.39790  0.06480  0.57170  Biso   1.000  H
  H236     1.0000 0.10210  0.56480  0.92830  Biso   1.000  H
  H237     1.0000 0.70430  0.90490  0.48410  Biso   1.000  H
  H238     1.0000 0.79570  0.40490  0.01590  Biso   1.000  H
  H239     1.0000 0.29570  0.09510  0.51590  Biso   1.000  H
  H240     1.0000 0.20430  0.59510  0.98410  Biso   1.000  H
  C137     1.0000 0.81500  0.94230  0.41160  Biso   1.000  C
  C138     1.0000 0.68500  0.44230  0.08840  Biso   1.000  C
  C139     1.0000 0.18500  0.05770  0.58840  Biso   1.000  C
  C140     1.0000 0.31500  0.55770  0.91160  Biso   1.000  C
  H241     1.0000 0.80160  0.93850  0.36730  Biso   1.000  H
  H242     1.0000 0.69840  0.43850  0.13270  Biso   1.000  H
  H243     1.0000 0.19840  0.06150  0.63270  Biso   1.000  H
  H244     1.0000 0.30160  0.56150  0.86730  Biso   1.000  H
  H245     1.0000 0.90280  0.91120  0.42440  Biso   1.000  H
  H246     1.0000 0.59720  0.41120  0.07560  Biso   1.000  H
  H247     1.0000 0.09720  0.08880  0.57560  Biso   1.000  H
  H248     1.0000 0.40280  0.58880  0.92440  Biso   1.000  H
  C141     1.0000 0.83000  0.03380  0.43000  Biso   1.000  C
  C142     1.0000 0.67000  0.53380  0.07000  Biso   1.000  C
  C143     1.0000 0.17000  0.96620  0.57000  Biso   1.000  C
  C144     1.0000 0.33000  0.46620  0.93000  Biso   1.000  C
  H249     1.0000 0.91320  0.05830  0.41180  Biso   1.000  H
  H250     1.0000 0.58680  0.55830  0.08820  Biso   1.000  H
  H251     1.0000 0.08680  0.94170  0.58820  Biso   1.000  H
  H252     1.0000 0.41320  0.44170  0.91180  Biso   1.000  H
  H253     1.0000 0.84310  0.03760  0.47390  Biso   1.000  H
  H254     1.0000 0.65690  0.53760  0.02610  Biso   1.000  H
  H255     1.0000 0.15690  0.96240  0.52610  Biso   1.000  H
  H256     1.0000 0.34310  0.46240  0.97390  Biso   1.000  H
  H257     1.0000 0.74420  0.06500  0.41630  Biso   1.000  H
  H258     1.0000 0.75580  0.56500  0.08370  Biso   1.000  H
  H259     1.0000 0.25580  0.93500  0.58370  Biso   1.000  H
  H260     1.0000 0.24420  0.43500  0.91630  Biso   1.000  H
  C145     1.0000 0.53310  0.77520  0.44430  Biso   1.000  C
  C146     1.0000 0.96690  0.27520  0.05570  Biso   1.000  C
  C147     1.0000 0.46690  0.22480  0.55570  Biso   1.000  C
  C148     1.0000 0.03310  0.72480  0.94430  Biso   1.000  C
  H261     1.0000 0.52400  0.71590  0.43040  Biso   1.000  H
  H262     1.0000 0.97600  0.21590  0.06960  Biso   1.000  H
  H263     1.0000 0.47600  0.28410  0.56960  Biso   1.000  H
  H264     1.0000 0.02400  0.78410  0.93040  Biso   1.000  H
  H265     1.0000 0.54390  0.77420  0.48880  Biso   1.000  H
  H266     1.0000 0.95610  0.27420  0.01120  Biso   1.000  H
  H267     1.0000 0.45610  0.22580  0.51120  Biso   1.000  H
  H268     1.0000 0.04390  0.72580  0.98880  Biso   1.000  H
  C149     1.0000 0.39820  0.82060  0.42600  Biso   1.000  C
  C150     1.0000 0.10180  0.32060  0.07400  Biso   1.000  C
  C151     1.0000 0.60180  0.17940  0.57400  Biso   1.000  C
  C152     1.0000 0.89820  0.67940  0.92600  Biso   1.000  C
  H269     1.0000 0.38850  0.82460  0.38160  Biso   1.000  H
  H270     1.0000 0.11150  0.32460  0.11840  Biso   1.000  H
  H271     1.0000 0.61150  0.17540  0.61840  Biso   1.000  H
  H272     1.0000 0.88850  0.67540  0.88160  Biso   1.000  H
  H273     1.0000 0.40270  0.87870  0.44240  Biso   1.000  H
  H274     1.0000 0.09730  0.37870  0.05760  Biso   1.000  H
  H275     1.0000 0.59730  0.12130  0.55760  Biso   1.000  H
  H276     1.0000 0.90270  0.62130  0.94240  Biso   1.000  H
  C153     1.0000 0.26880  0.77610  0.44840  Biso   1.000  C
  C154     1.0000 0.23120  0.27610  0.05160  Biso   1.000  C
  C155     1.0000 0.73120  0.22390  0.55160  Biso   1.000  C
  C156     1.0000 0.76880  0.72390  0.94840  Biso   1.000  C
  H277     1.0000 0.18300  0.80900  0.43720  Biso   1.000  H
  H278     1.0000 0.31700  0.30900  0.06280  Biso   1.000  H
  H279     1.0000 0.81700  0.19100  0.56280  Biso   1.000  H
  H280     1.0000 0.68300  0.69100  0.93720  Biso   1.000  H
  H281     1.0000 0.27920  0.77060  0.49220  Biso   1.000  H
  H282     1.0000 0.22080  0.27060  0.00780  Biso   1.000  H
  H283     1.0000 0.72080  0.22940  0.50780  Biso   1.000  H
  H284     1.0000 0.77920  0.72940  0.99220  Biso   1.000  H
  H285     1.0000 0.26050  0.71980  0.43020  Biso   1.000  H
  H286     1.0000 0.23950  0.21980  0.06980  Biso   1.000  H
  H287     1.0000 0.73950  0.28020  0.56980  Biso   1.000  H
  H288     1.0000 0.76050  0.78020  0.93020  Biso   1.000  H
  C157     1.0000 0.79370  0.75730  0.43980  Biso   1.000  C
  C158     1.0000 0.70630  0.25730  0.06020  Biso   1.000  C
  C159     1.0000 0.20630  0.24270  0.56020  Biso   1.000  C
  C160     1.0000 0.29370  0.74270  0.93980  Biso   1.000  C
  H289     1.0000 0.88000  0.78290  0.42390  Biso   1.000  H
  H290     1.0000 0.62000  0.28290  0.07610  Biso   1.000  H
  H291     1.0000 0.12000  0.21710  0.57610  Biso   1.000  H
  H292     1.0000 0.38000  0.71710  0.92390  Biso   1.000  H
  H293     1.0000 0.80620  0.75760  0.48420  Biso   1.000  H
  H294     1.0000 0.69380  0.25760  0.01580  Biso   1.000  H
  H295     1.0000 0.19380  0.24240  0.51580  Biso   1.000  H
  H296     1.0000 0.30620  0.74240  0.98420  Biso   1.000  H
  C161     1.0000 0.78300  0.66810  0.41890  Biso   1.000  C
  C162     1.0000 0.71700  0.16810  0.08110  Biso   1.000  C
  C163     1.0000 0.21700  0.33190  0.58110  Biso   1.000  C
  C164     1.0000 0.28300  0.83190  0.91890  Biso   1.000  C
  H297     1.0000 0.75460  0.66790  0.37540  Biso   1.000  H
  H298     1.0000 0.74540  0.16790  0.12460  Biso   1.000  H
  H299     1.0000 0.24540  0.33210  0.62460  Biso   1.000  H
  H300     1.0000 0.25460  0.83210  0.87540  Biso   1.000  H
  H301     1.0000 0.70630  0.63990  0.44010  Biso   1.000  H
  H302     1.0000 0.79370  0.13990  0.05990  Biso   1.000  H
  H303     1.0000 0.29370  0.36010  0.55990  Biso   1.000  H
  H304     1.0000 0.20630  0.86010  0.94010  Biso   1.000  H
  C165     1.0000 0.91680  0.61760  0.42870  Biso   1.000  C
  C166     1.0000 0.58320  0.11760  0.07130  Biso   1.000  C
  C167     1.0000 0.08320  0.38240  0.57130  Biso   1.000  C
  C168     1.0000 0.41680  0.88240  0.92870  Biso   1.000  C
  H305     1.0000 0.90010  0.55980  0.41420  Biso   1.000  H
  H306     1.0000 0.59990  0.05980  0.08580  Biso   1.000  H
  H307     1.0000 0.09990  0.44020  0.58580  Biso   1.000  H
  H308     1.0000 0.40010  0.94020  0.91420  Biso   1.000  H
  H309     1.0000 0.94520  0.61620  0.47180  Biso   1.000  H
  H310     1.0000 0.55480  0.11620  0.02820  Biso   1.000  H
  H311     1.0000 0.05480  0.38380  0.52820  Biso   1.000  H
  H312     1.0000 0.44520  0.88380  0.97180  Biso   1.000  H
  H313     1.0000 0.99280  0.64360  0.40670  Biso   1.000  H
  H314     1.0000 0.50720  0.14360  0.09330  Biso   1.000  H
  H315     1.0000 0.00720  0.35640  0.59330  Biso   1.000  H
  H316     1.0000 0.49280  0.85640  0.90670  Biso   1.000  H
  N17      1.0000 0.62510  0.84490  0.40510  Biso   1.000  N
  N18      1.0000 0.87490  0.34490  0.09490  Biso   1.000  N
  N19      1.0000 0.37490  0.15510  0.59490  Biso   1.000  N
  N20      1.0000 0.12510  0.65510  0.90510  Biso   1.000  N
  H317     1.0000 0.64880  0.84220  0.36510  Biso   1.000  H
  H318     1.0000 0.85120  0.34220  0.13490  Biso   1.000  H
  H319     1.0000 0.35120  0.15780  0.63490  Biso   1.000  H
  H320     1.0000 0.14880  0.65780  0.86510  Biso   1.000  H
  C169     1.0000 0.65200  0.93500  0.42440  Biso   1.000  C
  C170     1.0000 0.84800  0.43500  0.07560  Biso   1.000  C
  C171     1.0000 0.34800  0.06500  0.57560  Biso   1.000  C
  C172     1.0000 0.15200  0.56500  0.92440  Biso   1.000  C
  H321     1.0000 0.64760  0.93890  0.46860  Biso   1.000  H
  H322     1.0000 0.85240  0.43890  0.03140  Biso   1.000  H
  H323     1.0000 0.35240  0.06110  0.53140  Biso   1.000  H
  H324     1.0000 0.14760  0.56110  0.96860  Biso   1.000  H
  H325     1.0000 0.57630  0.97150  0.40580  Biso   1.000  H
  H326     1.0000 0.92370  0.47150  0.09420  Biso   1.000  H
  H327     1.0000 0.42370  0.02850  0.59420  Biso   1.000  H
  H328     1.0000 0.07630  0.52850  0.90580  Biso   1.000  H
  C173     1.0000 0.79500  0.96720  0.40700  Biso   1.000  C
  C174     1.0000 0.70500  0.46720  0.09300  Biso   1.000  C
  C175     1.0000 0.20500  0.03280  0.59300  Biso   1.000  C
  C176     1.0000 0.29500  0.53280  0.90700  Biso   1.000  C
  H329     1.0000 0.87200  0.93270  0.42700  Biso   1.000  H
  H330     1.0000 0.62800  0.43270  0.07300  Biso   1.000  H
  H331     1.0000 0.12800  0.06730  0.57300  Biso   1.000  H
  H332     1.0000 0.37200  0.56730  0.92700  Biso   1.000  H
  H333     1.0000 0.80210  0.96140  0.36300  Biso   1.000  H
  H334     1.0000 0.69790  0.46140  0.13700  Biso   1.000  H
  H335     1.0000 0.19790  0.03860  0.63700  Biso   1.000  H
  H336     1.0000 0.30210  0.53860  0.86300  Biso   1.000  H
  C177     1.0000 0.81600  0.05830  0.42460  Biso   1.000  C
  C178     1.0000 0.68400  0.55830  0.07540  Biso   1.000  C
  C179     1.0000 0.18400  0.94170  0.57540  Biso   1.000  C
  C180     1.0000 0.31600  0.44170  0.92460  Biso   1.000  C
  H337     1.0000 0.90880  0.07790  0.41230  Biso   1.000  H
  H338     1.0000 0.59120  0.57790  0.08770  Biso   1.000  H
  H339     1.0000 0.09120  0.92210  0.58770  Biso   1.000  H
  H340     1.0000 0.40880  0.42210  0.91230  Biso   1.000  H
  H341     1.0000 0.81210  0.06380  0.46830  Biso   1.000  H
  H342     1.0000 0.68790  0.56380  0.03170  Biso   1.000  H
  H343     1.0000 0.18790  0.93620  0.53170  Biso   1.000  H
  H344     1.0000 0.31210  0.43620  0.96830  Biso   1.000  H
  H345     1.0000 0.74020  0.09250  0.40460  Biso   1.000  H
  H346     1.0000 0.75980  0.59250  0.09540  Biso   1.000  H
  H347     1.0000 0.25980  0.90750  0.59540  Biso   1.000  H
  H348     1.0000 0.24020  0.40750  0.90460  Biso   1.000  H
  C181     1.0000 0.47070  0.82290  0.40470  Biso   1.000  C
  C182     1.0000 0.02930  0.32290  0.09530  Biso   1.000  C
  C183     1.0000 0.52930  0.17710  0.59530  Biso   1.000  C
  C184     1.0000 0.97070  0.67710  0.90470  Biso   1.000  C
  H349     1.0000 0.45740  0.76590  0.38690  Biso   1.000  H
  H350     1.0000 0.04260  0.26590  0.11310  Biso   1.000  H
  H351     1.0000 0.54260  0.23410  0.61310  Biso   1.000  H
  H352     1.0000 0.95740  0.73410  0.88690  Biso   1.000  H
  H353     1.0000 0.41690  0.86330  0.37810  Biso   1.000  H
  H354     1.0000 0.08310  0.36330  0.12190  Biso   1.000  H
  H355     1.0000 0.58310  0.13670  0.62190  Biso   1.000  H
  H356     1.0000 0.91690  0.63670  0.87810  Biso   1.000  H
  C185     1.0000 0.40700  0.82300  0.46490  Biso   1.000  C
  C186     1.0000 0.09300  0.32300  0.03510  Biso   1.000  C
  C187     1.0000 0.59300  0.17700  0.53510  Biso   1.000  C
  C188     1.0000 0.90700  0.67700  0.96490  Biso   1.000  C
  H357     1.0000 0.42610  0.87820  0.48520  Biso   1.000  H
  H358     1.0000 0.07390  0.37820  0.01480  Biso   1.000  H
  H359     1.0000 0.57390  0.12180  0.51480  Biso   1.000  H
  H360     1.0000 0.92610  0.62180  0.98520  Biso   1.000  H
  H361     1.0000 0.45000  0.77810  0.49060  Biso   1.000  H
  H362     1.0000 0.05000  0.27810  0.00940  Biso   1.000  H
  H363     1.0000 0.55000  0.22190  0.50940  Biso   1.000  H
  H364     1.0000 0.95000  0.72190  0.99060  Biso   1.000  H
  C189     1.0000 0.24700  0.81000  0.45670  Biso   1.000  C
  C190     1.0000 0.25300  0.31000  0.04330  Biso   1.000  C
  C191     1.0000 0.75300  0.19000  0.54330  Biso   1.000  C
  C192     1.0000 0.74700  0.69000  0.95670  Biso   1.000  C
  H365     1.0000 0.20690  0.80230  0.49610  Biso   1.000  H
  H366     1.0000 0.29310  0.30230  0.00390  Biso   1.000  H
  H367     1.0000 0.79310  0.19770  0.50390  Biso   1.000  H
  H368     1.0000 0.70690  0.69770  0.99610  Biso   1.000  H
  H369     1.0000 0.22740  0.75890  0.43220  Biso   1.000  H
  H370     1.0000 0.27260  0.25890  0.06780  Biso   1.000  H
  H371     1.0000 0.77260  0.24110  0.56780  Biso   1.000  H
  H372     1.0000 0.72740  0.74110  0.93220  Biso   1.000  H
  H373     1.0000 0.20220  0.85870  0.43640  Biso   1.000  H
  H374     1.0000 0.29780  0.35870  0.06360  Biso   1.000  H
  H375     1.0000 0.79780  0.14130  0.56360  Biso   1.000  H
  H376     1.0000 0.70220  0.64130  0.93640  Biso   1.000  H
  C193     1.0000 0.72100  0.78360  0.43820  Biso   1.000  C
  C194     1.0000 0.77900  0.28360  0.06180  Biso   1.000  C
  C195     1.0000 0.27900  0.21640  0.56180  Biso   1.000  C
  C196     1.0000 0.22100  0.71640  0.93820  Biso   1.000  C
  H377     1.0000 0.70490  0.78800  0.48160  Biso   1.000  H
  H378     1.0000 0.79510  0.28800  0.01840  Biso   1.000  H
  H379     1.0000 0.29510  0.21200  0.51840  Biso   1.000  H
  H380     1.0000 0.20490  0.71200  0.98160  Biso   1.000  H
  H381     1.0000 0.82100  0.80040  0.43280  Biso   1.000  H
  H382     1.0000 0.67900  0.30040  0.06720  Biso   1.000  H
  H383     1.0000 0.17900  0.19960  0.56720  Biso   1.000  H
  H384     1.0000 0.32100  0.69960  0.93280  Biso   1.000  H
  C197     1.0000 0.70300  0.69350  0.41970  Biso   1.000  C
  C198     1.0000 0.79700  0.19350  0.08030  Biso   1.000  C
  C199     1.0000 0.29700  0.30650  0.58030  Biso   1.000  C
  C200     1.0000 0.20300  0.80650  0.91970  Biso   1.000  C
  H385     1.0000 0.69090  0.69060  0.37530  Biso   1.000  H
  H386     1.0000 0.80910  0.19060  0.12470  Biso   1.000  H
  H387     1.0000 0.30910  0.30940  0.62470  Biso   1.000  H
  H388     1.0000 0.19090  0.80940  0.87530  Biso   1.000  H
  H389     1.0000 0.61520  0.67090  0.43620  Biso   1.000  H
  H390     1.0000 0.88480  0.17090  0.06380  Biso   1.000  H
  H391     1.0000 0.38480  0.32910  0.56380  Biso   1.000  H
  H392     1.0000 0.11520  0.82910  0.93620  Biso   1.000  H
  C201     1.0000 0.82700  0.63860  0.44060  Biso   1.000  C
  C202     1.0000 0.67300  0.13860  0.05940  Biso   1.000  C
  C203     1.0000 0.17300  0.36140  0.55940  Biso   1.000  C
  C204     1.0000 0.32700  0.86140  0.94060  Biso   1.000  C
  H393     1.0000 0.80870  0.58010  0.42800  Biso   1.000  H
  H394     1.0000 0.69130  0.08010  0.07200  Biso   1.000  H
  H395     1.0000 0.19130  0.41990  0.57200  Biso   1.000  H
  H396     1.0000 0.30870  0.91990  0.92800  Biso   1.000  H
  H397     1.0000 0.84040  0.64120  0.48450  Biso   1.000  H
  H398     1.0000 0.65960  0.14120  0.01550  Biso   1.000  H
  H399     1.0000 0.15960  0.35880  0.51550  Biso   1.000  H
  H400     1.0000 0.34040  0.85880  0.98450  Biso   1.000  H
  H401     1.0000 0.91410  0.65890  0.42270  Biso   1.000  H
  H402     1.0000 0.58590  0.15890  0.07730  Biso   1.000  H
  H403     1.0000 0.08590  0.34110  0.57730  Biso   1.000  H
  H404     1.0000 0.41410  0.84110  0.92270  Biso   1.000  H
  O61      1.0000 0.31130  0.68250  0.09408  Biso   1.000  O
  O62      1.0000 0.18870  0.18250  0.40592  Biso   1.000  O
  O63      1.0000 0.68870  0.31750  0.90592  Biso   1.000  O
  O64      1.0000 0.81130  0.81750  0.59408  Biso   1.000  O
  O65      1.0000 0.14000  0.52730  0.08690  Biso   1.000  O
  O66      1.0000 0.36000  0.02730  0.41310  Biso   1.000  O
  O67      1.0000 0.86000  0.47270  0.91310  Biso   1.000  O
  O68      1.0000 0.64000  0.97270  0.58690  Biso   1.000  O
