data_image0
_cell_length_a       9.3909
_cell_length_b       15.8784
_cell_length_c       22.3876
_cell_angle_alpha    90
_cell_angle_beta     93.2243
_cell_angle_gamma    90

_symmetry_space_group_name_H-M    "P 1"
_symmetry_int_tables_number       1

loop_
  _symmetry_equiv_pos_as_xyz
  'x, y, z'

loop_
  _atom_site_label
  _atom_site_occupancy
  _atom_site_fract_x
  _atom_site_fract_y
  _atom_site_fract_z
  _atom_site_thermal_displace_type
  _atom_site_B_iso_or_equiv
  _atom_site_type_symbol
  Cu1      1.0000 0.55265  0.66240  0.24516  Biso   1.000  Cu
  Cu2      1.0000 0.94735  0.16240  0.25484  Biso   1.000  Cu
  Cu3      1.0000 0.44735  0.33760  0.75484  Biso   1.000  Cu
  Cu4      1.0000 0.05265  0.83760  0.74516  Biso   1.000  Cu
  Cu5      1.0000 0.05499  0.50336  0.24831  Biso   1.000  Cu
  Cu6      1.0000 0.44501  0.00336  0.25169  Biso   1.000  Cu
  Cu7      1.0000 0.94501  0.49664  0.75169  Biso   1.000  Cu
  Cu8      1.0000 0.55499  0.99664  0.74831  Biso   1.000  Cu
  O1       1.0000 0.42960  0.56060  0.19090  Biso   1.000  O
  O2       1.0000 0.07040  0.06060  0.30910  Biso   1.000  O
  O3       1.0000 0.57040  0.43940  0.80910  Biso   1.000  O
  O4       1.0000 0.92960  0.93940  0.69090  Biso   1.000  O
  O5       1.0000 0.38400  0.64678  0.29410  Biso   1.000  O
  O6       1.0000 0.11600  0.14678  0.20590  Biso   1.000  O
  O7       1.0000 0.61600  0.35322  0.70590  Biso   1.000  O
  O8       1.0000 0.88400  0.85322  0.79410  Biso   1.000  O
  O9       1.0000 0.21980  0.49777  0.19808  Biso   1.000  O
  O10      1.0000 0.28020  0.99777  0.30192  Biso   1.000  O
  O11      1.0000 0.78020  0.50223  0.80192  Biso   1.000  O
  O12      1.0000 0.71980  0.00223  0.69808  Biso   1.000  O
  O13      1.0000 0.17080  0.58607  0.29489  Biso   1.000  O
  O14      1.0000 0.32920  0.08607  0.20511  Biso   1.000  O
  O15      1.0000 0.82920  0.41393  0.70511  Biso   1.000  O
  O16      1.0000 0.67080  0.91393  0.79489  Biso   1.000  O
  O17      1.0000 0.45330  0.75194  0.19795  Biso   1.000  O
  O18      1.0000 0.04670  0.25194  0.30205  Biso   1.000  O
  O19      1.0000 0.54670  0.24806  0.80205  Biso   1.000  O
  O20      1.0000 0.95330  0.74806  0.69795  Biso   1.000  O
  O21      1.0000 0.61320  0.78115  0.30094  Biso   1.000  O
  O22      1.0000 0.88680  0.28115  0.19906  Biso   1.000  O
  O23      1.0000 0.38680  0.21885  0.69906  Biso   1.000  O
  O24      1.0000 0.11320  0.71885  0.80094  Biso   1.000  O
  O25      1.0000 0.39090  0.88688  0.19512  Biso   1.000  O
  O26      1.0000 0.10910  0.38688  0.30488  Biso   1.000  O
  O27      1.0000 0.60910  0.11312  0.80488  Biso   1.000  O
  O28      1.0000 0.89090  0.61312  0.69512  Biso   1.000  O
  O29      1.0000 0.54590  0.91465  0.29913  Biso   1.000  O
  O30      1.0000 0.95410  0.41465  0.20087  Biso   1.000  O
  O31      1.0000 0.45410  0.08535  0.70087  Biso   1.000  O
  O32      1.0000 0.04590  0.58535  0.79913  Biso   1.000  O
  O33      1.0000 0.72050  0.66777  0.19623  Biso   1.000  O
  O34      1.0000 0.77950  0.16777  0.30377  Biso   1.000  O
  O35      1.0000 0.27950  0.33223  0.80377  Biso   1.000  O
  O36      1.0000 0.22050  0.83223  0.69623  Biso   1.000  O
  O37      1.0000 0.66820  0.58000  0.29269  Biso   1.000  O
  O38      1.0000 0.83180  0.08000  0.20731  Biso   1.000  O
  O39      1.0000 0.33180  0.42000  0.70731  Biso   1.000  O
  O40      1.0000 0.16820  0.92000  0.79269  Biso   1.000  O
  O41      1.0000 0.93130  0.60526  0.19011  Biso   1.000  O
  O42      1.0000 0.56870  0.10526  0.30989  Biso   1.000  O
  O43      1.0000 0.06870  0.39474  0.80989  Biso   1.000  O
  O44      1.0000 0.43130  0.89474  0.69011  Biso   1.000  O
  O45      1.0000 0.88220  0.52145  0.29434  Biso   1.000  O
  O46      1.0000 0.61780  0.02145  0.20566  Biso   1.000  O
  O47      1.0000 0.11780  0.47855  0.70566  Biso   1.000  O
  O48      1.0000 0.38220  0.97855  0.79434  Biso   1.000  O
  C1       1.0000 0.31760  0.54841  0.21540  Biso   1.000  C
  C2       1.0000 0.18240  0.04841  0.28460  Biso   1.000  C
  C3       1.0000 0.68240  0.45159  0.78460  Biso   1.000  C
  C4       1.0000 0.81760  0.95159  0.71540  Biso   1.000  C
  C5       1.0000 0.28920  0.59864  0.27284  Biso   1.000  C
  C6       1.0000 0.21080  0.09864  0.22716  Biso   1.000  C
  C7       1.0000 0.71080  0.40136  0.72716  Biso   1.000  C
  C8       1.0000 0.78920  0.90136  0.77284  Biso   1.000  C
  C9       1.0000 0.45590  0.82607  0.21826  Biso   1.000  C
  C10      1.0000 0.04410  0.32607  0.28174  Biso   1.000  C
  C11      1.0000 0.54410  0.17393  0.78174  Biso   1.000  C
  C12      1.0000 0.95590  0.67393  0.71826  Biso   1.000  C
  C13      1.0000 0.54600  0.84145  0.27757  Biso   1.000  C
  C14      1.0000 0.95400  0.34145  0.22243  Biso   1.000  C
  C15      1.0000 0.45400  0.15855  0.72243  Biso   1.000  C
  C16      1.0000 0.04600  0.65855  0.77757  Biso   1.000  C
  C17      1.0000 0.81720  0.61743  0.21382  Biso   1.000  C
  C18      1.0000 0.68280  0.11743  0.28618  Biso   1.000  C
  C19      1.0000 0.18280  0.38257  0.78618  Biso   1.000  C
  C20      1.0000 0.31720  0.88257  0.71382  Biso   1.000  C
  C21      1.0000 0.78800  0.56855  0.27163  Biso   1.000  C
  C22      1.0000 0.71200  0.06855  0.22837  Biso   1.000  C
  C23      1.0000 0.21200  0.43145  0.72837  Biso   1.000  C
  C24      1.0000 0.28800  0.93145  0.77163  Biso   1.000  C
  N1       1.0000 0.95460  0.87410  0.14470  Biso   1.000  N
  N2       1.0000 0.54540  0.37410  0.35530  Biso   1.000  N
  N3       1.0000 0.04540  0.12590  0.85530  Biso   1.000  N
  N4       1.0000 0.45460  0.62590  0.64470  Biso   1.000  N
  H1       1.0000 0.98290  0.82280  0.12910  Biso   1.000  H
  H2       1.0000 0.51710  0.32280  0.37090  Biso   1.000  H
  H3       1.0000 0.01710  0.17720  0.87090  Biso   1.000  H
  H4       1.0000 0.48290  0.67720  0.62910  Biso   1.000  H
  C25      1.0000 0.81400  0.89870  0.11250  Biso   1.000  C
  C26      1.0000 0.68600  0.39870  0.38750  Biso   1.000  C
  C27      1.0000 0.18600  0.10130  0.88750  Biso   1.000  C
  C28      1.0000 0.31400  0.60130  0.61250  Biso   1.000  C
  H5       1.0000 0.76800  0.94250  0.13620  Biso   1.000  H
  H6       1.0000 0.73200  0.44250  0.36380  Biso   1.000  H
  H7       1.0000 0.23200  0.05750  0.86380  Biso   1.000  H
  H8       1.0000 0.26800  0.55750  0.63620  Biso   1.000  H
  H9       1.0000 0.83410  0.92380  0.07340  Biso   1.000  H
  H10      1.0000 0.66590  0.42380  0.42660  Biso   1.000  H
  H11      1.0000 0.16590  0.07620  0.92660  Biso   1.000  H
  H12      1.0000 0.33410  0.57620  0.57340  Biso   1.000  H
  C29      1.0000 0.71300  0.82830  0.10220  Biso   1.000  C
  C30      1.0000 0.78700  0.32830  0.39780  Biso   1.000  C
  C31      1.0000 0.28700  0.17170  0.89780  Biso   1.000  C
  C32      1.0000 0.21300  0.67170  0.60220  Biso   1.000  C
  H13      1.0000 0.68890  0.80460  0.14130  Biso   1.000  H
  H14      1.0000 0.81110  0.30460  0.35870  Biso   1.000  H
  H15      1.0000 0.31110  0.19540  0.85870  Biso   1.000  H
  H16      1.0000 0.18890  0.69540  0.64130  Biso   1.000  H
  H17      1.0000 0.75950  0.78340  0.07960  Biso   1.000  H
  H18      1.0000 0.74050  0.28340  0.42040  Biso   1.000  H
  H19      1.0000 0.24050  0.21660  0.92040  Biso   1.000  H
  H20      1.0000 0.25950  0.71660  0.57960  Biso   1.000  H
  C33      1.0000 0.57930  0.85480  0.06850  Biso   1.000  C
  C34      1.0000 0.92070  0.35480  0.43150  Biso   1.000  C
  C35      1.0000 0.42070  0.14520  0.93150  Biso   1.000  C
  C36      1.0000 0.07930  0.64520  0.56850  Biso   1.000  C
  H21      1.0000 0.51520  0.80640  0.06320  Biso   1.000  H
  H22      1.0000 0.98480  0.30640  0.43680  Biso   1.000  H
  H23      1.0000 0.48480  0.19360  0.93680  Biso   1.000  H
  H24      1.0000 0.01520  0.69360  0.56320  Biso   1.000  H
  H25      1.0000 0.60220  0.87650  0.02910  Biso   1.000  H
  H26      1.0000 0.89780  0.37650  0.47090  Biso   1.000  H
  H27      1.0000 0.39780  0.12350  0.97090  Biso   1.000  H
  H28      1.0000 0.10220  0.62350  0.52910  Biso   1.000  H
  H29      1.0000 0.53250  0.89910  0.09080  Biso   1.000  H
  H30      1.0000 0.96750  0.39910  0.40920  Biso   1.000  H
  H31      1.0000 0.46750  0.10090  0.90920  Biso   1.000  H
  H32      1.0000 0.03250  0.60090  0.59080  Biso   1.000  H
  C37      1.0000 0.07000  0.93700  0.13520  Biso   1.000  C
  C38      1.0000 0.43000  0.43700  0.36480  Biso   1.000  C
  C39      1.0000 0.93000  0.06300  0.86480  Biso   1.000  C
  C40      1.0000 0.57000  0.56300  0.63520  Biso   1.000  C
  H33      1.0000 0.03050  0.99430  0.13930  Biso   1.000  H
  H34      1.0000 0.46950  0.49430  0.36070  Biso   1.000  H
  H35      1.0000 0.96950  0.00570  0.86070  Biso   1.000  H
  H36      1.0000 0.53050  0.50570  0.63930  Biso   1.000  H
  H37      1.0000 0.14670  0.92960  0.16690  Biso   1.000  H
  H38      1.0000 0.35330  0.42960  0.33310  Biso   1.000  H
  H39      1.0000 0.85330  0.07040  0.83310  Biso   1.000  H
  H40      1.0000 0.64670  0.57040  0.66690  Biso   1.000  H
  C41      1.0000 0.13350  0.93030  0.07580  Biso   1.000  C
  C42      1.0000 0.36650  0.43030  0.42420  Biso   1.000  C
  C43      1.0000 0.86650  0.06970  0.92420  Biso   1.000  C
  C44      1.0000 0.63350  0.56970  0.57580  Biso   1.000  C
  H41      1.0000 0.05570  0.92920  0.04410  Biso   1.000  H
  H42      1.0000 0.44430  0.42920  0.45590  Biso   1.000  H
  H43      1.0000 0.94430  0.07080  0.95590  Biso   1.000  H
  H44      1.0000 0.55570  0.57080  0.54410  Biso   1.000  H
  H45      1.0000 0.18630  0.87650  0.07400  Biso   1.000  H
  H46      1.0000 0.31370  0.37650  0.42600  Biso   1.000  H
  H47      1.0000 0.81370  0.12350  0.92600  Biso   1.000  H
  H48      1.0000 0.68630  0.62350  0.57400  Biso   1.000  H
  C45      1.0000 0.23280  0.00160  0.06390  Biso   1.000  C
  C46      1.0000 0.26720  0.50160  0.43610  Biso   1.000  C
  C47      1.0000 0.76720  0.99840  0.93610  Biso   1.000  C
  C48      1.0000 0.73280  0.49840  0.56390  Biso   1.000  C
  H49      1.0000 0.25920  0.99920  0.02220  Biso   1.000  H
  H50      1.0000 0.24080  0.49920  0.47780  Biso   1.000  H
  H51      1.0000 0.74080  0.00080  0.97780  Biso   1.000  H
  H52      1.0000 0.75920  0.50080  0.52220  Biso   1.000  H
  H53      1.0000 0.31890  0.99690  0.09050  Biso   1.000  H
  H54      1.0000 0.18110  0.49690  0.40950  Biso   1.000  H
  H55      1.0000 0.68110  0.00310  0.90950  Biso   1.000  H
  H56      1.0000 0.81890  0.50310  0.59050  Biso   1.000  H
  H57      1.0000 0.18530  0.05530  0.07110  Biso   1.000  H
  H58      1.0000 0.31470  0.55530  0.42890  Biso   1.000  H
  H59      1.0000 0.81470  0.94470  0.92890  Biso   1.000  H
  H60      1.0000 0.68530  0.44470  0.57110  Biso   1.000  H
  C49      1.0000 0.93400  0.86170  0.21080  Biso   1.000  C
  C50      1.0000 0.56600  0.36170  0.28920  Biso   1.000  C
  C51      1.0000 0.06600  0.13830  0.78920  Biso   1.000  C
  C52      1.0000 0.43400  0.63830  0.71080  Biso   1.000  C
  H61      1.0000 0.92650  0.91760  0.22990  Biso   1.000  H
  H62      1.0000 0.57350  0.41760  0.27010  Biso   1.000  H
  H63      1.0000 0.07350  0.08240  0.77010  Biso   1.000  H
  H64      1.0000 0.42650  0.58240  0.72990  Biso   1.000  H
  H65      1.0000 0.84290  0.83160  0.21540  Biso   1.000  H
  H66      1.0000 0.65710  0.33160  0.28460  Biso   1.000  H
  H67      1.0000 0.15710  0.16840  0.78460  Biso   1.000  H
  H68      1.0000 0.34290  0.66840  0.71540  Biso   1.000  H
  C53      1.0000 0.04870  0.81460  0.24180  Biso   1.000  C
  C54      1.0000 0.45130  0.31460  0.25820  Biso   1.000  C
  C55      1.0000 0.95130  0.18540  0.75820  Biso   1.000  C
  C56      1.0000 0.54870  0.68540  0.74180  Biso   1.000  C
  H69      1.0000 0.14070  0.84130  0.23330  Biso   1.000  H
  H70      1.0000 0.35930  0.34130  0.26670  Biso   1.000  H
  H71      1.0000 0.85930  0.15870  0.76670  Biso   1.000  H
  H72      1.0000 0.64070  0.65870  0.73330  Biso   1.000  H
  H73      1.0000 0.04930  0.75680  0.22530  Biso   1.000  H
  H74      1.0000 0.45070  0.25680  0.27470  Biso   1.000  H
  H75      1.0000 0.95070  0.24320  0.77470  Biso   1.000  H
  H76      1.0000 0.54930  0.74320  0.72530  Biso   1.000  H
  C57      1.0000 0.03900  0.80910  0.30750  Biso   1.000  C
  C58      1.0000 0.46100  0.30910  0.19250  Biso   1.000  C
  C59      1.0000 0.96100  0.19090  0.69250  Biso   1.000  C
  C60      1.0000 0.53900  0.69090  0.80750  Biso   1.000  C
  H77      1.0000 0.11860  0.77490  0.32460  Biso   1.000  H
  H78      1.0000 0.38140  0.27490  0.17540  Biso   1.000  H
  H79      1.0000 0.88140  0.22510  0.67540  Biso   1.000  H
  H80      1.0000 0.61860  0.72510  0.82460  Biso   1.000  H
  H81      1.0000 0.94870  0.78290  0.31670  Biso   1.000  H
  H82      1.0000 0.55130  0.28290  0.18330  Biso   1.000  H
  H83      1.0000 0.05130  0.21710  0.68330  Biso   1.000  H
  H84      1.0000 0.44870  0.71710  0.81670  Biso   1.000  H
  H85      1.0000 0.04480  0.86580  0.32480  Biso   1.000  H
  H86      1.0000 0.45520  0.36580  0.17520  Biso   1.000  H
  H87      1.0000 0.95520  0.13420  0.67520  Biso   1.000  H
  H88      1.0000 0.54480  0.63420  0.82480  Biso   1.000  H
  O49      1.0000 0.02370  0.71320  0.10333  Biso   1.000  O
  O50      1.0000 0.47630  0.21320  0.39667  Biso   1.000  O
  O51      1.0000 0.97630  0.28680  0.89667  Biso   1.000  O
  O52      1.0000 0.52370  0.78680  0.60333  Biso   1.000  O
  O53      1.0000 0.22680  0.73980  0.11040  Biso   1.000  O
  O54      1.0000 0.27320  0.23980  0.38960  Biso   1.000  O
  O55      1.0000 0.77320  0.26020  0.88960  Biso   1.000  O
  O56      1.0000 0.72680  0.76020  0.61040  Biso   1.000  O
  O57      1.0000 0.10410  0.57920  0.09030  Biso   1.000  O
  O58      1.0000 0.39590  0.07920  0.40970  Biso   1.000  O
  O59      1.0000 0.89590  0.42080  0.90970  Biso   1.000  O
  O60      1.0000 0.60410  0.92080  0.59030  Biso   1.000  O
  N5       1.0000 0.66420  0.81330  0.42270  Biso   1.000  N
  N6       1.0000 0.83580  0.31330  0.07730  Biso   1.000  N
  N7       1.0000 0.33580  0.18670  0.57730  Biso   1.000  N
  N8       1.0000 0.16420  0.68670  0.92270  Biso   1.000  N
  H89      1.0000 0.65400  0.81200  0.38110  Biso   1.000  H
  H90      1.0000 0.84600  0.31200  0.11890  Biso   1.000  H
  H91      1.0000 0.34600  0.18800  0.61890  Biso   1.000  H
  H92      1.0000 0.15400  0.68800  0.88110  Biso   1.000  H
  C61      1.0000 0.68970  0.90370  0.44110  Biso   1.000  C
  C62      1.0000 0.81030  0.40370  0.05890  Biso   1.000  C
  C63      1.0000 0.31030  0.09630  0.55890  Biso   1.000  C
  C64      1.0000 0.18970  0.59630  0.94110  Biso   1.000  C
  H93      1.0000 0.60170  0.93650  0.43150  Biso   1.000  H
  H94      1.0000 0.89830  0.43650  0.06850  Biso   1.000  H
  H95      1.0000 0.39830  0.06350  0.56850  Biso   1.000  H
  H96      1.0000 0.10170  0.56350  0.93150  Biso   1.000  H
  H97      1.0000 0.70940  0.90590  0.48500  Biso   1.000  H
  H98      1.0000 0.79060  0.40590  0.01500  Biso   1.000  H
  H99      1.0000 0.29060  0.09410  0.51500  Biso   1.000  H
  H100     1.0000 0.20940  0.59410  0.98500  Biso   1.000  H
  C65      1.0000 0.81100  0.94400  0.41140  Biso   1.000  C
  C66      1.0000 0.68900  0.44400  0.08860  Biso   1.000  C
  C67      1.0000 0.18900  0.05600  0.58860  Biso   1.000  C
  C68      1.0000 0.31100  0.55600  0.91140  Biso   1.000  C
  H101     1.0000 0.79250  0.94110  0.36740  Biso   1.000  H
  H102     1.0000 0.70750  0.44110  0.13260  Biso   1.000  H
  H103     1.0000 0.20750  0.05890  0.63260  Biso   1.000  H
  H104     1.0000 0.29250  0.55890  0.86740  Biso   1.000  H
  H105     1.0000 0.89960  0.91270  0.42190  Biso   1.000  H
  H106     1.0000 0.60040  0.41270  0.07810  Biso   1.000  H
  H107     1.0000 0.10040  0.08730  0.57810  Biso   1.000  H
  H108     1.0000 0.39960  0.58730  0.92190  Biso   1.000  H
  C69      1.0000 0.82900  0.03510  0.43010  Biso   1.000  C
  C70      1.0000 0.67100  0.53510  0.06990  Biso   1.000  C
  C71      1.0000 0.17100  0.96490  0.56990  Biso   1.000  C
  C72      1.0000 0.32900  0.46490  0.93010  Biso   1.000  C
  H109     1.0000 0.91260  0.05880  0.41160  Biso   1.000  H
  H110     1.0000 0.58740  0.55880  0.08840  Biso   1.000  H
  H111     1.0000 0.08740  0.94120  0.58840  Biso   1.000  H
  H112     1.0000 0.41260  0.44120  0.91160  Biso   1.000  H
  H113     1.0000 0.84360  0.03830  0.47370  Biso   1.000  H
  H114     1.0000 0.65640  0.53830  0.02630  Biso   1.000  H
  H115     1.0000 0.15640  0.96170  0.52630  Biso   1.000  H
  H116     1.0000 0.34360  0.46170  0.97370  Biso   1.000  H
  H117     1.0000 0.74400  0.06710  0.41710  Biso   1.000  H
  H118     1.0000 0.75600  0.56710  0.08290  Biso   1.000  H
  H119     1.0000 0.25600  0.93290  0.58290  Biso   1.000  H
  H120     1.0000 0.24400  0.43290  0.91710  Biso   1.000  H
  C73      1.0000 0.52920  0.78000  0.44620  Biso   1.000  C
  C74      1.0000 0.97080  0.28000  0.05380  Biso   1.000  C
  C75      1.0000 0.47080  0.22000  0.55380  Biso   1.000  C
  C76      1.0000 0.02920  0.72000  0.94620  Biso   1.000  C
  H121     1.0000 0.51860  0.72050  0.43350  Biso   1.000  H
  H122     1.0000 0.98140  0.22050  0.06650  Biso   1.000  H
  H123     1.0000 0.48140  0.27950  0.56650  Biso   1.000  H
  H124     1.0000 0.01860  0.77950  0.93350  Biso   1.000  H
  H125     1.0000 0.53990  0.78030  0.49040  Biso   1.000  H
  H126     1.0000 0.96010  0.28030  0.00960  Biso   1.000  H
  H127     1.0000 0.46010  0.21970  0.50960  Biso   1.000  H
  H128     1.0000 0.03990  0.71970  0.99040  Biso   1.000  H
  C77      1.0000 0.39580  0.82450  0.42810  Biso   1.000  C
  C78      1.0000 0.10420  0.32450  0.07190  Biso   1.000  C
  C79      1.0000 0.60420  0.17550  0.57190  Biso   1.000  C
  C80      1.0000 0.89580  0.67550  0.92810  Biso   1.000  C
  H129     1.0000 0.38760  0.82880  0.38400  Biso   1.000  H
  H130     1.0000 0.11240  0.32880  0.11600  Biso   1.000  H
  H131     1.0000 0.61240  0.17120  0.61600  Biso   1.000  H
  H132     1.0000 0.88760  0.67120  0.88400  Biso   1.000  H
  H133     1.0000 0.40050  0.88240  0.44450  Biso   1.000  H
  H134     1.0000 0.09950  0.38240  0.05550  Biso   1.000  H
  H135     1.0000 0.59950  0.11760  0.55550  Biso   1.000  H
  H136     1.0000 0.90050  0.61760  0.94450  Biso   1.000  H
  C81      1.0000 0.26500  0.78190  0.44900  Biso   1.000  C
  C82      1.0000 0.23500  0.28190  0.05100  Biso   1.000  C
  C83      1.0000 0.73500  0.21810  0.55100  Biso   1.000  C
  C84      1.0000 0.76500  0.71810  0.94900  Biso   1.000  C
  H137     1.0000 0.18070  0.81570  0.43740  Biso   1.000  H
  H138     1.0000 0.31930  0.31570  0.06260  Biso   1.000  H
  H139     1.0000 0.81930  0.18430  0.56260  Biso   1.000  H
  H140     1.0000 0.68070  0.68430  0.93740  Biso   1.000  H
  H141     1.0000 0.27320  0.77610  0.49270  Biso   1.000  H
  H142     1.0000 0.22680  0.27610  0.00730  Biso   1.000  H
  H143     1.0000 0.72680  0.22390  0.50730  Biso   1.000  H
  H144     1.0000 0.77320  0.72390  0.99270  Biso   1.000  H
  H145     1.0000 0.25570  0.72600  0.43070  Biso   1.000  H
  H146     1.0000 0.24430  0.22600  0.06930  Biso   1.000  H
  H147     1.0000 0.74430  0.27400  0.56930  Biso   1.000  H
  H148     1.0000 0.75570  0.77400  0.93070  Biso   1.000  H
  C85      1.0000 0.78910  0.75790  0.44150  Biso   1.000  C
  C86      1.0000 0.71090  0.25790  0.05850  Biso   1.000  C
  C87      1.0000 0.21090  0.24210  0.55850  Biso   1.000  C
  C88      1.0000 0.28910  0.74210  0.94150  Biso   1.000  C
  H149     1.0000 0.87700  0.78440  0.42780  Biso   1.000  H
  H150     1.0000 0.62300  0.28440  0.07220  Biso   1.000  H
  H151     1.0000 0.12300  0.21560  0.57220  Biso   1.000  H
  H152     1.0000 0.37700  0.71560  0.92780  Biso   1.000  H
  H153     1.0000 0.79760  0.75600  0.48570  Biso   1.000  H
  H154     1.0000 0.70240  0.25600  0.01430  Biso   1.000  H
  H155     1.0000 0.20240  0.24400  0.51430  Biso   1.000  H
  H156     1.0000 0.29760  0.74400  0.98570  Biso   1.000  H
  C89      1.0000 0.78200  0.67070  0.41870  Biso   1.000  C
  C90      1.0000 0.71800  0.17070  0.08130  Biso   1.000  C
  C91      1.0000 0.21800  0.32930  0.58130  Biso   1.000  C
  C92      1.0000 0.28200  0.82930  0.91870  Biso   1.000  C
  H157     1.0000 0.75980  0.67280  0.37500  Biso   1.000  H
  H158     1.0000 0.74020  0.17280  0.12500  Biso   1.000  H
  H159     1.0000 0.24020  0.32720  0.62500  Biso   1.000  H
  H160     1.0000 0.25980  0.82720  0.87500  Biso   1.000  H
  H161     1.0000 0.70140  0.64200  0.43690  Biso   1.000  H
  H162     1.0000 0.79860  0.14200  0.06310  Biso   1.000  H
  H163     1.0000 0.29860  0.35800  0.56310  Biso   1.000  H
  H164     1.0000 0.20140  0.85800  0.93690  Biso   1.000  H
  C93      1.0000 0.91170  0.61850  0.43000  Biso   1.000  C
  C94      1.0000 0.58830  0.11850  0.07000  Biso   1.000  C
  C95      1.0000 0.08830  0.38150  0.57000  Biso   1.000  C
  C96      1.0000 0.41170  0.88150  0.93000  Biso   1.000  C
  H165     1.0000 0.89320  0.56120  0.41520  Biso   1.000  H
  H166     1.0000 0.60680  0.06120  0.08480  Biso   1.000  H
  H167     1.0000 0.10680  0.43880  0.58480  Biso   1.000  H
  H168     1.0000 0.39320  0.93880  0.91520  Biso   1.000  H
  H169     1.0000 0.93680  0.61670  0.47300  Biso   1.000  H
  H170     1.0000 0.56320  0.11670  0.02700  Biso   1.000  H
  H171     1.0000 0.06320  0.38330  0.52700  Biso   1.000  H
  H172     1.0000 0.43680  0.88330  0.97300  Biso   1.000  H
  H173     1.0000 0.99070  0.64310  0.40910  Biso   1.000  H
  H174     1.0000 0.50930  0.14310  0.09090  Biso   1.000  H
  H175     1.0000 0.00930  0.35690  0.59090  Biso   1.000  H
  H176     1.0000 0.49070  0.85690  0.90910  Biso   1.000  H
  N9       1.0000 0.01670  0.85170  0.15010  Biso   1.000  N
  N10      1.0000 0.48330  0.35170  0.34990  Biso   1.000  N
  N11      1.0000 0.98330  0.14830  0.84990  Biso   1.000  N
  N12      1.0000 0.51670  0.64830  0.65010  Biso   1.000  N
  H177     1.0000 0.09430  0.81730  0.14340  Biso   1.000  H
  H178     1.0000 0.40570  0.31730  0.35660  Biso   1.000  H
  H179     1.0000 0.90570  0.18270  0.85660  Biso   1.000  H
  H180     1.0000 0.59430  0.68270  0.64340  Biso   1.000  H
  C97      1.0000 0.89320  0.82030  0.11210  Biso   1.000  C
  C98      1.0000 0.60680  0.32030  0.38790  Biso   1.000  C
  C99      1.0000 0.10680  0.17970  0.88790  Biso   1.000  C
  C100     1.0000 0.39320  0.67970  0.61210  Biso   1.000  C
  H181     1.0000 0.87810  0.76010  0.12130  Biso   1.000  H
  H182     1.0000 0.62190  0.26010  0.37870  Biso   1.000  H
  H183     1.0000 0.12190  0.23990  0.87870  Biso   1.000  H
  H184     1.0000 0.37810  0.73990  0.62130  Biso   1.000  H
  H185     1.0000 0.91660  0.82410  0.06960  Biso   1.000  H
  H186     1.0000 0.58340  0.32410  0.43040  Biso   1.000  H
  H187     1.0000 0.08340  0.17590  0.93040  Biso   1.000  H
  H188     1.0000 0.41660  0.67590  0.56960  Biso   1.000  H
  C101     1.0000 0.75760  0.86700  0.12000  Biso   1.000  C
  C102     1.0000 0.74240  0.36700  0.38000  Biso   1.000  C
  C103     1.0000 0.24240  0.13300  0.88000  Biso   1.000  C
  C104     1.0000 0.25760  0.63300  0.62000  Biso   1.000  C
  H189     1.0000 0.77140  0.92750  0.11150  Biso   1.000  H
  H190     1.0000 0.72860  0.42750  0.38850  Biso   1.000  H
  H191     1.0000 0.22860  0.07250  0.88850  Biso   1.000  H
  H192     1.0000 0.27140  0.57250  0.61150  Biso   1.000  H
  H193     1.0000 0.73030  0.86140  0.16190  Biso   1.000  H
  H194     1.0000 0.76970  0.36140  0.33810  Biso   1.000  H
  H195     1.0000 0.26970  0.13860  0.83810  Biso   1.000  H
  H196     1.0000 0.23030  0.63860  0.66190  Biso   1.000  H
  C105     1.0000 0.63930  0.83150  0.07770  Biso   1.000  C
  C106     1.0000 0.86070  0.33150  0.42230  Biso   1.000  C
  C107     1.0000 0.36070  0.16850  0.92230  Biso   1.000  C
  C108     1.0000 0.13930  0.66850  0.57770  Biso   1.000  C
  H197     1.0000 0.55170  0.86410  0.08170  Biso   1.000  H
  H198     1.0000 0.94830  0.36410  0.41830  Biso   1.000  H
  H199     1.0000 0.44830  0.13590  0.91830  Biso   1.000  H
  H200     1.0000 0.05170  0.63590  0.58170  Biso   1.000  H
  H201     1.0000 0.62200  0.77250  0.08780  Biso   1.000  H
  H202     1.0000 0.87800  0.27250  0.41220  Biso   1.000  H
  H203     1.0000 0.37800  0.22750  0.91220  Biso   1.000  H
  H204     1.0000 0.12200  0.72750  0.58780  Biso   1.000  H
  H205     1.0000 0.66810  0.83520  0.03640  Biso   1.000  H
  H206     1.0000 0.83190  0.33520  0.46360  Biso   1.000  H
  H207     1.0000 0.33190  0.16480  0.96360  Biso   1.000  H
  H208     1.0000 0.16810  0.66480  0.53640  Biso   1.000  H
  C109     1.0000 0.05600  0.94060  0.13360  Biso   1.000  C
  C110     1.0000 0.44400  0.44060  0.36640  Biso   1.000  C
  C111     1.0000 0.94400  0.05940  0.86640  Biso   1.000  C
  C112     1.0000 0.55600  0.55940  0.63360  Biso   1.000  C
  H209     1.0000 0.97220  0.97730  0.13740  Biso   1.000  H
  H210     1.0000 0.52780  0.47730  0.36260  Biso   1.000  H
  H211     1.0000 0.02780  0.02270  0.86260  Biso   1.000  H
  H212     1.0000 0.47220  0.52270  0.63740  Biso   1.000  H
  H213     1.0000 0.13220  0.96070  0.16270  Biso   1.000  H
  H214     1.0000 0.36780  0.46070  0.33730  Biso   1.000  H
  H215     1.0000 0.86780  0.03930  0.83730  Biso   1.000  H
  H216     1.0000 0.63220  0.53930  0.66270  Biso   1.000  H
  C113     1.0000 0.10700  0.95010  0.07260  Biso   1.000  C
  C114     1.0000 0.39300  0.45010  0.42740  Biso   1.000  C
  C115     1.0000 0.89300  0.04990  0.92740  Biso   1.000  C
  C116     1.0000 0.60700  0.54990  0.57260  Biso   1.000  C
  H217     1.0000 0.02520  0.94370  0.04310  Biso   1.000  H
  H218     1.0000 0.47480  0.44370  0.45690  Biso   1.000  H
  H219     1.0000 0.97480  0.05630  0.95690  Biso   1.000  H
  H220     1.0000 0.52520  0.55630  0.54310  Biso   1.000  H
  H221     1.0000 0.17660  0.90510  0.06520  Biso   1.000  H
  H222     1.0000 0.32340  0.40510  0.43480  Biso   1.000  H
  H223     1.0000 0.82340  0.09490  0.93480  Biso   1.000  H
  H224     1.0000 0.67660  0.59490  0.56520  Biso   1.000  H
  C117     1.0000 0.17570  0.03490  0.06450  Biso   1.000  C
  C118     1.0000 0.32430  0.53490  0.43550  Biso   1.000  C
  C119     1.0000 0.82430  0.96510  0.93550  Biso   1.000  C
  C120     1.0000 0.67570  0.46510  0.56450  Biso   1.000  C
  H225     1.0000 0.22420  0.03530  0.02680  Biso   1.000  H
  H226     1.0000 0.27580  0.53530  0.47320  Biso   1.000  H
  H227     1.0000 0.77580  0.96470  0.97320  Biso   1.000  H
  H228     1.0000 0.72420  0.46470  0.52680  Biso   1.000  H
  H229     1.0000 0.24530  0.04550  0.09790  Biso   1.000  H
  H230     1.0000 0.25470  0.54550  0.40210  Biso   1.000  H
  H231     1.0000 0.75470  0.95450  0.90210  Biso   1.000  H
  H232     1.0000 0.74530  0.45450  0.59790  Biso   1.000  H
  H233     1.0000 0.10240  0.07880  0.06340  Biso   1.000  H
  H234     1.0000 0.39760  0.57880  0.43660  Biso   1.000  H
  H235     1.0000 0.89760  0.92120  0.93660  Biso   1.000  H
  H236     1.0000 0.60240  0.42120  0.56340  Biso   1.000  H
  C121     1.0000 0.99070  0.84770  0.21550  Biso   1.000  C
  C122     1.0000 0.50930  0.34770  0.28450  Biso   1.000  C
  C123     1.0000 0.00930  0.15230  0.78450  Biso   1.000  C
  C124     1.0000 0.49070  0.65230  0.71550  Biso   1.000  C
  H237     1.0000 0.99200  0.90600  0.23120  Biso   1.000  H
  H238     1.0000 0.50800  0.40600  0.26880  Biso   1.000  H
  H239     1.0000 0.00800  0.09400  0.76880  Biso   1.000  H
  H240     1.0000 0.49200  0.59400  0.73120  Biso   1.000  H
  H241     1.0000 0.89320  0.82550  0.21950  Biso   1.000  H
  H242     1.0000 0.60680  0.32550  0.28050  Biso   1.000  H
  H243     1.0000 0.10680  0.17450  0.78050  Biso   1.000  H
  H244     1.0000 0.39320  0.67450  0.71950  Biso   1.000  H
  C125     1.0000 0.08500  0.79950  0.25290  Biso   1.000  C
  C126     1.0000 0.41500  0.29950  0.24710  Biso   1.000  C
  C127     1.0000 0.91500  0.20050  0.74710  Biso   1.000  C
  C128     1.0000 0.58500  0.70050  0.75290  Biso   1.000  C
  H245     1.0000 0.17870  0.82780  0.25460  Biso   1.000  H
  H246     1.0000 0.32130  0.32780  0.24540  Biso   1.000  H
  H247     1.0000 0.82130  0.17220  0.74540  Biso   1.000  H
  H248     1.0000 0.67870  0.67220  0.75460  Biso   1.000  H
  H249     1.0000 0.09690  0.74420  0.23330  Biso   1.000  H
  H250     1.0000 0.40310  0.24420  0.26670  Biso   1.000  H
  H251     1.0000 0.90310  0.25580  0.76670  Biso   1.000  H
  H252     1.0000 0.59690  0.75580  0.73330  Biso   1.000  H
  C129     1.0000 0.04700  0.78350  0.31470  Biso   1.000  C
  C130     1.0000 0.45300  0.28350  0.18530  Biso   1.000  C
  C131     1.0000 0.95300  0.21650  0.68530  Biso   1.000  C
  C132     1.0000 0.54700  0.71650  0.81470  Biso   1.000  C
  H253     1.0000 0.13150  0.76430  0.33850  Biso   1.000  H
  H254     1.0000 0.36850  0.26430  0.16150  Biso   1.000  H
  H255     1.0000 0.86850  0.23570  0.66150  Biso   1.000  H
  H256     1.0000 0.63150  0.73570  0.83850  Biso   1.000  H
  H257     1.0000 0.97270  0.74010  0.31490  Biso   1.000  H
  H258     1.0000 0.52730  0.24010  0.18510  Biso   1.000  H
  H259     1.0000 0.02730  0.25990  0.68510  Biso   1.000  H
  H260     1.0000 0.47270  0.75990  0.81490  Biso   1.000  H
  H261     1.0000 0.01110  0.83560  0.33200  Biso   1.000  H
  H262     1.0000 0.48890  0.33560  0.16800  Biso   1.000  H
  H263     1.0000 0.98890  0.16440  0.66800  Biso   1.000  H
  H264     1.0000 0.51110  0.66440  0.83200  Biso   1.000  H
  N13      1.0000 0.67130  0.81940  0.42730  Biso   1.000  N
  N14      1.0000 0.82870  0.31940  0.07270  Biso   1.000  N
  N15      1.0000 0.32870  0.18060  0.57270  Biso   1.000  N
  N16      1.0000 0.17130  0.68060  0.92730  Biso   1.000  N
  H265     1.0000 0.66270  0.81640  0.38580  Biso   1.000  H
  H266     1.0000 0.83730  0.31640  0.11420  Biso   1.000  H
  H267     1.0000 0.33730  0.18360  0.61420  Biso   1.000  H
  H268     1.0000 0.16270  0.68360  0.88580  Biso   1.000  H
  C133     1.0000 0.79300  0.87800  0.44390  Biso   1.000  C
  C134     1.0000 0.70700  0.37800  0.05610  Biso   1.000  C
  C135     1.0000 0.20700  0.12200  0.55610  Biso   1.000  C
  C136     1.0000 0.29300  0.62200  0.94390  Biso   1.000  C
  H269     1.0000 0.80090  0.88320  0.48810  Biso   1.000  H
  H270     1.0000 0.69910  0.38320  0.01190  Biso   1.000  H
  H271     1.0000 0.19910  0.11680  0.51190  Biso   1.000  H
  H272     1.0000 0.30090  0.61680  0.98810  Biso   1.000  H
  H273     1.0000 0.88220  0.85160  0.43160  Biso   1.000  H
  H274     1.0000 0.61780  0.35160  0.06840  Biso   1.000  H
  H275     1.0000 0.11780  0.14840  0.56840  Biso   1.000  H
  H276     1.0000 0.38220  0.64840  0.93160  Biso   1.000  H
  C137     1.0000 0.78400  0.96330  0.41830  Biso   1.000  C
  C138     1.0000 0.71600  0.46330  0.08170  Biso   1.000  C
  C139     1.0000 0.21600  0.03670  0.58170  Biso   1.000  C
  C140     1.0000 0.28400  0.53670  0.91830  Biso   1.000  C
  H277     1.0000 0.69780  0.99170  0.43190  Biso   1.000  H
  H278     1.0000 0.80220  0.49170  0.06810  Biso   1.000  H
  H279     1.0000 0.30220  0.00830  0.56810  Biso   1.000  H
  H280     1.0000 0.19780  0.50830  0.93190  Biso   1.000  H
  H281     1.0000 0.77460  0.95930  0.37410  Biso   1.000  H
  H282     1.0000 0.72540  0.45930  0.12590  Biso   1.000  H
  H283     1.0000 0.22540  0.04070  0.62590  Biso   1.000  H
  H284     1.0000 0.27460  0.54070  0.87410  Biso   1.000  H
  C141     1.0000 0.91450  0.01580  0.43650  Biso   1.000  C
  C142     1.0000 0.58550  0.51580  0.06350  Biso   1.000  C
  C143     1.0000 0.08550  0.98420  0.56350  Biso   1.000  C
  C144     1.0000 0.41450  0.48420  0.93650  Biso   1.000  C
  C145     1.0000 0.53150  0.85190  0.44830  Biso   1.000  C
  C146     1.0000 0.96850  0.35190  0.05170  Biso   1.000  C
  C147     1.0000 0.46850  0.14810  0.55170  Biso   1.000  C
  C148     1.0000 0.03150  0.64810  0.94830  Biso   1.000  C
  H285     1.0000 0.54100  0.85940  0.49230  Biso   1.000  H
  H286     1.0000 0.95900  0.35940  0.00770  Biso   1.000  H
  H287     1.0000 0.45900  0.14060  0.50770  Biso   1.000  H
  H288     1.0000 0.04100  0.64060  0.99230  Biso   1.000  H
  H289     1.0000 0.51260  0.90800  0.43030  Biso   1.000  H
  H290     1.0000 0.98740  0.40800  0.06970  Biso   1.000  H
  H291     1.0000 0.48740  0.09200  0.56970  Biso   1.000  H
  H292     1.0000 0.01260  0.59200  0.93030  Biso   1.000  H
  C149     1.0000 0.40530  0.79590  0.43330  Biso   1.000  C
  C150     1.0000 0.09470  0.29590  0.06670  Biso   1.000  C
  C151     1.0000 0.59470  0.20410  0.56670  Biso   1.000  C
  C152     1.0000 0.90530  0.70410  0.93330  Biso   1.000  C
  H293     1.0000 0.39700  0.78590  0.38950  Biso   1.000  H
  H294     1.0000 0.10300  0.28590  0.11050  Biso   1.000  H
  H295     1.0000 0.60300  0.21410  0.61050  Biso   1.000  H
  H296     1.0000 0.89700  0.71410  0.88950  Biso   1.000  H
  H297     1.0000 0.41980  0.74080  0.45340  Biso   1.000  H
  H298     1.0000 0.08020  0.24080  0.04660  Biso   1.000  H
  H299     1.0000 0.58020  0.25920  0.54660  Biso   1.000  H
  H300     1.0000 0.91980  0.75920  0.95340  Biso   1.000  H
  C153     1.0000 0.27040  0.83500  0.45280  Biso   1.000  C
  C154     1.0000 0.22960  0.33500  0.04720  Biso   1.000  C
  C155     1.0000 0.72960  0.16500  0.54720  Biso   1.000  C
  C156     1.0000 0.77040  0.66500  0.95280  Biso   1.000  C
  C157     1.0000 0.70250  0.73180  0.45040  Biso   1.000  C
  C158     1.0000 0.79750  0.23180  0.04960  Biso   1.000  C
  C159     1.0000 0.29750  0.26820  0.54960  Biso   1.000  C
  C160     1.0000 0.20250  0.76820  0.95040  Biso   1.000  C
  H301     1.0000 0.71550  0.73420  0.49450  Biso   1.000  H
  H302     1.0000 0.78450  0.23420  0.00550  Biso   1.000  H
  H303     1.0000 0.28450  0.26580  0.50550  Biso   1.000  H
  H304     1.0000 0.21550  0.76580  0.99450  Biso   1.000  H
  H305     1.0000 0.61830  0.69590  0.44040  Biso   1.000  H
  H306     1.0000 0.88170  0.19590  0.05960  Biso   1.000  H
  H307     1.0000 0.38170  0.30410  0.55960  Biso   1.000  H
  H308     1.0000 0.11830  0.80410  0.94040  Biso   1.000  H
  C161     1.0000 0.83050  0.69070  0.42660  Biso   1.000  C
  C162     1.0000 0.66950  0.19070  0.07340  Biso   1.000  C
  C163     1.0000 0.16950  0.30930  0.57340  Biso   1.000  C
  C164     1.0000 0.33050  0.80930  0.92660  Biso   1.000  C
  H309     1.0000 0.91780  0.71780  0.44440  Biso   1.000  H
  H310     1.0000 0.58220  0.21780  0.05560  Biso   1.000  H
  H311     1.0000 0.08220  0.28220  0.55560  Biso   1.000  H
  H312     1.0000 0.41780  0.78220  0.94440  Biso   1.000  H
  H313     1.0000 0.82900  0.69870  0.38270  Biso   1.000  H
  H314     1.0000 0.67100  0.19870  0.11730  Biso   1.000  H
  H315     1.0000 0.17100  0.30130  0.61730  Biso   1.000  H
  H316     1.0000 0.32900  0.80130  0.88270  Biso   1.000  H
  C165     1.0000 0.83420  0.59700  0.44080  Biso   1.000  C
  C166     1.0000 0.66580  0.09700  0.05920  Biso   1.000  C
  C167     1.0000 0.16580  0.40300  0.55920  Biso   1.000  C
  C168     1.0000 0.33420  0.90300  0.94080  Biso   1.000  C
  N17      1.0000 0.63100  0.83800  0.40630  Biso   1.000  N
  N18      1.0000 0.86900  0.33800  0.09370  Biso   1.000  N
  N19      1.0000 0.36900  0.16200  0.59370  Biso   1.000  N
  N20      1.0000 0.13100  0.66200  0.90630  Biso   1.000  N
  H317     1.0000 0.65710  0.83510  0.36680  Biso   1.000  H
  H318     1.0000 0.84290  0.33510  0.13320  Biso   1.000  H
  H319     1.0000 0.34290  0.16490  0.63320  Biso   1.000  H
  H320     1.0000 0.15710  0.66490  0.86680  Biso   1.000  H
  C169     1.0000 0.65800  0.92770  0.42540  Biso   1.000  C
  C170     1.0000 0.84200  0.42770  0.07460  Biso   1.000  C
  C171     1.0000 0.34200  0.07230  0.57460  Biso   1.000  C
  C172     1.0000 0.15800  0.57230  0.92540  Biso   1.000  C
  H321     1.0000 0.58380  0.96380  0.40520  Biso   1.000  H
  H322     1.0000 0.91620  0.46380  0.09480  Biso   1.000  H
  H323     1.0000 0.41620  0.03620  0.59480  Biso   1.000  H
  H324     1.0000 0.08380  0.53620  0.90520  Biso   1.000  H
  H325     1.0000 0.64640  0.93180  0.46910  Biso   1.000  H
  H326     1.0000 0.85360  0.43180  0.03090  Biso   1.000  H
  H327     1.0000 0.35360  0.06820  0.53090  Biso   1.000  H
  H328     1.0000 0.14640  0.56820  0.96910  Biso   1.000  H
  C173     1.0000 0.80100  0.96100  0.41200  Biso   1.000  C
  C174     1.0000 0.69900  0.46100  0.08800  Biso   1.000  C
  C175     1.0000 0.19900  0.03900  0.58800  Biso   1.000  C
  C176     1.0000 0.30100  0.53900  0.91200  Biso   1.000  C
  H329     1.0000 0.81590  0.95200  0.36930  Biso   1.000  H
  H330     1.0000 0.68410  0.45200  0.13070  Biso   1.000  H
  H331     1.0000 0.18410  0.04800  0.63070  Biso   1.000  H
  H332     1.0000 0.31590  0.54800  0.86930  Biso   1.000  H
  H333     1.0000 0.87450  0.92850  0.43570  Biso   1.000  H
  H334     1.0000 0.62550  0.42850  0.06430  Biso   1.000  H
  H335     1.0000 0.12550  0.07150  0.56430  Biso   1.000  H
  H336     1.0000 0.37450  0.57150  0.93570  Biso   1.000  H
  C177     1.0000 0.81800  0.05200  0.42700  Biso   1.000  C
  C178     1.0000 0.68200  0.55200  0.07300  Biso   1.000  C
  C179     1.0000 0.18200  0.94800  0.57300  Biso   1.000  C
  C180     1.0000 0.31800  0.44800  0.92700  Biso   1.000  C
  H337     1.0000 0.91120  0.07150  0.41420  Biso   1.000  H
  H338     1.0000 0.58880  0.57150  0.08580  Biso   1.000  H
  H339     1.0000 0.08880  0.92850  0.58580  Biso   1.000  H
  H340     1.0000 0.41120  0.42850  0.91420  Biso   1.000  H
  H341     1.0000 0.81260  0.06070  0.46970  Biso   1.000  H
  H342     1.0000 0.68740  0.56070  0.03030  Biso   1.000  H
  H343     1.0000 0.18740  0.93930  0.53030  Biso   1.000  H
  H344     1.0000 0.31260  0.43930  0.96970  Biso   1.000  H
  H345     1.0000 0.74240  0.08440  0.40510  Biso   1.000  H
  H346     1.0000 0.75760  0.58440  0.09490  Biso   1.000  H
  H347     1.0000 0.25760  0.91560  0.59490  Biso   1.000  H
  H348     1.0000 0.24240  0.41560  0.90510  Biso   1.000  H
  C181     1.0000 0.47600  0.81600  0.40490  Biso   1.000  C
  C182     1.0000 0.02400  0.31600  0.09510  Biso   1.000  C
  C183     1.0000 0.52400  0.18400  0.59510  Biso   1.000  C
  C184     1.0000 0.97600  0.68400  0.90490  Biso   1.000  C
  H349     1.0000 0.42570  0.85080  0.37370  Biso   1.000  H
  H350     1.0000 0.07430  0.35080  0.12630  Biso   1.000  H
  H351     1.0000 0.57430  0.14920  0.62630  Biso   1.000  H
  H352     1.0000 0.92570  0.64920  0.87370  Biso   1.000  H
  H353     1.0000 0.46540  0.75650  0.39260  Biso   1.000  H
  H354     1.0000 0.03460  0.25650  0.10740  Biso   1.000  H
  H355     1.0000 0.53460  0.24350  0.60740  Biso   1.000  H
  H356     1.0000 0.96540  0.74350  0.89260  Biso   1.000  H
  C185     1.0000 0.40500  0.82800  0.46180  Biso   1.000  C
  C186     1.0000 0.09500  0.32800  0.03820  Biso   1.000  C
  C187     1.0000 0.59500  0.17200  0.53820  Biso   1.000  C
  C188     1.0000 0.90500  0.67200  0.96180  Biso   1.000  C
  H357     1.0000 0.45130  0.87440  0.48470  Biso   1.000  H
  H358     1.0000 0.04870  0.37440  0.01530  Biso   1.000  H
  H359     1.0000 0.54870  0.12560  0.51530  Biso   1.000  H
  H360     1.0000 0.95130  0.62560  0.98470  Biso   1.000  H
  H361     1.0000 0.41610  0.77590  0.48610  Biso   1.000  H
  H362     1.0000 0.08390  0.27590  0.01390  Biso   1.000  H
  H363     1.0000 0.58390  0.22410  0.51390  Biso   1.000  H
  H364     1.0000 0.91610  0.72410  0.98610  Biso   1.000  H
  C189     1.0000 0.24900  0.84700  0.45200  Biso   1.000  C
  C190     1.0000 0.25100  0.34700  0.04800  Biso   1.000  C
  C191     1.0000 0.75100  0.15300  0.54800  Biso   1.000  C
  C192     1.0000 0.74900  0.65300  0.95200  Biso   1.000  C
  H365     1.0000 0.20230  0.84050  0.48940  Biso   1.000  H
  H366     1.0000 0.29770  0.34050  0.01060  Biso   1.000  H
  H367     1.0000 0.79770  0.15950  0.51060  Biso   1.000  H
  H368     1.0000 0.70230  0.65950  0.98940  Biso   1.000  H
  H369     1.0000 0.20660  0.80760  0.42200  Biso   1.000  H
  H370     1.0000 0.29340  0.30760  0.07800  Biso   1.000  H
  H371     1.0000 0.79340  0.19240  0.57800  Biso   1.000  H
  H372     1.0000 0.70660  0.69240  0.92200  Biso   1.000  H
  H373     1.0000 0.23740  0.90470  0.43710  Biso   1.000  H
  H374     1.0000 0.26260  0.40470  0.06290  Biso   1.000  H
  H375     1.0000 0.76260  0.09530  0.56290  Biso   1.000  H
  H376     1.0000 0.73740  0.59530  0.93710  Biso   1.000  H
  C193     1.0000 0.72500  0.77650  0.44000  Biso   1.000  C
  C194     1.0000 0.77500  0.27650  0.06000  Biso   1.000  C
  C195     1.0000 0.27500  0.22350  0.56000  Biso   1.000  C
  C196     1.0000 0.22500  0.72350  0.94000  Biso   1.000  C
  H377     1.0000 0.82540  0.79410  0.43680  Biso   1.000  H
  H378     1.0000 0.67460  0.29410  0.06320  Biso   1.000  H
  H379     1.0000 0.17460  0.20590  0.56320  Biso   1.000  H
  H380     1.0000 0.32540  0.70590  0.93680  Biso   1.000  H
  H381     1.0000 0.70400  0.77950  0.48280  Biso   1.000  H
  H382     1.0000 0.79600  0.27950  0.01720  Biso   1.000  H
  H383     1.0000 0.29600  0.22050  0.51720  Biso   1.000  H
  H384     1.0000 0.20400  0.72050  0.98280  Biso   1.000  H
  C197     1.0000 0.71100  0.68760  0.42030  Biso   1.000  C
  C198     1.0000 0.78900  0.18760  0.07970  Biso   1.000  C
  C199     1.0000 0.28900  0.31240  0.57970  Biso   1.000  C
  C200     1.0000 0.21100  0.81240  0.92030  Biso   1.000  C
  H385     1.0000 0.69930  0.68640  0.37610  Biso   1.000  H
  H386     1.0000 0.80070  0.18640  0.12390  Biso   1.000  H
  H387     1.0000 0.30070  0.31360  0.62390  Biso   1.000  H
  H388     1.0000 0.19930  0.81360  0.87610  Biso   1.000  H
  H389     1.0000 0.62360  0.66370  0.43620  Biso   1.000  H
  H390     1.0000 0.87640  0.16370  0.06380  Biso   1.000  H
  H391     1.0000 0.37640  0.33630  0.56380  Biso   1.000  H
  H392     1.0000 0.12360  0.83630  0.93620  Biso   1.000  H
  C201     1.0000 0.83400  0.63300  0.43900  Biso   1.000  C
  C202     1.0000 0.66600  0.13300  0.06100  Biso   1.000  C
  C203     1.0000 0.16600  0.36700  0.56100  Biso   1.000  C
  C204     1.0000 0.33400  0.86700  0.93900  Biso   1.000  C
  H393     1.0000 0.81360  0.57470  0.42660  Biso   1.000  H
  H394     1.0000 0.68640  0.07470  0.07340  Biso   1.000  H
  H395     1.0000 0.18640  0.42530  0.57340  Biso   1.000  H
  H396     1.0000 0.31360  0.92530  0.92660  Biso   1.000  H
  H397     1.0000 0.84850  0.63450  0.48300  Biso   1.000  H
  H398     1.0000 0.65150  0.13450  0.01700  Biso   1.000  H
  H399     1.0000 0.15150  0.36550  0.51700  Biso   1.000  H
  H400     1.0000 0.34850  0.86550  0.98300  Biso   1.000  H
  H401     1.0000 0.91990  0.65280  0.42110  Biso   1.000  H
  H402     1.0000 0.58010  0.15280  0.07890  Biso   1.000  H
  H403     1.0000 0.08010  0.34720  0.57890  Biso   1.000  H
  H404     1.0000 0.41990  0.84720  0.92110  Biso   1.000  H
  O61      1.0000 0.31370  0.68470  0.09480  Biso   1.000  O
  O62      1.0000 0.18630  0.18470  0.40520  Biso   1.000  O
  O63      1.0000 0.68630  0.31530  0.90520  Biso   1.000  O
  O64      1.0000 0.81370  0.81530  0.59480  Biso   1.000  O
  O65      1.0000 0.15300  0.52320  0.08610  Biso   1.000  O
  O66      1.0000 0.34700  0.02320  0.41390  Biso   1.000  O
  O67      1.0000 0.84700  0.47680  0.91390  Biso   1.000  O
  O68      1.0000 0.65300  0.97680  0.58610  Biso   1.000  O
