data_image0
_cell_length_a       23.443
_cell_length_b       24.577
_cell_length_c       21.329
_cell_angle_alpha    90
_cell_angle_beta     115.8
_cell_angle_gamma    90

_symmetry_space_group_name_H-M    "P 1"
_symmetry_int_tables_number       1

loop_
  _symmetry_equiv_pos_as_xyz
  'x, y, z'

loop_
  _atom_site_label
  _atom_site_occupancy
  _atom_site_fract_x
  _atom_site_fract_y
  _atom_site_fract_z
  _atom_site_thermal_displace_type
  _atom_site_B_iso_or_equiv
  _atom_site_type_symbol
  Cu1      1.0000 0.47410  0.39672  0.24733  Biso   1.000  Cu
  Cu2      1.0000 0.47410  0.10328  0.74733  Biso   1.000  Cu
  Cu3      1.0000 0.52590  0.60328  0.75267  Biso   1.000  Cu
  Cu4      1.0000 0.52590  0.89672  0.25267  Biso   1.000  Cu
  Cu5      1.0000 0.48674  0.06205  0.29298  Biso   1.000  Cu
  Cu6      1.0000 0.48674  0.43795  0.79298  Biso   1.000  Cu
  Cu7      1.0000 0.51326  0.93795  0.70702  Biso   1.000  Cu
  Cu8      1.0000 0.51326  0.56205  0.20702  Biso   1.000  Cu
  Fe1      1.0000 0.59619  0.22033  0.22515  Biso   1.000  Fe
  Fe2      1.0000 0.59619  0.27967  0.72515  Biso   1.000  Fe
  Fe3      1.0000 0.40381  0.77967  0.77485  Biso   1.000  Fe
  Fe4      1.0000 0.40381  0.72033  0.27485  Biso   1.000  Fe
  Fe5      1.0000 0.36196  0.23366  0.30795  Biso   1.000  Fe
  Fe6      1.0000 0.36196  0.26634  0.80795  Biso   1.000  Fe
  Fe7      1.0000 0.63804  0.76634  0.69205  Biso   1.000  Fe
  Fe8      1.0000 0.63804  0.73366  0.19205  Biso   1.000  Fe
  Cl1      1.0000 0.52691  0.97002  0.32909  Biso   1.000  Cl
  Cl2      1.0000 0.52691  0.52998  0.82909  Biso   1.000  Cl
  Cl3      1.0000 0.47309  0.02998  0.67091  Biso   1.000  Cl
  Cl4      1.0000 0.47309  0.47002  0.17091  Biso   1.000  Cl
  N1       1.0000 0.48500  0.06720  0.38270  Biso   1.000  N
  N2       1.0000 0.48500  0.43280  0.88270  Biso   1.000  N
  N3       1.0000 0.51500  0.93280  0.61730  Biso   1.000  N
  N4       1.0000 0.51500  0.56720  0.11730  Biso   1.000  N
  N5       1.0000 0.58670  0.09850  0.41970  Biso   1.000  N
  N6       1.0000 0.58670  0.40150  0.91970  Biso   1.000  N
  N7       1.0000 0.41330  0.90150  0.58030  Biso   1.000  N
  N8       1.0000 0.41330  0.59850  0.08030  Biso   1.000  N
  H1       1.0000 0.62480  0.10170  0.45170  Biso   1.000  H
  H2       1.0000 0.62480  0.39830  0.95170  Biso   1.000  H
  H3       1.0000 0.37520  0.89830  0.54830  Biso   1.000  H
  H4       1.0000 0.37520  0.60170  0.04830  Biso   1.000  H
  N9       1.0000 0.57180  0.10840  0.34960  Biso   1.000  N
  N10      1.0000 0.57180  0.39160  0.84960  Biso   1.000  N
  N11      1.0000 0.42820  0.89160  0.65040  Biso   1.000  N
  N12      1.0000 0.42820  0.60840  0.15040  Biso   1.000  N
  N13      1.0000 0.46290  0.33760  0.16580  Biso   1.000  N
  N14      1.0000 0.46290  0.16240  0.66580  Biso   1.000  N
  N15      1.0000 0.53710  0.66240  0.83420  Biso   1.000  N
  N16      1.0000 0.53710  0.83760  0.33420  Biso   1.000  N
  N17      1.0000 0.40070  0.34630  0.11360  Biso   1.000  N
  N18      1.0000 0.40070  0.15370  0.61360  Biso   1.000  N
  N19      1.0000 0.59930  0.65370  0.88640  Biso   1.000  N
  N20      1.0000 0.59930  0.84630  0.38640  Biso   1.000  N
  H5       1.0000 0.38910  0.33520  0.07160  Biso   1.000  H
  H6       1.0000 0.38910  0.16480  0.57160  Biso   1.000  H
  H7       1.0000 0.61090  0.66480  0.92840  Biso   1.000  H
  H8       1.0000 0.61090  0.83520  0.42840  Biso   1.000  H
  N21      1.0000 0.38320  0.39770  0.19500  Biso   1.000  N
  N22      1.0000 0.38320  0.10230  0.69500  Biso   1.000  N
  N23      1.0000 0.61680  0.60230  0.80500  Biso   1.000  N
  N24      1.0000 0.61680  0.89770  0.30500  Biso   1.000  N
  N25      1.0000 0.48670  0.04720  0.20440  Biso   1.000  N
  N26      1.0000 0.48670  0.45280  0.70440  Biso   1.000  N
  N27      1.0000 0.51330  0.95280  0.79560  Biso   1.000  N
  N28      1.0000 0.51330  0.54720  0.29560  Biso   1.000  N
  N29      1.0000 0.38270  0.07310  0.15960  Biso   1.000  N
  N30      1.0000 0.38270  0.42690  0.65960  Biso   1.000  N
  N31      1.0000 0.61730  0.92690  0.84040  Biso   1.000  N
  N32      1.0000 0.61730  0.57310  0.34040  Biso   1.000  N
  H9       1.0000 0.34400  0.07110  0.12870  Biso   1.000  H
  H10      1.0000 0.34400  0.42890  0.62870  Biso   1.000  H
  H11      1.0000 0.65600  0.92890  0.87130  Biso   1.000  H
  H12      1.0000 0.65600  0.57110  0.37130  Biso   1.000  H
  N33      1.0000 0.40050  0.09610  0.22540  Biso   1.000  N
  N34      1.0000 0.40050  0.40390  0.72540  Biso   1.000  N
  N35      1.0000 0.59950  0.90390  0.77460  Biso   1.000  N
  N36      1.0000 0.59950  0.59610  0.27460  Biso   1.000  N
  N37      1.0000 0.47820  0.36340  0.33940  Biso   1.000  N
  N38      1.0000 0.47820  0.13660  0.83940  Biso   1.000  N
  N39      1.0000 0.52180  0.63660  0.66060  Biso   1.000  N
  N40      1.0000 0.52180  0.86340  0.16060  Biso   1.000  N
  N41      1.0000 0.53450  0.38250  0.39230  Biso   1.000  N
  N42      1.0000 0.53450  0.11750  0.89230  Biso   1.000  N
  N43      1.0000 0.46550  0.61750  0.60770  Biso   1.000  N
  N44      1.0000 0.46550  0.88250  0.10770  Biso   1.000  N
  H13      1.0000 0.54000  0.38330  0.43490  Biso   1.000  H
  H14      1.0000 0.54000  0.11670  0.93490  Biso   1.000  H
  H15      1.0000 0.46000  0.61670  0.56510  Biso   1.000  H
  H16      1.0000 0.46000  0.88330  0.06510  Biso   1.000  H
  N45      1.0000 0.56310  0.40760  0.30660  Biso   1.000  N
  N46      1.0000 0.56310  0.09240  0.80660  Biso   1.000  N
  N47      1.0000 0.43690  0.59240  0.69340  Biso   1.000  N
  N48      1.0000 0.43690  0.90760  0.19340  Biso   1.000  N
  C1       1.0000 0.43650  0.05280  0.39670  Biso   1.000  C
  C2       1.0000 0.43650  0.44720  0.89670  Biso   1.000  C
  C3       1.0000 0.56350  0.94720  0.60330  Biso   1.000  C
  C4       1.0000 0.56350  0.55280  0.10330  Biso   1.000  C
  H17      1.0000 0.39890  0.04160  0.36010  Biso   1.000  H
  H18      1.0000 0.39890  0.45840  0.86010  Biso   1.000  H
  H19      1.0000 0.60110  0.95840  0.63990  Biso   1.000  H
  H20      1.0000 0.60110  0.54160  0.13990  Biso   1.000  H
  C5       1.0000 0.43980  0.05370  0.46290  Biso   1.000  C
  C6       1.0000 0.43980  0.44630  0.96290  Biso   1.000  C
  C7       1.0000 0.56020  0.94630  0.53710  Biso   1.000  C
  C8       1.0000 0.56020  0.55370  0.03710  Biso   1.000  C
  H21      1.0000 0.40540  0.04380  0.47120  Biso   1.000  H
  H22      1.0000 0.40540  0.45620  0.97120  Biso   1.000  H
  H23      1.0000 0.59460  0.95620  0.52880  Biso   1.000  H
  H24      1.0000 0.59460  0.54380  0.02880  Biso   1.000  H
  C9       1.0000 0.49630  0.07000  0.51620  Biso   1.000  C
  C10      1.0000 0.49630  0.43000  0.01620  Biso   1.000  C
  C11      1.0000 0.50370  0.93000  0.48380  Biso   1.000  C
  C12      1.0000 0.50370  0.57000  0.98380  Biso   1.000  C
  H25      1.0000 0.49950  0.07130  0.56120  Biso   1.000  H
  H26      1.0000 0.49950  0.42870  0.06120  Biso   1.000  H
  H27      1.0000 0.50050  0.92870  0.43880  Biso   1.000  H
  H28      1.0000 0.50050  0.57130  0.93880  Biso   1.000  H
  C13      1.0000 0.54790  0.08450  0.50590  Biso   1.000  C
  C14      1.0000 0.54790  0.41550  0.00590  Biso   1.000  C
  C15      1.0000 0.45210  0.91550  0.49410  Biso   1.000  C
  C16      1.0000 0.45210  0.58450  0.99410  Biso   1.000  C
  H29      1.0000 0.58640  0.09410  0.54240  Biso   1.000  H
  H30      1.0000 0.58640  0.40590  0.04240  Biso   1.000  H
  H31      1.0000 0.41360  0.90590  0.45760  Biso   1.000  H
  H32      1.0000 0.41360  0.59410  0.95760  Biso   1.000  H
  C17      1.0000 0.53840  0.08360  0.43480  Biso   1.000  C
  C18      1.0000 0.53840  0.41640  0.93480  Biso   1.000  C
  C19      1.0000 0.46160  0.91640  0.56520  Biso   1.000  C
  C20      1.0000 0.46160  0.58360  0.06520  Biso   1.000  C
  C21      1.0000 0.61560  0.12940  0.33450  Biso   1.000  C
  C22      1.0000 0.61560  0.37060  0.83450  Biso   1.000  C
  C23      1.0000 0.38440  0.87060  0.66550  Biso   1.000  C
  C24      1.0000 0.38440  0.62940  0.16550  Biso   1.000  C
  C25      1.0000 0.68250  0.13730  0.38770  Biso   1.000  C
  C26      1.0000 0.68250  0.36270  0.88770  Biso   1.000  C
  C27      1.0000 0.31750  0.86270  0.61230  Biso   1.000  C
  C28      1.0000 0.31750  0.63730  0.11230  Biso   1.000  C
  H33      1.0000 0.68680  0.12520  0.43230  Biso   1.000  H
  H34      1.0000 0.68680  0.37480  0.93230  Biso   1.000  H
  H35      1.0000 0.31320  0.87480  0.56770  Biso   1.000  H
  H36      1.0000 0.31320  0.62520  0.06770  Biso   1.000  H
  H37      1.0000 0.69330  0.17520  0.39030  Biso   1.000  H
  H38      1.0000 0.69330  0.32480  0.89030  Biso   1.000  H
  H39      1.0000 0.30670  0.82480  0.60970  Biso   1.000  H
  H40      1.0000 0.30670  0.67520  0.10970  Biso   1.000  H
  H41      1.0000 0.71050  0.11670  0.37460  Biso   1.000  H
  H42      1.0000 0.71050  0.38330  0.87460  Biso   1.000  H
  H43      1.0000 0.28950  0.88330  0.62540  Biso   1.000  H
  H44      1.0000 0.28950  0.61670  0.12540  Biso   1.000  H
  C29      1.0000 0.59470  0.14420  0.26210  Biso   1.000  C
  C30      1.0000 0.59470  0.35580  0.76210  Biso   1.000  C
  C31      1.0000 0.40530  0.85580  0.73790  Biso   1.000  C
  C32      1.0000 0.40530  0.64420  0.23790  Biso   1.000  C
  C33      1.0000 0.53300  0.16040  0.21400  Biso   1.000  C
  C34      1.0000 0.53300  0.33960  0.71400  Biso   1.000  C
  C35      1.0000 0.46700  0.83960  0.78600  Biso   1.000  C
  C36      1.0000 0.46700  0.66040  0.28600  Biso   1.000  C
  H45      1.0000 0.49590  0.16360  0.22360  Biso   1.000  H
  H46      1.0000 0.49590  0.33640  0.72360  Biso   1.000  H
  H47      1.0000 0.50410  0.83640  0.77640  Biso   1.000  H
  H48      1.0000 0.50410  0.66360  0.27640  Biso   1.000  H
  C37      1.0000 0.53420  0.17000  0.14950  Biso   1.000  C
  C38      1.0000 0.53420  0.33000  0.64950  Biso   1.000  C
  C39      1.0000 0.46580  0.83000  0.85050  Biso   1.000  C
  C40      1.0000 0.46580  0.67000  0.35050  Biso   1.000  C
  H49      1.0000 0.49800  0.18200  0.10700  Biso   1.000  H
  H50      1.0000 0.49800  0.31800  0.60700  Biso   1.000  H
  H51      1.0000 0.50200  0.81800  0.89300  Biso   1.000  H
  H52      1.0000 0.50200  0.68200  0.39300  Biso   1.000  H
  C41      1.0000 0.59550  0.16110  0.15630  Biso   1.000  C
  C42      1.0000 0.59550  0.33890  0.65630  Biso   1.000  C
  C43      1.0000 0.40450  0.83890  0.84370  Biso   1.000  C
  C44      1.0000 0.40450  0.66110  0.34370  Biso   1.000  C
  H53      1.0000 0.60950  0.16570  0.11950  Biso   1.000  H
  H54      1.0000 0.60950  0.33430  0.61950  Biso   1.000  H
  H55      1.0000 0.39050  0.83430  0.88050  Biso   1.000  H
  H56      1.0000 0.39050  0.66570  0.38050  Biso   1.000  H
  C45      1.0000 0.63370  0.14560  0.22530  Biso   1.000  C
  C46      1.0000 0.63370  0.35440  0.72530  Biso   1.000  C
  C47      1.0000 0.36630  0.85440  0.77470  Biso   1.000  C
  C48      1.0000 0.36630  0.64560  0.27470  Biso   1.000  C
  H57      1.0000 0.67900  0.13680  0.24500  Biso   1.000  H
  H58      1.0000 0.67900  0.36320  0.74500  Biso   1.000  H
  H59      1.0000 0.32100  0.86320  0.75500  Biso   1.000  H
  H60      1.0000 0.32100  0.63680  0.25500  Biso   1.000  H
  C49      1.0000 0.62060  0.29160  0.19600  Biso   1.000  C
  C50      1.0000 0.62060  0.20840  0.69600  Biso   1.000  C
  C51      1.0000 0.37940  0.70840  0.80400  Biso   1.000  C
  C52      1.0000 0.37940  0.79160  0.30400  Biso   1.000  C
  H61      1.0000 0.62570  0.29720  0.15320  Biso   1.000  H
  H62      1.0000 0.62570  0.20280  0.65320  Biso   1.000  H
  H63      1.0000 0.37430  0.70280  0.84680  Biso   1.000  H
  H64      1.0000 0.37430  0.79720  0.34680  Biso   1.000  H
  C53      1.0000 0.66930  0.27570  0.26060  Biso   1.000  C
  C54      1.0000 0.66930  0.22430  0.76060  Biso   1.000  C
  C55      1.0000 0.33070  0.72430  0.73940  Biso   1.000  C
  C56      1.0000 0.33070  0.77570  0.23940  Biso   1.000  C
  H65      1.0000 0.71360  0.26860  0.27090  Biso   1.000  H
  H66      1.0000 0.71360  0.23140  0.77090  Biso   1.000  H
  H67      1.0000 0.28640  0.73140  0.72910  Biso   1.000  H
  H68      1.0000 0.28640  0.76860  0.22910  Biso   1.000  H
  C57      1.0000 0.64160  0.27150  0.30770  Biso   1.000  C
  C58      1.0000 0.64160  0.22850  0.80770  Biso   1.000  C
  C59      1.0000 0.35840  0.72850  0.69230  Biso   1.000  C
  C60      1.0000 0.35840  0.77150  0.19230  Biso   1.000  C
  H69      1.0000 0.66370  0.26040  0.35660  Biso   1.000  H
  H70      1.0000 0.66370  0.23960  0.85660  Biso   1.000  H
  H71      1.0000 0.33630  0.73960  0.64340  Biso   1.000  H
  H72      1.0000 0.33630  0.76040  0.14340  Biso   1.000  H
  C61      1.0000 0.57750  0.28440  0.27280  Biso   1.000  C
  C62      1.0000 0.57750  0.21560  0.77280  Biso   1.000  C
  C63      1.0000 0.42250  0.71560  0.72720  Biso   1.000  C
  C64      1.0000 0.42250  0.78440  0.22720  Biso   1.000  C
  H73      1.0000 0.54720  0.28470  0.29320  Biso   1.000  H
  H74      1.0000 0.54720  0.21530  0.79320  Biso   1.000  H
  H75      1.0000 0.45280  0.71530  0.70680  Biso   1.000  H
  H76      1.0000 0.45280  0.78470  0.20680  Biso   1.000  H
  C65      1.0000 0.56360  0.29870  0.20200  Biso   1.000  C
  C66      1.0000 0.56360  0.20130  0.70200  Biso   1.000  C
  C67      1.0000 0.43640  0.70130  0.79800  Biso   1.000  C
  C68      1.0000 0.43640  0.79870  0.29800  Biso   1.000  C
  C69      1.0000 0.50170  0.31220  0.14810  Biso   1.000  C
  C70      1.0000 0.50170  0.18780  0.64810  Biso   1.000  C
  C71      1.0000 0.49830  0.68780  0.85190  Biso   1.000  C
  C72      1.0000 0.49830  0.81220  0.35190  Biso   1.000  C
  C73      1.0000 0.48490  0.29740  0.07260  Biso   1.000  C
  C74      1.0000 0.48490  0.20260  0.57260  Biso   1.000  C
  C75      1.0000 0.51510  0.70260  0.92740  Biso   1.000  C
  C76      1.0000 0.51510  0.79740  0.42740  Biso   1.000  C
  H77      1.0000 0.44250  0.30910  0.04330  Biso   1.000  H
  H78      1.0000 0.44250  0.19090  0.54330  Biso   1.000  H
  H79      1.0000 0.55750  0.69090  0.95670  Biso   1.000  H
  H80      1.0000 0.55750  0.80910  0.45670  Biso   1.000  H
  H81      1.0000 0.48790  0.25870  0.06870  Biso   1.000  H
  H82      1.0000 0.48790  0.24130  0.56870  Biso   1.000  H
  H83      1.0000 0.51210  0.74130  0.93130  Biso   1.000  H
  H84      1.0000 0.51210  0.75870  0.43130  Biso   1.000  H
  H85      1.0000 0.51390  0.31510  0.05840  Biso   1.000  H
  H86      1.0000 0.51390  0.18490  0.55840  Biso   1.000  H
  H87      1.0000 0.48610  0.68490  0.94160  Biso   1.000  H
  H88      1.0000 0.48610  0.81510  0.44160  Biso   1.000  H
  C77      1.0000 0.35950  0.37310  0.13280  Biso   1.000  C
  C78      1.0000 0.35950  0.12690  0.63280  Biso   1.000  C
  C79      1.0000 0.64050  0.62690  0.86720  Biso   1.000  C
  C80      1.0000 0.64050  0.87310  0.36720  Biso   1.000  C
  C81      1.0000 0.29410  0.37350  0.08540  Biso   1.000  C
  C82      1.0000 0.29410  0.12650  0.58540  Biso   1.000  C
  C83      1.0000 0.70590  0.62650  0.91460  Biso   1.000  C
  C84      1.0000 0.70590  0.87350  0.41460  Biso   1.000  C
  H89      1.0000 0.27920  0.35570  0.04270  Biso   1.000  H
  H90      1.0000 0.27920  0.14430  0.54270  Biso   1.000  H
  H91      1.0000 0.72080  0.64430  0.95730  Biso   1.000  H
  H92      1.0000 0.72080  0.85570  0.45730  Biso   1.000  H
  C85      1.0000 0.25390  0.40140  0.10540  Biso   1.000  C
  C86      1.0000 0.25390  0.09860  0.60540  Biso   1.000  C
  C87      1.0000 0.74610  0.59860  0.89460  Biso   1.000  C
  C88      1.0000 0.74610  0.90140  0.39460  Biso   1.000  C
  H93      1.0000 0.21090  0.40320  0.07570  Biso   1.000  H
  H94      1.0000 0.21090  0.09680  0.57570  Biso   1.000  H
  H95      1.0000 0.78910  0.59680  0.92430  Biso   1.000  H
  H96      1.0000 0.78910  0.90320  0.42430  Biso   1.000  H
  C89      1.0000 0.27750  0.42710  0.17020  Biso   1.000  C
  C90      1.0000 0.27750  0.07290  0.67020  Biso   1.000  C
  C91      1.0000 0.72250  0.57290  0.82980  Biso   1.000  C
  C92      1.0000 0.72250  0.92710  0.32980  Biso   1.000  C
  H97      1.0000 0.25070  0.44600  0.18440  Biso   1.000  H
  H98      1.0000 0.25070  0.05400  0.68440  Biso   1.000  H
  H99      1.0000 0.74930  0.55400  0.81560  Biso   1.000  H
  H100     1.0000 0.74930  0.94600  0.31560  Biso   1.000  H
  C93      1.0000 0.34100  0.42360  0.21230  Biso   1.000  C
  C94      1.0000 0.34100  0.07640  0.71230  Biso   1.000  C
  C95      1.0000 0.65900  0.57640  0.78770  Biso   1.000  C
  C96      1.0000 0.65900  0.92360  0.28770  Biso   1.000  C
  H101     1.0000 0.35640  0.44020  0.25580  Biso   1.000  H
  H102     1.0000 0.35640  0.05980  0.75580  Biso   1.000  H
  H103     1.0000 0.64360  0.55980  0.74420  Biso   1.000  H
  H104     1.0000 0.64360  0.94020  0.24420  Biso   1.000  H
  C97      1.0000 0.53630  0.02750  0.19380  Biso   1.000  C
  C98      1.0000 0.53630  0.47250  0.69380  Biso   1.000  C
  C99      1.0000 0.46370  0.97250  0.80620  Biso   1.000  C
  C100     1.0000 0.46370  0.52750  0.30620  Biso   1.000  C
  H105     1.0000 0.57480  0.02210  0.23240  Biso   1.000  H
  H106     1.0000 0.57480  0.47790  0.73240  Biso   1.000  H
  H107     1.0000 0.42520  0.97790  0.76760  Biso   1.000  H
  H108     1.0000 0.42520  0.52210  0.26760  Biso   1.000  H
  C101     1.0000 0.53230  0.01520  0.12900  Biso   1.000  C
  C102     1.0000 0.53230  0.48480  0.62900  Biso   1.000  C
  C103     1.0000 0.46770  0.98480  0.87100  Biso   1.000  C
  C104     1.0000 0.46770  0.51520  0.37100  Biso   1.000  C
  H109     1.0000 0.56740  0.00270  0.12360  Biso   1.000  H
  H110     1.0000 0.56740  0.49730  0.62360  Biso   1.000  H
  H111     1.0000 0.43260  0.99730  0.87640  Biso   1.000  H
  H112     1.0000 0.43260  0.50270  0.37640  Biso   1.000  H
  C105     1.0000 0.47450  0.02210  0.07250  Biso   1.000  C
  C106     1.0000 0.47450  0.47790  0.57250  Biso   1.000  C
  C107     1.0000 0.52550  0.97790  0.92750  Biso   1.000  C
  C108     1.0000 0.52550  0.52210  0.42750  Biso   1.000  C
  H113     1.0000 0.47020  0.01370  0.02820  Biso   1.000  H
  H114     1.0000 0.47020  0.48630  0.52820  Biso   1.000  H
  H115     1.0000 0.52980  0.98630  0.97180  Biso   1.000  H
  H116     1.0000 0.52980  0.51370  0.47180  Biso   1.000  H
  C109     1.0000 0.42270  0.04130  0.08050  Biso   1.000  C
  C110     1.0000 0.42270  0.45870  0.58050  Biso   1.000  C
  C111     1.0000 0.57730  0.95870  0.91950  Biso   1.000  C
  C112     1.0000 0.57730  0.54130  0.41950  Biso   1.000  C
  H117     1.0000 0.38340  0.04560  0.04260  Biso   1.000  H
  H118     1.0000 0.38340  0.45440  0.54260  Biso   1.000  H
  H119     1.0000 0.61660  0.95440  0.95740  Biso   1.000  H
  H120     1.0000 0.61660  0.54560  0.45740  Biso   1.000  H
  C113     1.0000 0.43240  0.05420  0.14950  Biso   1.000  C
  C114     1.0000 0.43240  0.44580  0.64950  Biso   1.000  C
  C115     1.0000 0.56760  0.94580  0.85050  Biso   1.000  C
  C116     1.0000 0.56760  0.55420  0.35050  Biso   1.000  C
  C117     1.0000 0.35640  0.12060  0.23480  Biso   1.000  C
  C118     1.0000 0.35640  0.37940  0.73480  Biso   1.000  C
  C119     1.0000 0.64360  0.87940  0.76520  Biso   1.000  C
  C120     1.0000 0.64360  0.62060  0.26520  Biso   1.000  C
  C121     1.0000 0.28830  0.12200  0.18140  Biso   1.000  C
  C122     1.0000 0.28830  0.37800  0.68140  Biso   1.000  C
  C123     1.0000 0.71170  0.87800  0.81860  Biso   1.000  C
  C124     1.0000 0.71170  0.62200  0.31860  Biso   1.000  C
  H121     1.0000 0.28340  0.10020  0.14200  Biso   1.000  H
  H122     1.0000 0.28340  0.39980  0.64200  Biso   1.000  H
  H123     1.0000 0.71660  0.89980  0.85800  Biso   1.000  H
  H124     1.0000 0.71660  0.60020  0.35800  Biso   1.000  H
  H125     1.0000 0.27620  0.15880  0.16670  Biso   1.000  H
  H126     1.0000 0.27620  0.34120  0.66670  Biso   1.000  H
  H127     1.0000 0.72380  0.84120  0.83330  Biso   1.000  H
  H128     1.0000 0.72380  0.65880  0.33330  Biso   1.000  H
  H129     1.0000 0.26180  0.10770  0.20140  Biso   1.000  H
  H130     1.0000 0.26180  0.39230  0.70140  Biso   1.000  H
  H131     1.0000 0.73820  0.89230  0.79860  Biso   1.000  H
  H132     1.0000 0.73820  0.60770  0.29860  Biso   1.000  H
  C125     1.0000 0.37400  0.15210  0.30060  Biso   1.000  C
  C126     1.0000 0.37400  0.34790  0.80060  Biso   1.000  C
  C127     1.0000 0.62600  0.84790  0.69940  Biso   1.000  C
  C128     1.0000 0.62600  0.65210  0.19940  Biso   1.000  C
  C129     1.0000 0.43280  0.17850  0.33870  Biso   1.000  C
  C130     1.0000 0.43280  0.32150  0.83870  Biso   1.000  C
  C131     1.0000 0.56720  0.82150  0.66130  Biso   1.000  C
  C132     1.0000 0.56720  0.67850  0.16130  Biso   1.000  C
  H133     1.0000 0.46860  0.17890  0.32660  Biso   1.000  H
  H134     1.0000 0.46860  0.32110  0.82660  Biso   1.000  H
  H135     1.0000 0.53140  0.82110  0.67340  Biso   1.000  H
  H136     1.0000 0.53140  0.67890  0.17340  Biso   1.000  H
  C133     1.0000 0.43200  0.20210  0.39790  Biso   1.000  C
  C134     1.0000 0.43200  0.29790  0.89790  Biso   1.000  C
  C135     1.0000 0.56800  0.79790  0.60210  Biso   1.000  C
  C136     1.0000 0.56800  0.70210  0.10210  Biso   1.000  C
  H137     1.0000 0.46660  0.22250  0.43410  Biso   1.000  H
  H138     1.0000 0.46660  0.27750  0.93410  Biso   1.000  H
  H139     1.0000 0.53340  0.77750  0.56590  Biso   1.000  H
  H140     1.0000 0.53340  0.72250  0.06590  Biso   1.000  H
  C137     1.0000 0.37120  0.19210  0.39520  Biso   1.000  C
  C138     1.0000 0.37120  0.30790  0.89520  Biso   1.000  C
  C139     1.0000 0.62880  0.80790  0.60480  Biso   1.000  C
  C140     1.0000 0.62880  0.69210  0.10480  Biso   1.000  C
  H141     1.0000 0.35660  0.20480  0.42930  Biso   1.000  H
  H142     1.0000 0.35660  0.29520  0.92930  Biso   1.000  H
  H143     1.0000 0.64340  0.79520  0.57070  Biso   1.000  H
  H144     1.0000 0.64340  0.70480  0.07070  Biso   1.000  H
  C141     1.0000 0.33520  0.16240  0.33490  Biso   1.000  C
  C142     1.0000 0.33520  0.33760  0.83490  Biso   1.000  C
  C143     1.0000 0.66480  0.83760  0.66510  Biso   1.000  C
  C144     1.0000 0.66480  0.66240  0.16510  Biso   1.000  C
  H145     1.0000 0.29160  0.14970  0.32010  Biso   1.000  H
  H146     1.0000 0.29160  0.35030  0.82010  Biso   1.000  H
  H147     1.0000 0.70840  0.85030  0.67990  Biso   1.000  H
  H148     1.0000 0.70840  0.64970  0.17990  Biso   1.000  H
  C145     1.0000 0.37810  0.28720  0.24560  Biso   1.000  C
  C146     1.0000 0.37810  0.21280  0.74560  Biso   1.000  C
  C147     1.0000 0.62190  0.71280  0.75440  Biso   1.000  C
  C148     1.0000 0.62190  0.78720  0.25440  Biso   1.000  C
  H149     1.0000 0.41230  0.28450  0.23100  Biso   1.000  H
  H150     1.0000 0.41230  0.21550  0.73100  Biso   1.000  H
  H151     1.0000 0.58770  0.71550  0.76900  Biso   1.000  H
  H152     1.0000 0.58770  0.78450  0.26900  Biso   1.000  H
  C149     1.0000 0.31700  0.26580  0.20920  Biso   1.000  C
  C150     1.0000 0.31700  0.23420  0.70920  Biso   1.000  C
  C151     1.0000 0.68300  0.73420  0.79080  Biso   1.000  C
  C152     1.0000 0.68300  0.76580  0.29080  Biso   1.000  C
  H153     1.0000 0.30110  0.24540  0.16540  Biso   1.000  H
  H154     1.0000 0.30110  0.25460  0.66540  Biso   1.000  H
  H155     1.0000 0.69890  0.75460  0.83460  Biso   1.000  H
  H156     1.0000 0.69890  0.74540  0.33460  Biso   1.000  H
  C153     1.0000 0.28330  0.27850  0.24700  Biso   1.000  C
  C154     1.0000 0.28330  0.22150  0.74700  Biso   1.000  C
  C155     1.0000 0.71670  0.72150  0.75300  Biso   1.000  C
  C156     1.0000 0.71670  0.77850  0.25300  Biso   1.000  C
  H157     1.0000 0.23920  0.26820  0.23440  Biso   1.000  H
  H158     1.0000 0.23920  0.23180  0.73440  Biso   1.000  H
  H159     1.0000 0.76080  0.73180  0.76560  Biso   1.000  H
  H160     1.0000 0.76080  0.76820  0.26560  Biso   1.000  H
  C157     1.0000 0.32330  0.30800  0.30730  Biso   1.000  C
  C158     1.0000 0.32330  0.19200  0.80730  Biso   1.000  C
  C159     1.0000 0.67670  0.69200  0.69270  Biso   1.000  C
  C160     1.0000 0.67670  0.80800  0.19270  Biso   1.000  C
  H161     1.0000 0.31150  0.32210  0.34310  Biso   1.000  H
  H162     1.0000 0.31150  0.17790  0.84310  Biso   1.000  H
  H163     1.0000 0.68850  0.67790  0.65690  Biso   1.000  H
  H164     1.0000 0.68850  0.82210  0.15690  Biso   1.000  H
  C161     1.0000 0.38260  0.31410  0.30620  Biso   1.000  C
  C162     1.0000 0.38260  0.18590  0.80620  Biso   1.000  C
  C163     1.0000 0.61740  0.68590  0.69380  Biso   1.000  C
  C164     1.0000 0.61740  0.81410  0.19380  Biso   1.000  C
  C165     1.0000 0.43740  0.34160  0.35830  Biso   1.000  C
  C166     1.0000 0.43740  0.15840  0.85830  Biso   1.000  C
  C167     1.0000 0.56260  0.65840  0.64170  Biso   1.000  C
  C168     1.0000 0.56260  0.84160  0.14170  Biso   1.000  C
  C169     1.0000 0.44710  0.34330  0.43280  Biso   1.000  C
  C170     1.0000 0.44710  0.15670  0.93280  Biso   1.000  C
  C171     1.0000 0.55290  0.65670  0.56720  Biso   1.000  C
  C172     1.0000 0.55290  0.84330  0.06720  Biso   1.000  C
  H165     1.0000 0.48550  0.36260  0.46050  Biso   1.000  H
  H166     1.0000 0.48550  0.13740  0.96050  Biso   1.000  H
  H167     1.0000 0.51450  0.63740  0.53950  Biso   1.000  H
  H168     1.0000 0.51450  0.86260  0.03950  Biso   1.000  H
  H169     1.0000 0.45010  0.30690  0.45020  Biso   1.000  H
  H170     1.0000 0.45010  0.19310  0.95020  Biso   1.000  H
  H171     1.0000 0.54990  0.69310  0.54980  Biso   1.000  H
  H172     1.0000 0.54990  0.80690  0.04980  Biso   1.000  H
  H173     1.0000 0.41190  0.36150  0.43530  Biso   1.000  H
  H174     1.0000 0.41190  0.13850  0.93530  Biso   1.000  H
  H175     1.0000 0.58810  0.63850  0.56470  Biso   1.000  H
  H176     1.0000 0.58810  0.86150  0.06470  Biso   1.000  H
  C173     1.0000 0.58060  0.39980  0.37410  Biso   1.000  C
  C174     1.0000 0.58060  0.10020  0.87410  Biso   1.000  C
  C175     1.0000 0.41940  0.60020  0.62590  Biso   1.000  C
  C176     1.0000 0.41940  0.89980  0.12590  Biso   1.000  C
  C177     1.0000 0.64240  0.41000  0.42570  Biso   1.000  C
  C178     1.0000 0.64240  0.09000  0.92570  Biso   1.000  C
  C179     1.0000 0.35760  0.59000  0.57430  Biso   1.000  C
  C180     1.0000 0.35760  0.91000  0.07430  Biso   1.000  C
  H177     1.0000 0.65290  0.40490  0.47260  Biso   1.000  H
  H178     1.0000 0.65290  0.09510  0.97260  Biso   1.000  H
  H179     1.0000 0.34710  0.59510  0.52740  Biso   1.000  H
  H180     1.0000 0.34710  0.90490  0.02740  Biso   1.000  H
  C181     1.0000 0.68580  0.42730  0.40460  Biso   1.000  C
  C182     1.0000 0.68580  0.07270  0.90460  Biso   1.000  C
  C183     1.0000 0.31420  0.57270  0.59540  Biso   1.000  C
  C184     1.0000 0.31420  0.92730  0.09540  Biso   1.000  C
  H181     1.0000 0.72710  0.43460  0.43710  Biso   1.000  H
  H182     1.0000 0.72710  0.06540  0.93710  Biso   1.000  H
  H183     1.0000 0.27290  0.56540  0.56290  Biso   1.000  H
  H184     1.0000 0.27290  0.93460  0.06290  Biso   1.000  H
  C185     1.0000 0.66860  0.43400  0.33460  Biso   1.000  C
  C186     1.0000 0.66860  0.06600  0.83460  Biso   1.000  C
  C187     1.0000 0.33140  0.56600  0.66540  Biso   1.000  C
  C188     1.0000 0.33140  0.93400  0.16540  Biso   1.000  C
  H185     1.0000 0.69840  0.44520  0.31940  Biso   1.000  H
  H186     1.0000 0.69840  0.05480  0.81940  Biso   1.000  H
  H187     1.0000 0.30160  0.55480  0.68060  Biso   1.000  H
  H188     1.0000 0.30160  0.94520  0.18060  Biso   1.000  H
  C189     1.0000 0.60810  0.42430  0.28800  Biso   1.000  C
  C190     1.0000 0.60810  0.07570  0.78800  Biso   1.000  C
  C191     1.0000 0.39190  0.57570  0.71200  Biso   1.000  C
  C192     1.0000 0.39190  0.92430  0.21200  Biso   1.000  C
  H189     1.0000 0.59720  0.42930  0.24100  Biso   1.000  H
  H190     1.0000 0.59720  0.07070  0.74100  Biso   1.000  H
  H191     1.0000 0.40280  0.57070  0.75900  Biso   1.000  H
  H192     1.0000 0.40280  0.92930  0.25900  Biso   1.000  H
  B1       1.0000 0.97980  0.71340  0.41440  Biso   1.000  B
  B2       1.0000 0.97980  0.78660  0.91440  Biso   1.000  B
  B3       1.0000 0.02020  0.28660  0.58560  Biso   1.000  B
  B4       1.0000 0.02020  0.21340  0.08560  Biso   1.000  B
  F1       1.0000 0.99740  0.69820  0.36420  Biso   1.000  F
  F2       1.0000 0.99740  0.80180  0.86420  Biso   1.000  F
  F3       1.0000 0.00260  0.30180  0.63580  Biso   1.000  F
  F4       1.0000 0.00260  0.19820  0.13580  Biso   1.000  F
  F5       1.0000 0.97890  0.66970  0.45380  Biso   1.000  F
  F6       1.0000 0.97890  0.83030  0.95380  Biso   1.000  F
  F7       1.0000 0.02110  0.33030  0.54620  Biso   1.000  F
  F8       1.0000 0.02110  0.16970  0.04620  Biso   1.000  F
  F9       1.0000 0.01850  0.75210  0.45770  Biso   1.000  F
  F10      1.0000 0.01850  0.74790  0.95770  Biso   1.000  F
  F11      1.0000 0.98150  0.24790  0.54230  Biso   1.000  F
  F12      1.0000 0.98150  0.25210  0.04230  Biso   1.000  F
  F13      1.0000 0.91950  0.73390  0.38430  Biso   1.000  F
  F14      1.0000 0.91950  0.76610  0.88430  Biso   1.000  F
  F15      1.0000 0.08050  0.26610  0.61570  Biso   1.000  F
  F16      1.0000 0.08050  0.23390  0.11570  Biso   1.000  F
  B5       1.0000 0.66790  0.78720  0.95720  Biso   1.000  B
  B6       1.0000 0.66790  0.71280  0.45720  Biso   1.000  B
  B7       1.0000 0.33210  0.21280  0.04280  Biso   1.000  B
  B8       1.0000 0.33210  0.28720  0.54280  Biso   1.000  B
  F17      1.0000 0.61910  0.78990  0.89100  Biso   1.000  F
  F18      1.0000 0.61910  0.71010  0.39100  Biso   1.000  F
  F19      1.0000 0.38090  0.21010  0.10900  Biso   1.000  F
  F20      1.0000 0.38090  0.28990  0.60900  Biso   1.000  F
  F21      1.0000 0.67350  0.73470  0.98270  Biso   1.000  F
  F22      1.0000 0.67350  0.76530  0.48270  Biso   1.000  F
  F23      1.0000 0.32650  0.26530  0.01730  Biso   1.000  F
  F24      1.0000 0.32650  0.23470  0.51730  Biso   1.000  F
  F25      1.0000 0.72420  0.79960  0.95540  Biso   1.000  F
  F26      1.0000 0.72420  0.70040  0.45540  Biso   1.000  F
  F27      1.0000 0.27580  0.20040  0.04460  Biso   1.000  F
  F28      1.0000 0.27580  0.29960  0.54460  Biso   1.000  F
  F29      1.0000 0.65930  0.81790  0.00560  Biso   1.000  F
  F30      1.0000 0.65930  0.68210  0.50560  Biso   1.000  F
  F31      1.0000 0.34070  0.18210  0.99440  Biso   1.000  F
  F32      1.0000 0.34070  0.31790  0.49440  Biso   1.000  F
  F33      1.0000 0.64450  0.77000  0.00210  Biso   1.000  F
  F34      1.0000 0.64450  0.73000  0.50210  Biso   1.000  F
  F35      1.0000 0.35550  0.23000  0.99790  Biso   1.000  F
  F36      1.0000 0.35550  0.27000  0.49790  Biso   1.000  F
  F37      1.0000 0.69300  0.83900  0.97400  Biso   1.000  F
  F38      1.0000 0.69300  0.66100  0.47400  Biso   1.000  F
  F39      1.0000 0.30700  0.16100  0.02600  Biso   1.000  F
  F40      1.0000 0.30700  0.33900  0.52600  Biso   1.000  F
  F41      1.0000 0.71270  0.75200  0.95520  Biso   1.000  F
  F42      1.0000 0.71270  0.74800  0.45520  Biso   1.000  F
  F43      1.0000 0.28730  0.24800  0.04480  Biso   1.000  F
  F44      1.0000 0.28730  0.25200  0.54480  Biso   1.000  F
  B9       1.0000 0.26990  0.98310  0.30450  Biso   1.000  B
  B10      1.0000 0.26990  0.51690  0.80450  Biso   1.000  B
  B11      1.0000 0.73010  0.01690  0.69550  Biso   1.000  B
  B12      1.0000 0.73010  0.48310  0.19550  Biso   1.000  B
  F45      1.0000 0.31890  0.94920  0.31370  Biso   1.000  F
  F46      1.0000 0.31890  0.55080  0.81370  Biso   1.000  F
  F47      1.0000 0.68110  0.05080  0.68630  Biso   1.000  F
  F48      1.0000 0.68110  0.44920  0.18630  Biso   1.000  F
  F49      1.0000 0.22920  0.98710  0.23490  Biso   1.000  F
  F50      1.0000 0.22920  0.51290  0.73490  Biso   1.000  F
  F51      1.0000 0.77080  0.01290  0.76510  Biso   1.000  F
  F52      1.0000 0.77080  0.48710  0.26510  Biso   1.000  F
  F53      1.0000 0.28700  0.03450  0.32940  Biso   1.000  F
  F54      1.0000 0.28700  0.46550  0.82940  Biso   1.000  F
  F55      1.0000 0.71300  0.96550  0.67060  Biso   1.000  F
  F56      1.0000 0.71300  0.53450  0.17060  Biso   1.000  F
  F57      1.0000 0.23950  0.95390  0.33470  Biso   1.000  F
  F58      1.0000 0.23950  0.54610  0.83470  Biso   1.000  F
  F59      1.0000 0.76050  0.04610  0.66530  Biso   1.000  F
  F60      1.0000 0.76050  0.45390  0.16530  Biso   1.000  F
  F61      1.0000 0.28400  0.99760  0.37240  Biso   1.000  F
  F62      1.0000 0.28400  0.50240  0.87240  Biso   1.000  F
  F63      1.0000 0.71600  0.00240  0.62760  Biso   1.000  F
  F64      1.0000 0.71600  0.49760  0.12760  Biso   1.000  F
  F65      1.0000 0.20560  0.97540  0.27500  Biso   1.000  F
  F66      1.0000 0.20560  0.52460  0.77500  Biso   1.000  F
  F67      1.0000 0.79440  0.02460  0.72500  Biso   1.000  F
  F68      1.0000 0.79440  0.47540  0.22500  Biso   1.000  F
  F69      1.0000 0.29110  0.01980  0.27100  Biso   1.000  F
  F70      1.0000 0.29110  0.48020  0.77100  Biso   1.000  F
  F71      1.0000 0.70890  0.98020  0.72900  Biso   1.000  F
  F72      1.0000 0.70890  0.51980  0.22900  Biso   1.000  F
  O1       1.0000 0.73140  0.91970  0.98050  Biso   1.000  O
  O2       1.0000 0.73140  0.58030  0.48050  Biso   1.000  O
  O3       1.0000 0.26860  0.08030  0.01950  Biso   1.000  O
  O4       1.0000 0.26860  0.41970  0.51950  Biso   1.000  O
  O5       1.0000 0.88600  0.95640  0.42500  Biso   1.000  O
  O6       1.0000 0.88600  0.54360  0.92500  Biso   1.000  O
  O7       1.0000 0.11400  0.04360  0.57500  Biso   1.000  O
  O8       1.0000 0.11400  0.45640  0.07500  Biso   1.000  O
  Cu9      1.0000 0.02198  0.50686  0.30970  Biso   1.000  Cu
  Cu10     1.0000 0.02198  0.99314  0.80970  Biso   1.000  Cu
  Cu11     1.0000 0.97802  0.49314  0.69030  Biso   1.000  Cu
  Cu12     1.0000 0.97802  0.00686  0.19030  Biso   1.000  Cu
  Cu13     1.0000 0.02204  0.83637  0.21365  Biso   1.000  Cu
  Cu14     1.0000 0.02204  0.66363  0.71365  Biso   1.000  Cu
  Cu15     1.0000 0.97796  0.16363  0.78635  Biso   1.000  Cu
  Cu16     1.0000 0.97796  0.33637  0.28635  Biso   1.000  Cu
  Fe9      1.0000 0.16943  0.67539  0.34775  Biso   1.000  Fe
  Fe10     1.0000 0.16943  0.82461  0.84775  Biso   1.000  Fe
  Fe11     1.0000 0.83057  0.32461  0.65225  Biso   1.000  Fe
  Fe12     1.0000 0.83057  0.17539  0.15225  Biso   1.000  Fe
  Fe13     1.0000 0.87087  0.66535  0.15859  Biso   1.000  Fe
  Fe14     1.0000 0.87087  0.83465  0.65859  Biso   1.000  Fe
  Fe15     1.0000 0.12913  0.33465  0.84141  Biso   1.000  Fe
  Fe16     1.0000 0.12913  0.16535  0.34141  Biso   1.000  Fe
  Cl5      1.0000 0.99778  0.42060  0.34971  Biso   1.000  Cl
  Cl6      1.0000 0.99778  0.07940  0.84971  Biso   1.000  Cl
  Cl7      1.0000 0.00222  0.57940  0.65029  Biso   1.000  Cl
  Cl8      1.0000 0.00222  0.92060  0.15029  Biso   1.000  Cl
  N49      1.0000 0.97170  0.48510  0.21480  Biso   1.000  N
  N50      1.0000 0.97170  0.01490  0.71480  Biso   1.000  N
  N51      1.0000 0.02830  0.51490  0.78520  Biso   1.000  N
  N52      1.0000 0.02830  0.98510  0.28520  Biso   1.000  N
  N53      1.0000 0.05940  0.50770  0.20000  Biso   1.000  N
  N54      1.0000 0.05940  0.99230  0.70000  Biso   1.000  N
  N55      1.0000 0.94060  0.49230  0.80000  Biso   1.000  N
  N56      1.0000 0.94060  0.00770  0.30000  Biso   1.000  N
  H193     1.0000 0.08350  0.50440  0.17920  Biso   1.000  H
  H194     1.0000 0.08350  0.99560  0.67920  Biso   1.000  H
  H195     1.0000 0.91650  0.49560  0.82080  Biso   1.000  H
  H196     1.0000 0.91650  0.00440  0.32080  Biso   1.000  H
  N57      1.0000 0.07990  0.53320  0.26450  Biso   1.000  N
  N58      1.0000 0.07990  0.96680  0.76450  Biso   1.000  N
  N59      1.0000 0.92010  0.46680  0.73550  Biso   1.000  N
  N60      1.0000 0.92010  0.03320  0.23550  Biso   1.000  N
  N61      1.0000 0.06120  0.80980  0.31750  Biso   1.000  N
  N62      1.0000 0.06120  0.69020  0.81750  Biso   1.000  N
  N63      1.0000 0.93880  0.19020  0.68250  Biso   1.000  N
  N64      1.0000 0.93880  0.30980  0.18250  Biso   1.000  N
  N65      1.0000 0.02750  0.83390  0.34890  Biso   1.000  N
  N66      1.0000 0.02750  0.66610  0.84890  Biso   1.000  N
  N67      1.0000 0.97250  0.16610  0.65110  Biso   1.000  N
  N68      1.0000 0.97250  0.33390  0.15110  Biso   1.000  N
  H197     1.0000 0.04340  0.83930  0.39310  Biso   1.000  H
  H198     1.0000 0.04340  0.66070  0.89310  Biso   1.000  H
  H199     1.0000 0.95660  0.16070  0.60690  Biso   1.000  H
  H200     1.0000 0.95660  0.33930  0.10690  Biso   1.000  H
  N69      1.0000 0.95350  0.85250  0.23820  Biso   1.000  N
  N70      1.0000 0.95350  0.64750  0.73820  Biso   1.000  N
  N71      1.0000 0.04650  0.14750  0.76180  Biso   1.000  N
  N72      1.0000 0.04650  0.35250  0.26180  Biso   1.000  N
  N73      1.0000 0.07060  0.52020  0.40910  Biso   1.000  N
  N74      1.0000 0.07060  0.97980  0.90910  Biso   1.000  N
  N75      1.0000 0.92940  0.47980  0.59090  Biso   1.000  N
  N76      1.0000 0.92940  0.02020  0.09090  Biso   1.000  N
  N77      1.0000 0.97970  0.56360  0.39770  Biso   1.000  N
  N78      1.0000 0.97970  0.93640  0.89770  Biso   1.000  N
  N79      1.0000 0.02030  0.43640  0.60230  Biso   1.000  N
  N80      1.0000 0.02030  0.06360  0.10230  Biso   1.000  N
  H201     1.0000 0.95370  0.57340  0.41420  Biso   1.000  H
  H202     1.0000 0.95370  0.92660  0.91420  Biso   1.000  H
  H203     1.0000 0.04630  0.42660  0.58580  Biso   1.000  H
  H204     1.0000 0.04630  0.07340  0.08580  Biso   1.000  H
  N81      1.0000 0.96270  0.56500  0.32650  Biso   1.000  N
  N82      1.0000 0.96270  0.93500  0.82650  Biso   1.000  N
  N83      1.0000 0.03730  0.43500  0.67350  Biso   1.000  N
  N84      1.0000 0.03730  0.06500  0.17350  Biso   1.000  N
  N85      1.0000 0.98590  0.77490  0.13070  Biso   1.000  N
  N86      1.0000 0.98590  0.72510  0.63070  Biso   1.000  N
  N87      1.0000 0.01410  0.22510  0.86930  Biso   1.000  N
  N88      1.0000 0.01410  0.27490  0.36930  Biso   1.000  N
  N89      1.0000 0.02510  0.77850  0.09860  Biso   1.000  N
  N90      1.0000 0.02510  0.72150  0.59860  Biso   1.000  N
  N91      1.0000 0.97490  0.22150  0.90140  Biso   1.000  N
  N92      1.0000 0.97490  0.27850  0.40140  Biso   1.000  N
  H205     1.0000 0.01370  0.76480  0.05770  Biso   1.000  H
  H206     1.0000 0.01370  0.73520  0.55770  Biso   1.000  H
  H207     1.0000 0.98630  0.23520  0.94230  Biso   1.000  H
  H208     1.0000 0.98630  0.26480  0.44230  Biso   1.000  H
  N93      1.0000 0.09330  0.82920  0.19090  Biso   1.000  N
  N94      1.0000 0.09330  0.67080  0.69090  Biso   1.000  N
  N95      1.0000 0.90670  0.17080  0.80910  Biso   1.000  N
  N96      1.0000 0.90670  0.32920  0.30910  Biso   1.000  N
  C193     1.0000 0.91250  0.46760  0.18930  Biso   1.000  C
  C194     1.0000 0.91250  0.03240  0.68930  Biso   1.000  C
  C195     1.0000 0.08750  0.53240  0.81070  Biso   1.000  C
  C196     1.0000 0.08750  0.96760  0.31070  Biso   1.000  C
  H209     1.0000 0.89350  0.46490  0.21940  Biso   1.000  H
  H210     1.0000 0.89350  0.03510  0.71940  Biso   1.000  H
  H211     1.0000 0.10650  0.53510  0.78060  Biso   1.000  H
  H212     1.0000 0.10650  0.96490  0.28060  Biso   1.000  H
  C197     1.0000 0.87740  0.45320  0.12080  Biso   1.000  C
  C198     1.0000 0.87740  0.04680  0.62080  Biso   1.000  C
  C199     1.0000 0.12260  0.54680  0.87920  Biso   1.000  C
  C200     1.0000 0.12260  0.95320  0.37920  Biso   1.000  C
  H213     1.0000 0.83540  0.44230  0.10430  Biso   1.000  H
  H214     1.0000 0.83540  0.05770  0.60430  Biso   1.000  H
  H215     1.0000 0.16460  0.55770  0.89570  Biso   1.000  H
  H216     1.0000 0.16460  0.94230  0.39570  Biso   1.000  H
  C201     1.0000 0.90720  0.45590  0.07790  Biso   1.000  C
  C202     1.0000 0.90720  0.04410  0.57790  Biso   1.000  C
  C203     1.0000 0.09280  0.54410  0.92210  Biso   1.000  C
  C204     1.0000 0.09280  0.95590  0.42210  Biso   1.000  C
  H217     1.0000 0.88560  0.44480  0.03180  Biso   1.000  H
  H218     1.0000 0.88560  0.05520  0.53180  Biso   1.000  H
  H219     1.0000 0.11440  0.55520  0.96820  Biso   1.000  H
  H220     1.0000 0.11440  0.94480  0.46820  Biso   1.000  H
  C205     1.0000 0.96820  0.47440  0.10180  Biso   1.000  C
  C206     1.0000 0.96820  0.02560  0.60180  Biso   1.000  C
  C207     1.0000 0.03180  0.52560  0.89820  Biso   1.000  C
  C208     1.0000 0.03180  0.97440  0.39820  Biso   1.000  C
  H221     1.0000 0.98790  0.47730  0.07240  Biso   1.000  H
  H222     1.0000 0.98790  0.02270  0.57240  Biso   1.000  H
  H223     1.0000 0.01210  0.52270  0.92760  Biso   1.000  H
  H224     1.0000 0.01210  0.97730  0.42760  Biso   1.000  H
  C209     1.0000 0.99970  0.48870  0.17240  Biso   1.000  C
  C210     1.0000 0.99970  0.01130  0.67240  Biso   1.000  C
  C211     1.0000 0.00030  0.51130  0.82760  Biso   1.000  C
  C212     1.0000 0.00030  0.98870  0.32760  Biso   1.000  C
  C213     1.0000 0.13360  0.55800  0.28680  Biso   1.000  C
  C214     1.0000 0.13360  0.94200  0.78680  Biso   1.000  C
  C215     1.0000 0.86640  0.44200  0.71320  Biso   1.000  C
  C216     1.0000 0.86640  0.05800  0.21320  Biso   1.000  C
  C217     1.0000 0.17780  0.55420  0.25160  Biso   1.000  C
  C218     1.0000 0.17780  0.94580  0.75160  Biso   1.000  C
  C219     1.0000 0.82220  0.44580  0.74840  Biso   1.000  C
  C220     1.0000 0.82220  0.05420  0.24840  Biso   1.000  C
  H225     1.0000 0.15980  0.53000  0.21250  Biso   1.000  H
  H226     1.0000 0.15980  0.97000  0.71250  Biso   1.000  H
  H227     1.0000 0.84020  0.47000  0.78750  Biso   1.000  H
  H228     1.0000 0.84020  0.03000  0.28750  Biso   1.000  H
  H229     1.0000 0.21820  0.54040  0.28430  Biso   1.000  H
  H230     1.0000 0.21820  0.95960  0.78430  Biso   1.000  H
  H231     1.0000 0.78180  0.45960  0.71570  Biso   1.000  H
  H232     1.0000 0.78180  0.04040  0.21570  Biso   1.000  H
  H233     1.0000 0.18310  0.58960  0.23610  Biso   1.000  H
  H234     1.0000 0.18310  0.91040  0.73610  Biso   1.000  H
  H235     1.0000 0.81690  0.41040  0.76390  Biso   1.000  H
  H236     1.0000 0.81690  0.08960  0.26390  Biso   1.000  H
  C221     1.0000 0.15260  0.59360  0.34770  Biso   1.000  C
  C222     1.0000 0.15260  0.90640  0.84770  Biso   1.000  C
  C223     1.0000 0.84740  0.40640  0.65230  Biso   1.000  C
  C224     1.0000 0.84740  0.09360  0.15230  Biso   1.000  C
  C225     1.0000 0.10980  0.62410  0.36590  Biso   1.000  C
  C226     1.0000 0.10980  0.87590  0.86590  Biso   1.000  C
  C227     1.0000 0.89020  0.37590  0.63410  Biso   1.000  C
  C228     1.0000 0.89020  0.12410  0.13410  Biso   1.000  C
  H237     1.0000 0.06350  0.62380  0.34080  Biso   1.000  H
  H238     1.0000 0.06350  0.87620  0.84080  Biso   1.000  H
  H239     1.0000 0.93650  0.37620  0.65920  Biso   1.000  H
  H240     1.0000 0.93650  0.12380  0.15920  Biso   1.000  H
  C229     1.0000 0.14640  0.65440  0.42700  Biso   1.000  C
  C230     1.0000 0.14640  0.84560  0.92700  Biso   1.000  C
  C231     1.0000 0.85360  0.34560  0.57300  Biso   1.000  C
  C232     1.0000 0.85360  0.15440  0.07300  Biso   1.000  C
  H241     1.0000 0.13010  0.67890  0.45170  Biso   1.000  H
  H242     1.0000 0.13010  0.82110  0.95170  Biso   1.000  H
  H243     1.0000 0.86990  0.32110  0.54830  Biso   1.000  H
  H244     1.0000 0.86990  0.17890  0.04830  Biso   1.000  H
  C233     1.0000 0.21000  0.64360  0.44480  Biso   1.000  C
  C234     1.0000 0.21000  0.85640  0.94480  Biso   1.000  C
  C235     1.0000 0.79000  0.35640  0.55520  Biso   1.000  C
  C236     1.0000 0.79000  0.14360  0.05520  Biso   1.000  C
  H245     1.0000 0.24580  0.65980  0.48450  Biso   1.000  H
  H246     1.0000 0.24580  0.84020  0.98450  Biso   1.000  H
  H247     1.0000 0.75420  0.34020  0.51550  Biso   1.000  H
  H248     1.0000 0.75420  0.15980  0.01550  Biso   1.000  H
  C237     1.0000 0.21550  0.60680  0.39710  Biso   1.000  C
  C238     1.0000 0.21550  0.89320  0.89710  Biso   1.000  C
  C239     1.0000 0.78450  0.39320  0.60290  Biso   1.000  C
  C240     1.0000 0.78450  0.10680  0.10290  Biso   1.000  C
  H249     1.0000 0.25490  0.59240  0.39820  Biso   1.000  H
  H250     1.0000 0.25490  0.90760  0.89820  Biso   1.000  H
  H251     1.0000 0.74510  0.40760  0.60180  Biso   1.000  H
  H252     1.0000 0.74510  0.09240  0.10180  Biso   1.000  H
  C241     1.0000 0.11740  0.72320  0.26460  Biso   1.000  C
  C242     1.0000 0.11740  0.77680  0.76460  Biso   1.000  C
  C243     1.0000 0.88260  0.27680  0.73540  Biso   1.000  C
  C244     1.0000 0.88260  0.22320  0.23540  Biso   1.000  C
  H253     1.0000 0.07160  0.72040  0.23570  Biso   1.000  H
  H254     1.0000 0.07160  0.77960  0.73570  Biso   1.000  H
  H255     1.0000 0.92840  0.27960  0.76430  Biso   1.000  H
  H256     1.0000 0.92840  0.22040  0.26430  Biso   1.000  H
  C245     1.0000 0.16440  0.69650  0.25240  Biso   1.000  C
  C246     1.0000 0.16440  0.80350  0.75240  Biso   1.000  C
  C247     1.0000 0.83560  0.30350  0.74760  Biso   1.000  C
  C248     1.0000 0.83560  0.19650  0.24760  Biso   1.000  C
  H257     1.0000 0.15730  0.67160  0.21390  Biso   1.000  H
  H258     1.0000 0.15730  0.82840  0.71390  Biso   1.000  H
  H259     1.0000 0.84270  0.32840  0.78610  Biso   1.000  H
  H260     1.0000 0.84270  0.17160  0.28610  Biso   1.000  H
  C249     1.0000 0.22380  0.71090  0.30630  Biso   1.000  C
  C250     1.0000 0.22380  0.78910  0.80630  Biso   1.000  C
  C251     1.0000 0.77620  0.28910  0.69370  Biso   1.000  C
  C252     1.0000 0.77620  0.21090  0.19370  Biso   1.000  C
  H261     1.0000 0.26510  0.69790  0.31150  Biso   1.000  H
  H262     1.0000 0.26510  0.80210  0.81150  Biso   1.000  H
  H263     1.0000 0.73490  0.30210  0.68850  Biso   1.000  H
  H264     1.0000 0.73490  0.19790  0.18850  Biso   1.000  H
  C253     1.0000 0.21340  0.74710  0.35130  Biso   1.000  C
  C254     1.0000 0.21340  0.75290  0.85130  Biso   1.000  C
  C255     1.0000 0.78660  0.25290  0.64870  Biso   1.000  C
  C256     1.0000 0.78660  0.24710  0.14870  Biso   1.000  C
  H265     1.0000 0.24640  0.76360  0.39320  Biso   1.000  H
  H266     1.0000 0.24640  0.73640  0.89320  Biso   1.000  H
  H267     1.0000 0.75360  0.23640  0.60680  Biso   1.000  H
  H268     1.0000 0.75360  0.26360  0.10680  Biso   1.000  H
  C257     1.0000 0.14760  0.75570  0.32620  Biso   1.000  C
  C258     1.0000 0.14760  0.74430  0.82620  Biso   1.000  C
  C259     1.0000 0.85240  0.24430  0.67380  Biso   1.000  C
  C260     1.0000 0.85240  0.25570  0.17380  Biso   1.000  C
  C261     1.0000 0.11620  0.78960  0.35850  Biso   1.000  C
  C262     1.0000 0.11620  0.71040  0.85850  Biso   1.000  C
  C263     1.0000 0.88380  0.21040  0.64150  Biso   1.000  C
  C264     1.0000 0.88380  0.28960  0.14150  Biso   1.000  C
  C265     1.0000 0.14770  0.79840  0.43550  Biso   1.000  C
  C266     1.0000 0.14770  0.70160  0.93550  Biso   1.000  C
  C267     1.0000 0.85230  0.20160  0.56450  Biso   1.000  C
  C268     1.0000 0.85230  0.29840  0.06450  Biso   1.000  C
  H269     1.0000 0.12170  0.82150  0.44860  Biso   1.000  H
  H270     1.0000 0.12170  0.67850  0.94860  Biso   1.000  H
  H271     1.0000 0.87830  0.17850  0.55140  Biso   1.000  H
  H272     1.0000 0.87830  0.32150  0.05140  Biso   1.000  H
  H273     1.0000 0.18820  0.81540  0.44840  Biso   1.000  H
  H274     1.0000 0.18820  0.68460  0.94840  Biso   1.000  H
  H275     1.0000 0.81180  0.18460  0.55160  Biso   1.000  H
  H276     1.0000 0.81180  0.31540  0.05160  Biso   1.000  H
  H277     1.0000 0.15360  0.76400  0.45880  Biso   1.000  H
  H278     1.0000 0.15360  0.73600  0.95880  Biso   1.000  H
  H279     1.0000 0.84640  0.23600  0.54120  Biso   1.000  H
  H280     1.0000 0.84640  0.26400  0.04120  Biso   1.000  H
  C269     1.0000 0.96700  0.84870  0.30490  Biso   1.000  C
  C270     1.0000 0.96700  0.65130  0.80490  Biso   1.000  C
  C271     1.0000 0.03300  0.15130  0.69510  Biso   1.000  C
  C272     1.0000 0.03300  0.34870  0.19510  Biso   1.000  C
  C273     1.0000 0.92210  0.86090  0.33010  Biso   1.000  C
  C274     1.0000 0.92210  0.63910  0.83010  Biso   1.000  C
  C275     1.0000 0.07790  0.13910  0.66990  Biso   1.000  C
  C276     1.0000 0.07790  0.36090  0.16990  Biso   1.000  C
  H281     1.0000 0.93240  0.85810  0.37730  Biso   1.000  H
  H282     1.0000 0.93240  0.64190  0.87730  Biso   1.000  H
  H283     1.0000 0.06760  0.14190  0.62270  Biso   1.000  H
  H284     1.0000 0.06760  0.35810  0.12270  Biso   1.000  H
  C277     1.0000 0.86370  0.87660  0.28410  Biso   1.000  C
  C278     1.0000 0.86370  0.62340  0.78410  Biso   1.000  C
  C279     1.0000 0.13630  0.12340  0.71590  Biso   1.000  C
  C280     1.0000 0.13630  0.37660  0.21590  Biso   1.000  C
  H285     1.0000 0.83370  0.88550  0.29990  Biso   1.000  H
  H286     1.0000 0.83370  0.61450  0.79990  Biso   1.000  H
  H287     1.0000 0.16630  0.11450  0.70010  Biso   1.000  H
  H288     1.0000 0.16630  0.38550  0.20010  Biso   1.000  H
  C281     1.0000 0.84790  0.87980  0.21450  Biso   1.000  C
  C282     1.0000 0.84790  0.62020  0.71450  Biso   1.000  C
  C283     1.0000 0.15210  0.12020  0.78550  Biso   1.000  C
  C284     1.0000 0.15210  0.37980  0.28550  Biso   1.000  C
  H289     1.0000 0.80710  0.88950  0.18270  Biso   1.000  H
  H290     1.0000 0.80710  0.61050  0.68270  Biso   1.000  H
  H291     1.0000 0.19290  0.11050  0.81730  Biso   1.000  H
  H292     1.0000 0.19290  0.38950  0.31730  Biso   1.000  H
  C285     1.0000 0.89370  0.86820  0.19280  Biso   1.000  C
  C286     1.0000 0.89370  0.63180  0.69280  Biso   1.000  C
  C287     1.0000 0.10630  0.13180  0.80720  Biso   1.000  C
  C288     1.0000 0.10630  0.36820  0.30720  Biso   1.000  C
  H293     1.0000 0.88370  0.87110  0.14570  Biso   1.000  H
  H294     1.0000 0.88370  0.62890  0.64570  Biso   1.000  H
  H295     1.0000 0.11630  0.12890  0.85430  Biso   1.000  H
  H296     1.0000 0.11630  0.37110  0.35430  Biso   1.000  H
  C289     1.0000 0.12870  0.49960  0.45050  Biso   1.000  C
  C290     1.0000 0.12870  0.00040  0.95050  Biso   1.000  C
  C291     1.0000 0.87130  0.50040  0.54950  Biso   1.000  C
  C292     1.0000 0.87130  0.99960  0.04950  Biso   1.000  C
  H297     1.0000 0.15140  0.48270  0.42940  Biso   1.000  H
  H298     1.0000 0.15140  0.01730  0.92940  Biso   1.000  H
  H299     1.0000 0.84860  0.51730  0.57060  Biso   1.000  H
  H300     1.0000 0.84860  0.98270  0.07060  Biso   1.000  H
  C293     1.0000 0.15600  0.50230  0.52280  Biso   1.000  C
  C294     1.0000 0.15600  0.99770  0.02280  Biso   1.000  C
  C295     1.0000 0.84400  0.49770  0.47720  Biso   1.000  C
  C296     1.0000 0.84400  0.00230  0.97720  Biso   1.000  C
  H301     1.0000 0.19510  0.48660  0.55010  Biso   1.000  H
  H302     1.0000 0.19510  0.01340  0.05010  Biso   1.000  H
  H303     1.0000 0.80490  0.51340  0.44990  Biso   1.000  H
  H304     1.0000 0.80490  0.98660  0.94990  Biso   1.000  H
  C297     1.0000 0.12180  0.52970  0.55190  Biso   1.000  C
  C298     1.0000 0.12180  0.97030  0.05190  Biso   1.000  C
  C299     1.0000 0.87820  0.47030  0.44810  Biso   1.000  C
  C300     1.0000 0.87820  0.02970  0.94810  Biso   1.000  C
  H305     1.0000 0.13910  0.53350  0.60010  Biso   1.000  H
  H306     1.0000 0.13910  0.96650  0.10010  Biso   1.000  H
  H307     1.0000 0.86090  0.46650  0.39990  Biso   1.000  H
  H308     1.0000 0.86090  0.03350  0.89990  Biso   1.000  H
  C301     1.0000 0.06370  0.55130  0.51220  Biso   1.000  C
  C302     1.0000 0.06370  0.94870  0.01220  Biso   1.000  C
  C303     1.0000 0.93630  0.44870  0.48780  Biso   1.000  C
  C304     1.0000 0.93630  0.05130  0.98780  Biso   1.000  C
  H309     1.0000 0.04080  0.56900  0.53240  Biso   1.000  H
  H310     1.0000 0.04080  0.93100  0.03240  Biso   1.000  H
  H311     1.0000 0.95920  0.43100  0.46760  Biso   1.000  H
  H312     1.0000 0.95920  0.06900  0.96760  Biso   1.000  H
  C305     1.0000 0.03960  0.54590  0.44020  Biso   1.000  C
  C306     1.0000 0.03960  0.95410  0.94020  Biso   1.000  C
  C307     1.0000 0.96040  0.45410  0.55980  Biso   1.000  C
  C308     1.0000 0.96040  0.04590  0.05980  Biso   1.000  C
  C309     1.0000 0.90750  0.58620  0.28650  Biso   1.000  C
  C310     1.0000 0.90750  0.91380  0.78650  Biso   1.000  C
  C311     1.0000 0.09250  0.41380  0.71350  Biso   1.000  C
  C312     1.0000 0.09250  0.08620  0.21350  Biso   1.000  C
  C313     1.0000 0.85970  0.60080  0.31170  Biso   1.000  C
  C314     1.0000 0.85970  0.89920  0.81170  Biso   1.000  C
  C315     1.0000 0.14030  0.39920  0.68830  Biso   1.000  C
  C316     1.0000 0.14030  0.10080  0.18830  Biso   1.000  C
  H313     1.0000 0.87630  0.59330  0.36060  Biso   1.000  H
  H314     1.0000 0.87630  0.90670  0.86060  Biso   1.000  H
  H315     1.0000 0.12370  0.40670  0.63940  Biso   1.000  H
  H316     1.0000 0.12370  0.09330  0.13940  Biso   1.000  H
  H317     1.0000 0.82190  0.57980  0.28700  Biso   1.000  H
  H318     1.0000 0.82190  0.92020  0.78700  Biso   1.000  H
  H319     1.0000 0.17810  0.42020  0.71300  Biso   1.000  H
  H320     1.0000 0.17810  0.07980  0.21300  Biso   1.000  H
  H321     1.0000 0.84980  0.63890  0.30370  Biso   1.000  H
  H322     1.0000 0.84980  0.86110  0.80370  Biso   1.000  H
  H323     1.0000 0.15020  0.36110  0.69630  Biso   1.000  H
  H324     1.0000 0.15020  0.13890  0.19630  Biso   1.000  H
  C317     1.0000 0.89410  0.59380  0.21340  Biso   1.000  C
  C318     1.0000 0.89410  0.90620  0.71340  Biso   1.000  C
  C319     1.0000 0.10590  0.40620  0.78660  Biso   1.000  C
  C320     1.0000 0.10590  0.09380  0.28660  Biso   1.000  C
  C321     1.0000 0.83210  0.59080  0.15570  Biso   1.000  C
  C322     1.0000 0.83210  0.90920  0.65570  Biso   1.000  C
  C323     1.0000 0.16790  0.40920  0.84430  Biso   1.000  C
  C324     1.0000 0.16790  0.09080  0.34430  Biso   1.000  C
  H325     1.0000 0.79210  0.58320  0.15820  Biso   1.000  H
  H326     1.0000 0.79210  0.91680  0.65820  Biso   1.000  H
  H327     1.0000 0.20790  0.41680  0.84180  Biso   1.000  H
  H328     1.0000 0.20790  0.08320  0.34180  Biso   1.000  H
  C325     1.0000 0.84020  0.59890  0.09480  Biso   1.000  C
  C326     1.0000 0.84020  0.90110  0.59480  Biso   1.000  C
  C327     1.0000 0.15980  0.40110  0.90520  Biso   1.000  C
  C328     1.0000 0.15980  0.09890  0.40520  Biso   1.000  C
  H329     1.0000 0.80620  0.59900  0.04720  Biso   1.000  H
  H330     1.0000 0.80620  0.90100  0.54720  Biso   1.000  H
  H331     1.0000 0.19380  0.40100  0.95280  Biso   1.000  H
  H332     1.0000 0.19380  0.09900  0.45280  Biso   1.000  H
  C329     1.0000 0.90490  0.60820  0.11320  Biso   1.000  C
  C330     1.0000 0.90490  0.89180  0.61320  Biso   1.000  C
  C331     1.0000 0.09510  0.39180  0.88680  Biso   1.000  C
  C332     1.0000 0.09510  0.10820  0.38680  Biso   1.000  C
  H333     1.0000 0.92340  0.61560  0.08090  Biso   1.000  H
  H334     1.0000 0.92340  0.88440  0.58090  Biso   1.000  H
  H335     1.0000 0.07660  0.38440  0.91910  Biso   1.000  H
  H336     1.0000 0.07660  0.11560  0.41910  Biso   1.000  H
  C333     1.0000 0.93870  0.60610  0.18760  Biso   1.000  C
  C334     1.0000 0.93870  0.89390  0.68760  Biso   1.000  C
  C335     1.0000 0.06130  0.39390  0.81240  Biso   1.000  C
  C336     1.0000 0.06130  0.10610  0.31240  Biso   1.000  C
  H337     1.0000 0.98440  0.61120  0.21520  Biso   1.000  H
  H338     1.0000 0.98440  0.88880  0.71520  Biso   1.000  H
  H339     1.0000 0.01560  0.38880  0.78480  Biso   1.000  H
  H340     1.0000 0.01560  0.11120  0.28480  Biso   1.000  H
  C337     1.0000 0.82660  0.73310  0.10320  Biso   1.000  C
  C338     1.0000 0.82660  0.76690  0.60320  Biso   1.000  C
  C339     1.0000 0.17340  0.26690  0.89680  Biso   1.000  C
  C340     1.0000 0.17340  0.23310  0.39680  Biso   1.000  C
  H341     1.0000 0.79830  0.73480  0.05330  Biso   1.000  H
  H342     1.0000 0.79830  0.76520  0.55330  Biso   1.000  H
  H343     1.0000 0.20170  0.26520  0.94670  Biso   1.000  H
  H344     1.0000 0.20170  0.23480  0.44670  Biso   1.000  H
  C341     1.0000 0.80880  0.72410  0.15740  Biso   1.000  C
  C342     1.0000 0.80880  0.77590  0.65740  Biso   1.000  C
  C343     1.0000 0.19120  0.27590  0.84260  Biso   1.000  C
  C344     1.0000 0.19120  0.22410  0.34260  Biso   1.000  C
  H345     1.0000 0.76540  0.71760  0.15140  Biso   1.000  H
  H346     1.0000 0.76540  0.78240  0.65140  Biso   1.000  H
  H347     1.0000 0.23460  0.28240  0.84860  Biso   1.000  H
  H348     1.0000 0.23460  0.21760  0.34860  Biso   1.000  H
  C345     1.0000 0.86250  0.72540  0.22090  Biso   1.000  C
  C346     1.0000 0.86250  0.77460  0.72090  Biso   1.000  C
  C347     1.0000 0.13750  0.27460  0.77910  Biso   1.000  C
  C348     1.0000 0.13750  0.22540  0.27910  Biso   1.000  C
  H349     1.0000 0.86310  0.71980  0.26670  Biso   1.000  H
  H350     1.0000 0.86310  0.78020  0.76670  Biso   1.000  H
  H351     1.0000 0.13690  0.28020  0.73330  Biso   1.000  H
  H352     1.0000 0.13690  0.21980  0.23330  Biso   1.000  H
  C349     1.0000 0.91630  0.73360  0.20860  Biso   1.000  C
  C350     1.0000 0.91630  0.76640  0.70860  Biso   1.000  C
  C351     1.0000 0.08370  0.26640  0.79140  Biso   1.000  C
  C352     1.0000 0.08370  0.23360  0.29140  Biso   1.000  C
  H353     1.0000 0.96040  0.73650  0.24360  Biso   1.000  H
  H354     1.0000 0.96040  0.76350  0.74360  Biso   1.000  H
  H355     1.0000 0.03960  0.26350  0.75640  Biso   1.000  H
  H356     1.0000 0.03960  0.23650  0.25640  Biso   1.000  H
  C353     1.0000 0.89320  0.73940  0.13480  Biso   1.000  C
  C354     1.0000 0.89320  0.76060  0.63480  Biso   1.000  C
  C355     1.0000 0.10680  0.26060  0.86520  Biso   1.000  C
  C356     1.0000 0.10680  0.23940  0.36520  Biso   1.000  C
  C357     1.0000 0.93290  0.74960  0.09730  Biso   1.000  C
  C358     1.0000 0.93290  0.75040  0.59730  Biso   1.000  C
  C359     1.0000 0.06710  0.25040  0.90270  Biso   1.000  C
  C360     1.0000 0.06710  0.24960  0.40270  Biso   1.000  C
  C361     1.0000 0.91060  0.72950  0.02310  Biso   1.000  C
  C362     1.0000 0.91060  0.77050  0.52310  Biso   1.000  C
  C363     1.0000 0.08940  0.27050  0.97690  Biso   1.000  C
  C364     1.0000 0.08940  0.22950  0.47690  Biso   1.000  C
  H357     1.0000 0.94120  0.73910  0.00640  Biso   1.000  H
  H358     1.0000 0.94120  0.76090  0.50640  Biso   1.000  H
  H359     1.0000 0.05880  0.26090  0.99360  Biso   1.000  H
  H360     1.0000 0.05880  0.23910  0.49360  Biso   1.000  H
  H361     1.0000 0.87060  0.74600  0.99400  Biso   1.000  H
  H362     1.0000 0.87060  0.75400  0.49400  Biso   1.000  H
  H363     1.0000 0.12940  0.25400  0.00600  Biso   1.000  H
  H364     1.0000 0.12940  0.24600  0.50600  Biso   1.000  H
  H365     1.0000 0.90590  0.69070  0.02210  Biso   1.000  H
  H366     1.0000 0.90590  0.80930  0.52210  Biso   1.000  H
  H367     1.0000 0.09410  0.30930  0.97790  Biso   1.000  H
  H368     1.0000 0.09410  0.19070  0.47790  Biso   1.000  H
  C365     1.0000 0.08250  0.80380  0.13160  Biso   1.000  C
  C366     1.0000 0.08250  0.69620  0.63160  Biso   1.000  C
  C367     1.0000 0.91750  0.19620  0.86840  Biso   1.000  C
  C368     1.0000 0.91750  0.30380  0.36840  Biso   1.000  C
  C369     1.0000 0.12750  0.80290  0.10430  Biso   1.000  C
  C370     1.0000 0.12750  0.69710  0.60430  Biso   1.000  C
  C371     1.0000 0.87250  0.19710  0.89570  Biso   1.000  C
  C372     1.0000 0.87250  0.30290  0.39570  Biso   1.000  C
  H369     1.0000 0.11920  0.78380  0.06350  Biso   1.000  H
  H370     1.0000 0.11920  0.71620  0.56350  Biso   1.000  H
  H371     1.0000 0.88080  0.21620  0.93650  Biso   1.000  H
  H372     1.0000 0.88080  0.28380  0.43650  Biso   1.000  H
  C373     1.0000 0.18230  0.82970  0.13770  Biso   1.000  C
  C374     1.0000 0.18230  0.67030  0.63770  Biso   1.000  C
  C375     1.0000 0.81770  0.17030  0.86230  Biso   1.000  C
  C376     1.0000 0.81770  0.32970  0.36230  Biso   1.000  C
  H373     1.0000 0.21120  0.83100  0.11870  Biso   1.000  H
  H374     1.0000 0.21120  0.66900  0.61870  Biso   1.000  H
  H375     1.0000 0.78880  0.16900  0.88130  Biso   1.000  H
  H376     1.0000 0.78880  0.33100  0.38130  Biso   1.000  H
  C377     1.0000 0.19600  0.85520  0.19980  Biso   1.000  C
  C378     1.0000 0.19600  0.64480  0.69980  Biso   1.000  C
  C379     1.0000 0.80400  0.14480  0.80020  Biso   1.000  C
  C380     1.0000 0.80400  0.35520  0.30020  Biso   1.000  C
  H377     1.0000 0.23480  0.87230  0.22480  Biso   1.000  H
  H378     1.0000 0.23480  0.62770  0.72480  Biso   1.000  H
  H379     1.0000 0.76520  0.12770  0.77520  Biso   1.000  H
  H380     1.0000 0.76520  0.37230  0.27520  Biso   1.000  H
  C381     1.0000 0.14980  0.85460  0.22380  Biso   1.000  C
  C382     1.0000 0.14980  0.64540  0.72380  Biso   1.000  C
  C383     1.0000 0.85020  0.14540  0.77620  Biso   1.000  C
  C384     1.0000 0.85020  0.35460  0.27620  Biso   1.000  C
  H381     1.0000 0.15810  0.87280  0.26510  Biso   1.000  H
  H382     1.0000 0.15810  0.62720  0.76510  Biso   1.000  H
  H383     1.0000 0.84190  0.12720  0.73490  Biso   1.000  H
  H384     1.0000 0.84190  0.37280  0.23490  Biso   1.000  H
  B13      1.0000 0.38180  0.75660  0.01510  Biso   1.000  B
  B14      1.0000 0.38180  0.74340  0.51510  Biso   1.000  B
  B15      1.0000 0.61820  0.24340  0.98490  Biso   1.000  B
  B16      1.0000 0.61820  0.25660  0.48490  Biso   1.000  B
  F73      1.0000 0.43090  0.74690  0.07910  Biso   1.000  F
  F74      1.0000 0.43090  0.75310  0.57910  Biso   1.000  F
  F75      1.0000 0.56910  0.25310  0.92090  Biso   1.000  F
  F76      1.0000 0.56910  0.24690  0.42090  Biso   1.000  F
  F77      1.0000 0.39010  0.80610  0.99090  Biso   1.000  F
  F78      1.0000 0.39010  0.69390  0.49090  Biso   1.000  F
  F79      1.0000 0.60990  0.19390  0.00910  Biso   1.000  F
  F80      1.0000 0.60990  0.30610  0.50910  Biso   1.000  F
  F81      1.0000 0.32650  0.75660  0.02120  Biso   1.000  F
  F82      1.0000 0.32650  0.74340  0.52120  Biso   1.000  F
  F83      1.0000 0.67350  0.24340  0.97880  Biso   1.000  F
  F84      1.0000 0.67350  0.25660  0.47880  Biso   1.000  F
  F85      1.0000 0.37910  0.71780  0.96830  Biso   1.000  F
  F86      1.0000 0.37910  0.78220  0.46830  Biso   1.000  F
  F87      1.0000 0.62090  0.28220  0.03170  Biso   1.000  F
  F88      1.0000 0.62090  0.21780  0.53170  Biso   1.000  F
  B17      1.0000 0.05760  0.88720  0.56200  Biso   1.000  B
  B18      1.0000 0.05760  0.61280  0.06200  Biso   1.000  B
  B19      1.0000 0.94240  0.11280  0.43800  Biso   1.000  B
  B20      1.0000 0.94240  0.38720  0.93800  Biso   1.000  B
  F89      1.0000 0.04810  0.86450  0.61480  Biso   1.000  F
  F90      1.0000 0.04810  0.63550  0.11480  Biso   1.000  F
  F91      1.0000 0.95190  0.13550  0.38520  Biso   1.000  F
  F92      1.0000 0.95190  0.36450  0.88520  Biso   1.000  F
  F93      1.0000 0.06600  0.94210  0.57540  Biso   1.000  F
  F94      1.0000 0.06600  0.55790  0.07540  Biso   1.000  F
  F95      1.0000 0.93400  0.05790  0.42460  Biso   1.000  F
  F96      1.0000 0.93400  0.44210  0.92460  Biso   1.000  F
  F97      1.0000 0.11580  0.86500  0.57400  Biso   1.000  F
  F98      1.0000 0.11580  0.63500  0.07400  Biso   1.000  F
  F99      1.0000 0.88420  0.13500  0.42600  Biso   1.000  F
  F100     1.0000 0.88420  0.36500  0.92600  Biso   1.000  F
  F101     1.0000 0.01060  0.87670  0.49720  Biso   1.000  F
  F102     1.0000 0.01060  0.62330  0.99720  Biso   1.000  F
  F103     1.0000 0.98940  0.12330  0.50280  Biso   1.000  F
  F104     1.0000 0.98940  0.37670  0.00280  Biso   1.000  F
  F105     1.0000 0.09740  0.93110  0.58100  Biso   1.000  F
  F106     1.0000 0.09740  0.56890  0.08100  Biso   1.000  F
  F107     1.0000 0.90260  0.06890  0.41900  Biso   1.000  F
  F108     1.0000 0.90260  0.43110  0.91900  Biso   1.000  F
  F109     1.0000 0.06960  0.86040  0.51320  Biso   1.000  F
  F110     1.0000 0.06960  0.63960  0.01320  Biso   1.000  F
  F111     1.0000 0.93040  0.13960  0.48680  Biso   1.000  F
  F112     1.0000 0.93040  0.36040  0.98680  Biso   1.000  F
  F113     1.0000 0.99500  0.90170  0.51930  Biso   1.000  F
  F114     1.0000 0.99500  0.59830  0.01930  Biso   1.000  F
  F115     1.0000 0.00500  0.09830  0.48070  Biso   1.000  F
  F116     1.0000 0.00500  0.40170  0.98070  Biso   1.000  F
  B21      1.0000 0.68690  0.97820  0.11850  Biso   1.000  B
  B22      1.0000 0.68690  0.52180  0.61850  Biso   1.000  B
  B23      1.0000 0.31310  0.02180  0.88150  Biso   1.000  B
  B24      1.0000 0.31310  0.47820  0.38150  Biso   1.000  B
  F117     1.0000 0.73630  0.97720  0.10090  Biso   1.000  F
  F118     1.0000 0.73630  0.52280  0.60090  Biso   1.000  F
  F119     1.0000 0.26370  0.02280  0.89910  Biso   1.000  F
  F120     1.0000 0.26370  0.47720  0.39910  Biso   1.000  F
  F121     1.0000 0.69250  0.99540  0.18200  Biso   1.000  F
  F122     1.0000 0.69250  0.50460  0.68200  Biso   1.000  F
  F123     1.0000 0.30750  0.00460  0.81800  Biso   1.000  F
  F124     1.0000 0.30750  0.49540  0.31800  Biso   1.000  F
  F125     1.0000 0.65600  0.93080  0.09000  Biso   1.000  F
  F126     1.0000 0.65600  0.56920  0.59000  Biso   1.000  F
  F127     1.0000 0.34400  0.06920  0.91000  Biso   1.000  F
  F128     1.0000 0.34400  0.43080  0.41000  Biso   1.000  F
  F129     1.0000 0.65490  0.02010  0.07420  Biso   1.000  F
  F130     1.0000 0.65490  0.47990  0.57420  Biso   1.000  F
  F131     1.0000 0.34510  0.97990  0.92580  Biso   1.000  F
  F132     1.0000 0.34510  0.52010  0.42580  Biso   1.000  F
  F133     1.0000 0.71840  0.95590  0.18360  Biso   1.000  F
  F134     1.0000 0.71840  0.54410  0.68360  Biso   1.000  F
  F135     1.0000 0.28160  0.04410  0.81640  Biso   1.000  F
  F136     1.0000 0.28160  0.45590  0.31640  Biso   1.000  F
  F137     1.0000 0.67240  0.03130  0.12430  Biso   1.000  F
  F138     1.0000 0.67240  0.46870  0.62430  Biso   1.000  F
  F139     1.0000 0.32760  0.96870  0.87570  Biso   1.000  F
  F140     1.0000 0.32760  0.53130  0.37570  Biso   1.000  F
  F141     1.0000 0.62990  0.95320  0.08290  Biso   1.000  F
  F142     1.0000 0.62990  0.54680  0.58290  Biso   1.000  F
  F143     1.0000 0.37010  0.04680  0.91710  Biso   1.000  F
  F144     1.0000 0.37010  0.45320  0.41710  Biso   1.000  F
  O9       1.0000 0.29540  0.62130  0.94540  Biso   1.000  O
  O10      1.0000 0.29540  0.87870  0.44540  Biso   1.000  O
  O11      1.0000 0.70460  0.37870  0.05460  Biso   1.000  O
  O12      1.0000 0.70460  0.12130  0.55460  Biso   1.000  O
  O13      1.0000 0.28800  0.55770  0.97500  Biso   1.000  O
  O14      1.0000 0.28800  0.94230  0.47500  Biso   1.000  O
  O15      1.0000 0.71200  0.44230  0.02500  Biso   1.000  O
  O16      1.0000 0.71200  0.05770  0.52500  Biso   1.000  O
