data_image0
_cell_length_a       27.257
_cell_length_b       14.035
_cell_length_c       21.84
_cell_angle_alpha    90
_cell_angle_beta     125.981
_cell_angle_gamma    90

_symmetry_space_group_name_H-M    "P 1"
_symmetry_int_tables_number       1

loop_
  _symmetry_equiv_pos_as_xyz
  'x, y, z'

loop_
  _atom_site_label
  _atom_site_occupancy
  _atom_site_fract_x
  _atom_site_fract_y
  _atom_site_fract_z
  _atom_site_thermal_displace_type
  _atom_site_B_iso_or_equiv
  _atom_site_type_symbol
  Cu1      1.0000 0.00000  0.58343  0.25000  Biso   1.000  Cu
  Cu2      1.0000 0.50000  0.08343  0.25000  Biso   1.000  Cu
  Cu3      1.0000 0.00000  0.41657  0.75000  Biso   1.000  Cu
  Cu4      1.0000 0.50000  0.91657  0.75000  Biso   1.000  Cu
  Br1      1.0000 0.00000  0.41217  0.25000  Biso   1.000  Br
  Br2      1.0000 0.50000  0.91217  0.25000  Biso   1.000  Br
  Br3      1.0000 0.00000  0.58783  0.75000  Biso   1.000  Br
  Br4      1.0000 0.50000  0.08783  0.75000  Biso   1.000  Br
  N1       1.0000 0.06720  0.63720  0.34560  Biso   1.000  N
  N2       1.0000 0.93280  0.63720  0.15440  Biso   1.000  N
  N3       1.0000 0.56720  0.13720  0.34560  Biso   1.000  N
  N4       1.0000 0.43280  0.13720  0.15440  Biso   1.000  N
  N5       1.0000 0.93280  0.36280  0.65440  Biso   1.000  N
  N6       1.0000 0.06720  0.36280  0.84560  Biso   1.000  N
  N7       1.0000 0.43280  0.86280  0.65440  Biso   1.000  N
  N8       1.0000 0.56720  0.86280  0.84560  Biso   1.000  N
  N9       1.0000 0.46350  0.94940  0.90270  Biso   1.000  N
  N10      1.0000 0.53650  0.94940  0.59730  Biso   1.000  N
  N11      1.0000 0.96350  0.44940  0.90270  Biso   1.000  N
  N12      1.0000 0.03650  0.44940  0.59730  Biso   1.000  N
  N13      1.0000 0.53650  0.05060  0.09730  Biso   1.000  N
  N14      1.0000 0.46350  0.05060  0.40270  Biso   1.000  N
  N15      1.0000 0.03650  0.55060  0.09730  Biso   1.000  N
  N16      1.0000 0.96350  0.55060  0.40270  Biso   1.000  N
  C1       1.0000 0.06900  0.72760  0.36320  Biso   1.000  C
  C2       1.0000 0.93100  0.72760  0.13680  Biso   1.000  C
  C3       1.0000 0.56900  0.22760  0.36320  Biso   1.000  C
  C4       1.0000 0.43100  0.22760  0.13680  Biso   1.000  C
  C5       1.0000 0.93100  0.27240  0.63680  Biso   1.000  C
  C6       1.0000 0.06900  0.27240  0.86320  Biso   1.000  C
  C7       1.0000 0.43100  0.77240  0.63680  Biso   1.000  C
  C8       1.0000 0.56900  0.77240  0.86320  Biso   1.000  C
  H1       1.0000 0.03570  0.76720  0.32800  Biso   1.000  H
  H2       1.0000 0.96430  0.76720  0.17200  Biso   1.000  H
  H3       1.0000 0.53570  0.26720  0.32800  Biso   1.000  H
  H4       1.0000 0.46430  0.26720  0.17200  Biso   1.000  H
  H5       1.0000 0.96430  0.23280  0.67200  Biso   1.000  H
  H6       1.0000 0.03570  0.23280  0.82800  Biso   1.000  H
  H7       1.0000 0.46430  0.73280  0.67200  Biso   1.000  H
  H8       1.0000 0.53570  0.73280  0.82800  Biso   1.000  H
  C9       1.0000 0.11780  0.76910  0.43170  Biso   1.000  C
  C10      1.0000 0.88220  0.76910  0.06830  Biso   1.000  C
  C11      1.0000 0.61780  0.26910  0.43170  Biso   1.000  C
  C12      1.0000 0.38220  0.26910  0.06830  Biso   1.000  C
  C13      1.0000 0.88220  0.23090  0.56830  Biso   1.000  C
  C14      1.0000 0.11780  0.23090  0.93170  Biso   1.000  C
  C15      1.0000 0.38220  0.73090  0.56830  Biso   1.000  C
  C16      1.0000 0.61780  0.73090  0.93170  Biso   1.000  C
  H9       1.0000 0.11670  0.83450  0.44200  Biso   1.000  H
  H10      1.0000 0.88330  0.83450  0.05800  Biso   1.000  H
  H11      1.0000 0.61670  0.33450  0.44200  Biso   1.000  H
  H12      1.0000 0.38330  0.33450  0.05800  Biso   1.000  H
  H13      1.0000 0.88330  0.16550  0.55800  Biso   1.000  H
  H14      1.0000 0.11670  0.16550  0.94200  Biso   1.000  H
  H15      1.0000 0.38330  0.66550  0.55800  Biso   1.000  H
  H16      1.0000 0.61670  0.66550  0.94200  Biso   1.000  H
  C17      1.0000 0.16750  0.71260  0.48380  Biso   1.000  C
  C18      1.0000 0.83250  0.71260  0.01620  Biso   1.000  C
  C19      1.0000 0.66750  0.21260  0.48380  Biso   1.000  C
  C20      1.0000 0.33250  0.21260  0.01620  Biso   1.000  C
  C21      1.0000 0.83250  0.28740  0.51620  Biso   1.000  C
  C22      1.0000 0.16750  0.28740  0.98380  Biso   1.000  C
  C23      1.0000 0.33250  0.78740  0.51620  Biso   1.000  C
  C24      1.0000 0.66750  0.78740  0.98380  Biso   1.000  C
  C25      1.0000 0.16440  0.62110  0.46280  Biso   1.000  C
  C26      1.0000 0.83560  0.62110  0.03720  Biso   1.000  C
  C27      1.0000 0.66440  0.12110  0.46280  Biso   1.000  C
  C28      1.0000 0.33560  0.12110  0.03720  Biso   1.000  C
  C29      1.0000 0.83560  0.37890  0.53720  Biso   1.000  C
  C30      1.0000 0.16440  0.37890  0.96280  Biso   1.000  C
  C31      1.0000 0.33560  0.87890  0.53720  Biso   1.000  C
  C32      1.0000 0.66440  0.87890  0.96280  Biso   1.000  C
  H17      1.0000 0.19730  0.57930  0.49500  Biso   1.000  H
  H18      1.0000 0.80270  0.57930  0.00500  Biso   1.000  H
  H19      1.0000 0.69730  0.07930  0.49500  Biso   1.000  H
  H20      1.0000 0.30270  0.07930  0.00500  Biso   1.000  H
  H21      1.0000 0.80270  0.42070  0.50500  Biso   1.000  H
  H22      1.0000 0.19730  0.42070  0.99500  Biso   1.000  H
  H23      1.0000 0.30270  0.92070  0.50500  Biso   1.000  H
  H24      1.0000 0.69730  0.92070  0.99500  Biso   1.000  H
  C33      1.0000 0.11440  0.58770  0.39550  Biso   1.000  C
  C34      1.0000 0.88560  0.58770  0.10450  Biso   1.000  C
  C35      1.0000 0.61440  0.08770  0.39550  Biso   1.000  C
  C36      1.0000 0.38560  0.08770  0.10450  Biso   1.000  C
  C37      1.0000 0.88560  0.41230  0.60450  Biso   1.000  C
  C38      1.0000 0.11440  0.41230  0.89550  Biso   1.000  C
  C39      1.0000 0.38560  0.91230  0.60450  Biso   1.000  C
  C40      1.0000 0.61440  0.91230  0.89550  Biso   1.000  C
  H25      1.0000 0.11430  0.52210  0.38460  Biso   1.000  H
  H26      1.0000 0.88570  0.52210  0.11540  Biso   1.000  H
  H27      1.0000 0.61430  0.02210  0.38460  Biso   1.000  H
  H28      1.0000 0.38570  0.02210  0.11540  Biso   1.000  H
  H29      1.0000 0.88570  0.47790  0.61540  Biso   1.000  H
  H30      1.0000 0.11430  0.47790  0.88460  Biso   1.000  H
  H31      1.0000 0.38570  0.97790  0.61540  Biso   1.000  H
  H32      1.0000 0.61430  0.97790  0.88460  Biso   1.000  H
  C41      1.0000 0.22030  0.75400  0.55570  Biso   1.000  C
  C42      1.0000 0.77970  0.75400  0.94430  Biso   1.000  C
  C43      1.0000 0.72030  0.25400  0.55570  Biso   1.000  C
  C44      1.0000 0.27970  0.25400  0.94430  Biso   1.000  C
  C45      1.0000 0.77970  0.24600  0.44430  Biso   1.000  C
  C46      1.0000 0.22030  0.24600  0.05570  Biso   1.000  C
  C47      1.0000 0.27970  0.74600  0.44430  Biso   1.000  C
  C48      1.0000 0.72030  0.74600  0.05570  Biso   1.000  C
  C49      1.0000 0.22270  0.85200  0.57050  Biso   1.000  C
  C50      1.0000 0.77730  0.85200  0.92950  Biso   1.000  C
  C51      1.0000 0.72270  0.35200  0.57050  Biso   1.000  C
  C52      1.0000 0.27730  0.35200  0.92950  Biso   1.000  C
  C53      1.0000 0.77730  0.14800  0.42950  Biso   1.000  C
  C54      1.0000 0.22270  0.14800  0.07050  Biso   1.000  C
  C55      1.0000 0.27730  0.64800  0.42950  Biso   1.000  C
  C56      1.0000 0.72270  0.64800  0.07050  Biso   1.000  C
  H33      1.0000 0.19120  0.89300  0.53380  Biso   1.000  H
  H34      1.0000 0.80880  0.89300  0.96620  Biso   1.000  H
  H35      1.0000 0.69120  0.39300  0.53380  Biso   1.000  H
  H36      1.0000 0.30880  0.39300  0.96620  Biso   1.000  H
  H37      1.0000 0.80880  0.10700  0.46620  Biso   1.000  H
  H38      1.0000 0.19120  0.10700  0.03380  Biso   1.000  H
  H39      1.0000 0.30880  0.60700  0.46620  Biso   1.000  H
  H40      1.0000 0.69120  0.60700  0.03380  Biso   1.000  H
  C57      1.0000 0.27090  0.88850  0.63820  Biso   1.000  C
  C58      1.0000 0.72910  0.88850  0.86180  Biso   1.000  C
  C59      1.0000 0.77090  0.38850  0.63820  Biso   1.000  C
  C60      1.0000 0.22910  0.38850  0.86180  Biso   1.000  C
  C61      1.0000 0.72910  0.11150  0.36180  Biso   1.000  C
  C62      1.0000 0.27090  0.11150  0.13820  Biso   1.000  C
  C63      1.0000 0.22910  0.61150  0.36180  Biso   1.000  C
  C64      1.0000 0.77090  0.61150  0.13820  Biso   1.000  C
  H41      1.0000 0.27220  0.95510  0.64680  Biso   1.000  H
  H42      1.0000 0.72780  0.95510  0.85320  Biso   1.000  H
  H43      1.0000 0.77220  0.45510  0.64680  Biso   1.000  H
  H44      1.0000 0.22780  0.45510  0.85320  Biso   1.000  H
  H45      1.0000 0.72780  0.04490  0.35320  Biso   1.000  H
  H46      1.0000 0.27220  0.04490  0.14680  Biso   1.000  H
  H47      1.0000 0.22780  0.54490  0.35320  Biso   1.000  H
  H48      1.0000 0.77220  0.54490  0.14680  Biso   1.000  H
  C65      1.0000 0.31760  0.83220  0.69420  Biso   1.000  C
  C66      1.0000 0.68240  0.83220  0.80580  Biso   1.000  C
  C67      1.0000 0.81760  0.33220  0.69420  Biso   1.000  C
  C68      1.0000 0.18240  0.33220  0.80580  Biso   1.000  C
  C69      1.0000 0.68240  0.16780  0.30580  Biso   1.000  C
  C70      1.0000 0.31760  0.16780  0.19420  Biso   1.000  C
  C71      1.0000 0.18240  0.66780  0.30580  Biso   1.000  C
  C72      1.0000 0.81760  0.66780  0.19420  Biso   1.000  C
  C73      1.0000 0.31410  0.73560  0.67810  Biso   1.000  C
  C74      1.0000 0.68590  0.73560  0.82190  Biso   1.000  C
  C75      1.0000 0.81410  0.23560  0.67810  Biso   1.000  C
  C76      1.0000 0.18590  0.23560  0.82190  Biso   1.000  C
  C77      1.0000 0.68590  0.26440  0.32190  Biso   1.000  C
  C78      1.0000 0.31410  0.26440  0.17810  Biso   1.000  C
  C79      1.0000 0.18590  0.76440  0.32190  Biso   1.000  C
  C80      1.0000 0.81410  0.76440  0.17810  Biso   1.000  C
  H49      1.0000 0.34540  0.69490  0.71560  Biso   1.000  H
  H50      1.0000 0.65460  0.69490  0.78440  Biso   1.000  H
  H51      1.0000 0.84540  0.19490  0.71560  Biso   1.000  H
  H52      1.0000 0.15460  0.19490  0.78440  Biso   1.000  H
  H53      1.0000 0.65460  0.30510  0.28440  Biso   1.000  H
  H54      1.0000 0.34540  0.30510  0.21560  Biso   1.000  H
  H55      1.0000 0.15460  0.80510  0.28440  Biso   1.000  H
  H56      1.0000 0.84540  0.80510  0.21560  Biso   1.000  H
  C81      1.0000 0.26750  0.69600  0.61040  Biso   1.000  C
  C82      1.0000 0.73250  0.69600  0.88960  Biso   1.000  C
  C83      1.0000 0.76750  0.19600  0.61040  Biso   1.000  C
  C84      1.0000 0.23250  0.19600  0.88960  Biso   1.000  C
  C85      1.0000 0.73250  0.30400  0.38960  Biso   1.000  C
  C86      1.0000 0.26750  0.30400  0.11040  Biso   1.000  C
  C87      1.0000 0.23250  0.80400  0.38960  Biso   1.000  C
  C88      1.0000 0.76750  0.80400  0.11040  Biso   1.000  C
  H57      1.0000 0.26770  0.62990  0.60120  Biso   1.000  H
  H58      1.0000 0.73230  0.62990  0.89880  Biso   1.000  H
  H59      1.0000 0.76770  0.12990  0.60120  Biso   1.000  H
  H60      1.0000 0.23230  0.12990  0.89880  Biso   1.000  H
  H61      1.0000 0.73230  0.37010  0.39880  Biso   1.000  H
  H62      1.0000 0.26770  0.37010  0.10120  Biso   1.000  H
  H63      1.0000 0.23230  0.87010  0.39880  Biso   1.000  H
  H64      1.0000 0.76770  0.87010  0.10120  Biso   1.000  H
  C89      1.0000 0.36860  0.87290  0.76720  Biso   1.000  C
  C90      1.0000 0.63140  0.87290  0.73280  Biso   1.000  C
  C91      1.0000 0.86860  0.37290  0.76720  Biso   1.000  C
  C92      1.0000 0.13140  0.37290  0.73280  Biso   1.000  C
  C93      1.0000 0.63140  0.12710  0.23280  Biso   1.000  C
  C94      1.0000 0.36860  0.12710  0.26720  Biso   1.000  C
  C95      1.0000 0.13140  0.62710  0.23280  Biso   1.000  C
  C96      1.0000 0.86860  0.62710  0.26720  Biso   1.000  C
  C97      1.0000 0.38620  0.96790  0.77340  Biso   1.000  C
  C98      1.0000 0.61380  0.96790  0.72660  Biso   1.000  C
  C99      1.0000 0.88620  0.46790  0.77340  Biso   1.000  C
  C100     1.0000 0.11380  0.46790  0.72660  Biso   1.000  C
  C101     1.0000 0.61380  0.03210  0.22660  Biso   1.000  C
  C102     1.0000 0.38620  0.03210  0.27340  Biso   1.000  C
  C103     1.0000 0.11380  0.53210  0.22660  Biso   1.000  C
  C104     1.0000 0.88620  0.53210  0.27340  Biso   1.000  C
  H65      1.0000 0.36490  0.00780  0.73000  Biso   1.000  H
  H66      1.0000 0.63510  0.00780  0.77000  Biso   1.000  H
  H67      1.0000 0.86490  0.50780  0.73000  Biso   1.000  H
  H68      1.0000 0.13510  0.50780  0.77000  Biso   1.000  H
  H69      1.0000 0.63510  0.99220  0.27000  Biso   1.000  H
  H70      1.0000 0.36490  0.99220  0.23000  Biso   1.000  H
  H71      1.0000 0.13510  0.49220  0.27000  Biso   1.000  H
  H72      1.0000 0.86490  0.49220  0.23000  Biso   1.000  H
  C105     1.0000 0.43290  0.00380  0.84010  Biso   1.000  C
  C106     1.0000 0.56710  0.00380  0.65990  Biso   1.000  C
  C107     1.0000 0.93290  0.50380  0.84010  Biso   1.000  C
  C108     1.0000 0.06710  0.50380  0.65990  Biso   1.000  C
  C109     1.0000 0.56710  0.99620  0.15990  Biso   1.000  C
  C110     1.0000 0.43290  0.99620  0.34010  Biso   1.000  C
  C111     1.0000 0.06710  0.49620  0.15990  Biso   1.000  C
  C112     1.0000 0.93290  0.49620  0.34010  Biso   1.000  C
  H73      1.0000 0.44430  0.06850  0.84300  Biso   1.000  H
  H74      1.0000 0.55570  0.06850  0.65700  Biso   1.000  H
  H75      1.0000 0.94430  0.56850  0.84300  Biso   1.000  H
  H76      1.0000 0.05570  0.56850  0.65700  Biso   1.000  H
  H77      1.0000 0.55570  0.93150  0.15700  Biso   1.000  H
  H78      1.0000 0.44430  0.93150  0.34300  Biso   1.000  H
  H79      1.0000 0.05570  0.43150  0.15700  Biso   1.000  H
  H80      1.0000 0.94430  0.43150  0.34300  Biso   1.000  H
  C113     1.0000 0.44780  0.85670  0.89700  Biso   1.000  C
  C114     1.0000 0.55220  0.85670  0.60300  Biso   1.000  C
  C115     1.0000 0.94780  0.35670  0.89700  Biso   1.000  C
  C116     1.0000 0.05220  0.35670  0.60300  Biso   1.000  C
  C117     1.0000 0.55220  0.14330  0.10300  Biso   1.000  C
  C118     1.0000 0.44780  0.14330  0.39700  Biso   1.000  C
  C119     1.0000 0.05220  0.64330  0.10300  Biso   1.000  C
  C120     1.0000 0.94780  0.64330  0.39700  Biso   1.000  C
  H81      1.0000 0.47040  0.81730  0.94050  Biso   1.000  H
  H82      1.0000 0.52960  0.81730  0.55950  Biso   1.000  H
  H83      1.0000 0.97040  0.31730  0.94050  Biso   1.000  H
  H84      1.0000 0.02960  0.31730  0.55950  Biso   1.000  H
  H85      1.0000 0.52960  0.18270  0.05950  Biso   1.000  H
  H86      1.0000 0.47040  0.18270  0.44050  Biso   1.000  H
  H87      1.0000 0.02960  0.68270  0.05950  Biso   1.000  H
  H88      1.0000 0.97040  0.68270  0.44050  Biso   1.000  H
  C121     1.0000 0.40160  0.81900  0.83220  Biso   1.000  C
  C122     1.0000 0.59840  0.81900  0.66780  Biso   1.000  C
  C123     1.0000 0.90160  0.31900  0.83220  Biso   1.000  C
  C124     1.0000 0.09840  0.31900  0.66780  Biso   1.000  C
  C125     1.0000 0.59840  0.18100  0.16780  Biso   1.000  C
  C126     1.0000 0.40160  0.18100  0.33220  Biso   1.000  C
  C127     1.0000 0.09840  0.68100  0.16780  Biso   1.000  C
  C128     1.0000 0.90160  0.68100  0.33220  Biso   1.000  C
  H89      1.0000 0.39120  0.75410  0.83090  Biso   1.000  H
  H90      1.0000 0.60880  0.75410  0.66910  Biso   1.000  H
  H91      1.0000 0.89120  0.25410  0.83090  Biso   1.000  H
  H92      1.0000 0.10880  0.25410  0.66910  Biso   1.000  H
  H93      1.0000 0.60880  0.24590  0.16910  Biso   1.000  H
  H94      1.0000 0.39120  0.24590  0.33090  Biso   1.000  H
  H95      1.0000 0.10880  0.74590  0.16910  Biso   1.000  H
  H96      1.0000 0.89120  0.74590  0.33090  Biso   1.000  H
  C129     1.0000 0.51220  0.99040  0.97800  Biso   1.000  C
  C130     1.0000 0.48780  0.99040  0.52200  Biso   1.000  C
  C131     1.0000 0.01220  0.49040  0.97800  Biso   1.000  C
  C132     1.0000 0.98780  0.49040  0.52200  Biso   1.000  C
  C133     1.0000 0.48780  0.00960  0.02200  Biso   1.000  C
  C134     1.0000 0.51220  0.00960  0.47800  Biso   1.000  C
  C135     1.0000 0.98780  0.50960  0.02200  Biso   1.000  C
  C136     1.0000 0.01220  0.50960  0.47800  Biso   1.000  C
  H97      1.0000 0.54650  0.94510  0.00600  Biso   1.000  H
  H98      1.0000 0.45350  0.94510  0.49400  Biso   1.000  H
  H99      1.0000 0.04650  0.44510  0.00600  Biso   1.000  H
  H100     1.0000 0.95350  0.44510  0.49400  Biso   1.000  H
  H101     1.0000 0.45350  0.05490  0.99400  Biso   1.000  H
  H102     1.0000 0.54650  0.05490  0.50600  Biso   1.000  H
  H103     1.0000 0.95350  0.55490  0.99400  Biso   1.000  H
  H104     1.0000 0.04650  0.55490  0.50600  Biso   1.000  H
  H105     1.0000 0.52740  0.05040  0.97090  Biso   1.000  H
  H106     1.0000 0.47260  0.05040  0.52910  Biso   1.000  H
  H107     1.0000 0.02740  0.55040  0.97090  Biso   1.000  H
  H108     1.0000 0.97260  0.55040  0.52910  Biso   1.000  H
  H109     1.0000 0.47260  0.94960  0.02910  Biso   1.000  H
  H110     1.0000 0.52740  0.94960  0.47090  Biso   1.000  H
  H111     1.0000 0.97260  0.44960  0.02910  Biso   1.000  H
  H112     1.0000 0.02740  0.44960  0.47090  Biso   1.000  H
  S1       1.0000 0.86010  0.05870  0.88720  Biso   1.000  S
  S2       1.0000 0.13990  0.05870  0.61280  Biso   1.000  S
  S3       1.0000 0.36010  0.55870  0.88720  Biso   1.000  S
  S4       1.0000 0.63990  0.55870  0.61280  Biso   1.000  S
  S5       1.0000 0.13990  0.94130  0.11280  Biso   1.000  S
  S6       1.0000 0.86010  0.94130  0.38720  Biso   1.000  S
  S7       1.0000 0.63990  0.44130  0.11280  Biso   1.000  S
  S8       1.0000 0.36010  0.44130  0.38720  Biso   1.000  S
  O1       1.0000 0.90110  0.11080  0.88020  Biso   1.000  O
  O2       1.0000 0.09890  0.11080  0.61980  Biso   1.000  O
  O3       1.0000 0.40110  0.61080  0.88020  Biso   1.000  O
  O4       1.0000 0.59890  0.61080  0.61980  Biso   1.000  O
  O5       1.0000 0.09890  0.88920  0.11980  Biso   1.000  O
  O6       1.0000 0.90110  0.88920  0.38020  Biso   1.000  O
  O7       1.0000 0.59890  0.38920  0.11980  Biso   1.000  O
  O8       1.0000 0.40110  0.38920  0.38020  Biso   1.000  O
  O9       1.0000 0.83310  0.11870  0.91060  Biso   1.000  O
  O10      1.0000 0.16690  0.11870  0.58940  Biso   1.000  O
  O11      1.0000 0.33310  0.61870  0.91060  Biso   1.000  O
  O12      1.0000 0.66690  0.61870  0.58940  Biso   1.000  O
  O13      1.0000 0.16690  0.88130  0.08940  Biso   1.000  O
  O14      1.0000 0.83310  0.88130  0.41060  Biso   1.000  O
  O15      1.0000 0.66690  0.38130  0.08940  Biso   1.000  O
  O16      1.0000 0.33310  0.38130  0.41060  Biso   1.000  O
  O17      1.0000 0.88870  0.97570  0.93410  Biso   1.000  O
  O18      1.0000 0.11130  0.97570  0.56590  Biso   1.000  O
  O19      1.0000 0.38870  0.47570  0.93410  Biso   1.000  O
  O20      1.0000 0.61130  0.47570  0.56590  Biso   1.000  O
  O21      1.0000 0.11130  0.02430  0.06590  Biso   1.000  O
  O22      1.0000 0.88870  0.02430  0.43410  Biso   1.000  O
  O23      1.0000 0.61130  0.52430  0.06590  Biso   1.000  O
  O24      1.0000 0.38870  0.52430  0.43410  Biso   1.000  O
  O25      1.0000 0.66420  0.93200  0.58000  Biso   1.000  O
  O26      1.0000 0.33580  0.93200  0.92000  Biso   1.000  O
  O27      1.0000 0.16420  0.43200  0.58000  Biso   1.000  O
  O28      1.0000 0.83580  0.43200  0.92000  Biso   1.000  O
  O29      1.0000 0.33580  0.06800  0.42000  Biso   1.000  O
  O30      1.0000 0.66420  0.06800  0.08000  Biso   1.000  O
  O31      1.0000 0.83580  0.56800  0.42000  Biso   1.000  O
  O32      1.0000 0.16420  0.56800  0.08000  Biso   1.000  O
  O33      1.0000 0.56950  0.80620  0.46680  Biso   1.000  O
  O34      1.0000 0.43050  0.80620  0.03320  Biso   1.000  O
  O35      1.0000 0.06950  0.30620  0.46680  Biso   1.000  O
  O36      1.0000 0.93050  0.30620  0.03320  Biso   1.000  O
  O37      1.0000 0.43050  0.19380  0.53320  Biso   1.000  O
  O38      1.0000 0.56950  0.19380  0.96680  Biso   1.000  O
  O39      1.0000 0.93050  0.69380  0.53320  Biso   1.000  O
  O40      1.0000 0.06950  0.69380  0.96680  Biso   1.000  O
  O41      1.0000 0.45400  0.78220  0.42120  Biso   1.000  O
  O42      1.0000 0.54600  0.78220  0.07880  Biso   1.000  O
  O43      1.0000 0.95400  0.28220  0.42120  Biso   1.000  O
  O44      1.0000 0.04600  0.28220  0.07880  Biso   1.000  O
  O45      1.0000 0.54600  0.21780  0.57880  Biso   1.000  O
  O46      1.0000 0.45400  0.21780  0.92120  Biso   1.000  O
  O47      1.0000 0.04600  0.71780  0.57880  Biso   1.000  O
  O48      1.0000 0.95400  0.71780  0.92120  Biso   1.000  O
  O49      1.0000 0.65440  0.09500  0.62720  Biso   1.000  O
  O50      1.0000 0.34560  0.09500  0.87280  Biso   1.000  O
  O51      1.0000 0.15440  0.59500  0.62720  Biso   1.000  O
  O52      1.0000 0.84560  0.59500  0.87280  Biso   1.000  O
  O53      1.0000 0.34560  0.90500  0.37280  Biso   1.000  O
  O54      1.0000 0.65440  0.90500  0.12720  Biso   1.000  O
  O55      1.0000 0.84560  0.40500  0.37280  Biso   1.000  O
  O56      1.0000 0.15440  0.40500  0.12720  Biso   1.000  O
  C137     1.0000 0.70600  0.04260  0.67850  Biso   1.000  C
  C138     1.0000 0.29400  0.04260  0.82150  Biso   1.000  C
  C139     1.0000 0.20600  0.54260  0.67850  Biso   1.000  C
  C140     1.0000 0.79400  0.54260  0.82150  Biso   1.000  C
  C141     1.0000 0.29400  0.95740  0.32150  Biso   1.000  C
  C142     1.0000 0.70600  0.95740  0.17850  Biso   1.000  C
  C143     1.0000 0.79400  0.45740  0.32150  Biso   1.000  C
  C144     1.0000 0.20600  0.45740  0.17850  Biso   1.000  C
  C145     1.0000 0.75120  0.07100  0.74850  Biso   1.000  C
  C146     1.0000 0.24880  0.07100  0.75150  Biso   1.000  C
  C147     1.0000 0.25120  0.57100  0.74850  Biso   1.000  C
  C148     1.0000 0.74880  0.57100  0.75150  Biso   1.000  C
  C149     1.0000 0.24880  0.92900  0.25150  Biso   1.000  C
  C150     1.0000 0.75120  0.92900  0.24850  Biso   1.000  C
  C151     1.0000 0.74880  0.42900  0.25150  Biso   1.000  C
  C152     1.0000 0.25120  0.42900  0.24850  Biso   1.000  C
  H113     1.0000 0.74730  0.12980  0.76680  Biso   1.000  H
  H114     1.0000 0.25270  0.12980  0.73320  Biso   1.000  H
  H115     1.0000 0.24730  0.62980  0.76680  Biso   1.000  H
  H116     1.0000 0.75270  0.62980  0.73320  Biso   1.000  H
  H117     1.0000 0.25270  0.87020  0.23320  Biso   1.000  H
  H118     1.0000 0.74730  0.87020  0.26680  Biso   1.000  H
  H119     1.0000 0.75270  0.37020  0.23320  Biso   1.000  H
  H120     1.0000 0.24730  0.37020  0.26680  Biso   1.000  H
  C153     1.0000 0.80150  0.01920  0.79340  Biso   1.000  C
  C154     1.0000 0.19850  0.01920  0.70660  Biso   1.000  C
  C155     1.0000 0.30150  0.51920  0.79340  Biso   1.000  C
  C156     1.0000 0.69850  0.51920  0.70660  Biso   1.000  C
  C157     1.0000 0.19850  0.98080  0.20660  Biso   1.000  C
  C158     1.0000 0.80150  0.98080  0.29340  Biso   1.000  C
  C159     1.0000 0.69850  0.48080  0.20660  Biso   1.000  C
  C160     1.0000 0.30150  0.48080  0.29340  Biso   1.000  C
  C161     1.0000 0.80670  0.93120  0.76910  Biso   1.000  C
  C162     1.0000 0.19330  0.93120  0.73090  Biso   1.000  C
  C163     1.0000 0.30670  0.43120  0.76910  Biso   1.000  C
  C164     1.0000 0.69330  0.43120  0.73090  Biso   1.000  C
  C165     1.0000 0.19330  0.06880  0.23090  Biso   1.000  C
  C166     1.0000 0.80670  0.06880  0.26910  Biso   1.000  C
  C167     1.0000 0.69330  0.56880  0.23090  Biso   1.000  C
  C168     1.0000 0.30670  0.56880  0.26910  Biso   1.000  C
  H121     1.0000 0.84170  0.89330  0.80180  Biso   1.000  H
  H122     1.0000 0.15830  0.89330  0.69820  Biso   1.000  H
  H123     1.0000 0.34170  0.39330  0.80180  Biso   1.000  H
  H124     1.0000 0.65830  0.39330  0.69820  Biso   1.000  H
  H125     1.0000 0.15830  0.10670  0.19820  Biso   1.000  H
  H126     1.0000 0.84170  0.10670  0.30180  Biso   1.000  H
  H127     1.0000 0.65830  0.60670  0.19820  Biso   1.000  H
  H128     1.0000 0.34170  0.60670  0.30180  Biso   1.000  H
  C169     1.0000 0.76240  0.89860  0.69920  Biso   1.000  C
  C170     1.0000 0.23760  0.89860  0.80080  Biso   1.000  C
  C171     1.0000 0.26240  0.39860  0.69920  Biso   1.000  C
  C172     1.0000 0.73760  0.39860  0.80080  Biso   1.000  C
  C173     1.0000 0.23760  0.10140  0.30080  Biso   1.000  C
  C174     1.0000 0.76240  0.10140  0.19920  Biso   1.000  C
  C175     1.0000 0.73760  0.60140  0.30080  Biso   1.000  C
  C176     1.0000 0.26240  0.60140  0.19920  Biso   1.000  C
  H129     1.0000 0.76620  0.83830  0.68260  Biso   1.000  H
  H130     1.0000 0.23380  0.83830  0.81740  Biso   1.000  H
  H131     1.0000 0.26620  0.33830  0.68260  Biso   1.000  H
  H132     1.0000 0.73380  0.33830  0.81740  Biso   1.000  H
  H133     1.0000 0.23380  0.16170  0.31740  Biso   1.000  H
  H134     1.0000 0.76620  0.16170  0.18260  Biso   1.000  H
  H135     1.0000 0.73380  0.66170  0.31740  Biso   1.000  H
  H136     1.0000 0.26620  0.66170  0.18260  Biso   1.000  H
  C177     1.0000 0.70990  0.95650  0.65070  Biso   1.000  C
  C178     1.0000 0.29010  0.95650  0.84930  Biso   1.000  C
  C179     1.0000 0.20990  0.45650  0.65070  Biso   1.000  C
  C180     1.0000 0.79010  0.45650  0.84930  Biso   1.000  C
  C181     1.0000 0.29010  0.04350  0.34930  Biso   1.000  C
  C182     1.0000 0.70990  0.04350  0.15070  Biso   1.000  C
  C183     1.0000 0.79010  0.54350  0.34930  Biso   1.000  C
  C184     1.0000 0.20990  0.54350  0.15070  Biso   1.000  C
  C185     1.0000 0.67290  0.84570  0.55060  Biso   1.000  C
  C186     1.0000 0.32710  0.84570  0.94940  Biso   1.000  C
  C187     1.0000 0.17290  0.34570  0.55060  Biso   1.000  C
  C188     1.0000 0.82710  0.34570  0.94940  Biso   1.000  C
  C189     1.0000 0.32710  0.15430  0.44940  Biso   1.000  C
  C190     1.0000 0.67290  0.15430  0.05060  Biso   1.000  C
  C191     1.0000 0.82710  0.65430  0.44940  Biso   1.000  C
  C192     1.0000 0.17290  0.65430  0.05060  Biso   1.000  C
  H137     1.0000 0.67730  0.79050  0.58170  Biso   1.000  H
  H138     1.0000 0.32270  0.79050  0.91830  Biso   1.000  H
  H139     1.0000 0.17730  0.29050  0.58170  Biso   1.000  H
  H140     1.0000 0.82270  0.29050  0.91830  Biso   1.000  H
  H141     1.0000 0.32270  0.20950  0.41830  Biso   1.000  H
  H142     1.0000 0.67730  0.20950  0.08170  Biso   1.000  H
  H143     1.0000 0.82270  0.70950  0.41830  Biso   1.000  H
  H144     1.0000 0.17730  0.70950  0.08170  Biso   1.000  H
  H145     1.0000 0.71050  0.85130  0.55360  Biso   1.000  H
  H146     1.0000 0.28950  0.85130  0.94640  Biso   1.000  H
  H147     1.0000 0.21050  0.35130  0.55360  Biso   1.000  H
  H148     1.0000 0.78950  0.35130  0.94640  Biso   1.000  H
  H149     1.0000 0.28950  0.14870  0.44640  Biso   1.000  H
  H150     1.0000 0.71050  0.14870  0.05360  Biso   1.000  H
  H151     1.0000 0.78950  0.64870  0.44640  Biso   1.000  H
  H152     1.0000 0.21050  0.64870  0.05360  Biso   1.000  H
  C193     1.0000 0.62140  0.83050  0.47230  Biso   1.000  C
  C194     1.0000 0.37860  0.83050  0.02770  Biso   1.000  C
  C195     1.0000 0.12140  0.33050  0.47230  Biso   1.000  C
  C196     1.0000 0.87860  0.33050  0.02770  Biso   1.000  C
  C197     1.0000 0.37860  0.16950  0.52770  Biso   1.000  C
  C198     1.0000 0.62140  0.16950  0.97230  Biso   1.000  C
  C199     1.0000 0.87860  0.66950  0.52770  Biso   1.000  C
  C200     1.0000 0.12140  0.66950  0.97230  Biso   1.000  C
  H153     1.0000 0.63120  0.77890  0.45020  Biso   1.000  H
  H154     1.0000 0.36880  0.77890  0.04980  Biso   1.000  H
  H155     1.0000 0.13120  0.27890  0.45020  Biso   1.000  H
  H156     1.0000 0.86880  0.27890  0.04980  Biso   1.000  H
  H157     1.0000 0.36880  0.22110  0.54980  Biso   1.000  H
  H158     1.0000 0.63120  0.22110  0.95020  Biso   1.000  H
  H159     1.0000 0.86880  0.72110  0.54980  Biso   1.000  H
  H160     1.0000 0.13120  0.72110  0.95020  Biso   1.000  H
  H161     1.0000 0.61370  0.88930  0.44290  Biso   1.000  H
  H162     1.0000 0.38630  0.88930  0.05710  Biso   1.000  H
  H163     1.0000 0.11370  0.38930  0.44290  Biso   1.000  H
  H164     1.0000 0.88630  0.38930  0.05710  Biso   1.000  H
  H165     1.0000 0.38630  0.11070  0.55710  Biso   1.000  H
  H166     1.0000 0.61370  0.11070  0.94290  Biso   1.000  H
  H167     1.0000 0.88630  0.61070  0.55710  Biso   1.000  H
  H168     1.0000 0.11370  0.61070  0.94290  Biso   1.000  H
  C201     1.0000 0.53830  0.73300  0.42580  Biso   1.000  C
  C202     1.0000 0.46170  0.73300  0.07420  Biso   1.000  C
  C203     1.0000 0.03830  0.23300  0.42580  Biso   1.000  C
  C204     1.0000 0.96170  0.23300  0.07420  Biso   1.000  C
  C205     1.0000 0.46170  0.26700  0.57420  Biso   1.000  C
  C206     1.0000 0.53830  0.26700  0.92580  Biso   1.000  C
  C207     1.0000 0.96170  0.76700  0.57420  Biso   1.000  C
  C208     1.0000 0.03830  0.76700  0.92580  Biso   1.000  C
  H169     1.0000 0.52530  0.74480  0.37350  Biso   1.000  H
  H170     1.0000 0.47470  0.74480  0.12650  Biso   1.000  H
  H171     1.0000 0.02530  0.24480  0.37350  Biso   1.000  H
  H172     1.0000 0.97470  0.24480  0.12650  Biso   1.000  H
  H173     1.0000 0.47470  0.25520  0.62650  Biso   1.000  H
  H174     1.0000 0.52530  0.25520  0.87350  Biso   1.000  H
  H175     1.0000 0.97470  0.75520  0.62650  Biso   1.000  H
  H176     1.0000 0.02530  0.75520  0.87350  Biso   1.000  H
  H177     1.0000 0.56570  0.67710  0.44520  Biso   1.000  H
  H178     1.0000 0.43430  0.67710  0.05480  Biso   1.000  H
  H179     1.0000 0.06570  0.17710  0.44520  Biso   1.000  H
  H180     1.0000 0.93430  0.17710  0.05480  Biso   1.000  H
  H181     1.0000 0.43430  0.32290  0.55480  Biso   1.000  H
  H182     1.0000 0.56570  0.32290  0.94520  Biso   1.000  H
  H183     1.0000 0.93430  0.82290  0.55480  Biso   1.000  H
  H184     1.0000 0.06570  0.82290  0.94520  Biso   1.000  H
  C209     1.0000 0.48730  0.70900  0.42230  Biso   1.000  C
  C210     1.0000 0.51270  0.70900  0.07770  Biso   1.000  C
  C211     1.0000 0.98730  0.20900  0.42230  Biso   1.000  C
  C212     1.0000 0.01270  0.20900  0.07770  Biso   1.000  C
  C213     1.0000 0.51270  0.29100  0.57770  Biso   1.000  C
  C214     1.0000 0.48730  0.29100  0.92230  Biso   1.000  C
  C215     1.0000 0.01270  0.79100  0.57770  Biso   1.000  C
  C216     1.0000 0.98730  0.79100  0.92230  Biso   1.000  C
  H185     1.0000 0.50040  0.66810  0.46640  Biso   1.000  H
  H186     1.0000 0.49960  0.66810  0.03360  Biso   1.000  H
  H187     1.0000 0.00040  0.16810  0.46640  Biso   1.000  H
  H188     1.0000 0.99960  0.16810  0.03360  Biso   1.000  H
  H189     1.0000 0.49960  0.33190  0.53360  Biso   1.000  H
  H190     1.0000 0.50040  0.33190  0.96640  Biso   1.000  H
  H191     1.0000 0.99960  0.83190  0.53360  Biso   1.000  H
  H192     1.0000 0.00040  0.83190  0.96640  Biso   1.000  H
  H193     1.0000 0.46040  0.67010  0.37630  Biso   1.000  H
  H194     1.0000 0.53960  0.67010  0.12370  Biso   1.000  H
  H195     1.0000 0.96040  0.17010  0.37630  Biso   1.000  H
  H196     1.0000 0.03960  0.17010  0.12370  Biso   1.000  H
  H197     1.0000 0.53960  0.32990  0.62370  Biso   1.000  H
  H198     1.0000 0.46040  0.32990  0.87630  Biso   1.000  H
  H199     1.0000 0.03960  0.82990  0.62370  Biso   1.000  H
  H200     1.0000 0.96040  0.82990  0.87630  Biso   1.000  H
  C217     1.0000 0.40250  0.75900  0.41820  Biso   1.000  C
  C218     1.0000 0.59750  0.75900  0.08180  Biso   1.000  C
  C219     1.0000 0.90250  0.25900  0.41820  Biso   1.000  C
  C220     1.0000 0.09750  0.25900  0.08180  Biso   1.000  C
  C221     1.0000 0.59750  0.24100  0.58180  Biso   1.000  C
  C222     1.0000 0.40250  0.24100  0.91820  Biso   1.000  C
  C223     1.0000 0.09750  0.74100  0.58180  Biso   1.000  C
  C224     1.0000 0.90250  0.74100  0.91820  Biso   1.000  C
  H201     1.0000 0.39680  0.68910  0.41370  Biso   1.000  H
  H202     1.0000 0.60320  0.68910  0.08630  Biso   1.000  H
  H203     1.0000 0.89680  0.18910  0.41370  Biso   1.000  H
  H204     1.0000 0.10320  0.18910  0.08630  Biso   1.000  H
  H205     1.0000 0.60320  0.31090  0.58630  Biso   1.000  H
  H206     1.0000 0.39680  0.31090  0.91370  Biso   1.000  H
  H207     1.0000 0.10320  0.81090  0.58630  Biso   1.000  H
  H208     1.0000 0.89680  0.81090  0.91370  Biso   1.000  H
  H209     1.0000 0.40900  0.77920  0.46590  Biso   1.000  H
  H210     1.0000 0.59100  0.77920  0.03410  Biso   1.000  H
  H211     1.0000 0.90900  0.27920  0.46590  Biso   1.000  H
  H212     1.0000 0.09100  0.27920  0.03410  Biso   1.000  H
  H213     1.0000 0.59100  0.22080  0.53410  Biso   1.000  H
  H214     1.0000 0.40900  0.22080  0.96590  Biso   1.000  H
  H215     1.0000 0.09100  0.72080  0.53410  Biso   1.000  H
  H216     1.0000 0.90900  0.72080  0.96590  Biso   1.000  H
  C225     1.0000 0.65390  0.19360  0.64780  Biso   1.000  C
  C226     1.0000 0.34610  0.19360  0.85220  Biso   1.000  C
  C227     1.0000 0.15390  0.69360  0.64780  Biso   1.000  C
  C228     1.0000 0.84610  0.69360  0.85220  Biso   1.000  C
  C229     1.0000 0.34610  0.80640  0.35220  Biso   1.000  C
  C230     1.0000 0.65390  0.80640  0.14780  Biso   1.000  C
  C231     1.0000 0.84610  0.30640  0.35220  Biso   1.000  C
  C232     1.0000 0.15390  0.30640  0.14780  Biso   1.000  C
  H217     1.0000 0.69050  0.22720  0.65950  Biso   1.000  H
  H218     1.0000 0.30950  0.22720  0.84050  Biso   1.000  H
  H219     1.0000 0.19050  0.72720  0.65950  Biso   1.000  H
  H220     1.0000 0.80950  0.72720  0.84050  Biso   1.000  H
  H221     1.0000 0.30950  0.77280  0.34050  Biso   1.000  H
  H222     1.0000 0.69050  0.77280  0.15950  Biso   1.000  H
  H223     1.0000 0.80950  0.27280  0.34050  Biso   1.000  H
  H224     1.0000 0.19050  0.27280  0.15950  Biso   1.000  H
  H225     1.0000 0.65400  0.19580  0.69320  Biso   1.000  H
  H226     1.0000 0.34600  0.19580  0.80680  Biso   1.000  H
  H227     1.0000 0.15400  0.69580  0.69320  Biso   1.000  H
  H228     1.0000 0.84600  0.69580  0.80680  Biso   1.000  H
  H229     1.0000 0.34600  0.80420  0.30680  Biso   1.000  H
  H230     1.0000 0.65400  0.80420  0.19320  Biso   1.000  H
  H231     1.0000 0.84600  0.30420  0.30680  Biso   1.000  H
  H232     1.0000 0.15400  0.30420  0.19320  Biso   1.000  H
  O57      1.0000 0.98370  0.94850  0.08830  Biso   1.000  O
  O58      1.0000 0.01630  0.94850  0.41170  Biso   1.000  O
  O59      1.0000 0.48370  0.44850  0.08830  Biso   1.000  O
  O60      1.0000 0.51630  0.44850  0.41170  Biso   1.000  O
  O61      1.0000 0.01630  0.05150  0.91170  Biso   1.000  O
  O62      1.0000 0.98370  0.05150  0.58830  Biso   1.000  O
  O63      1.0000 0.51630  0.55150  0.91170  Biso   1.000  O
  O64      1.0000 0.48370  0.55150  0.58830  Biso   1.000  O
  H233     1.0000 0.95290  0.97260  0.08340  Biso   1.000  H
  H234     1.0000 0.04710  0.97260  0.41660  Biso   1.000  H
  H235     1.0000 0.45290  0.47260  0.08340  Biso   1.000  H
  H236     1.0000 0.54710  0.47260  0.41660  Biso   1.000  H
  H237     1.0000 0.04710  0.02740  0.91660  Biso   1.000  H
  H238     1.0000 0.95290  0.02740  0.58340  Biso   1.000  H
  H239     1.0000 0.54710  0.52740  0.91660  Biso   1.000  H
  H240     1.0000 0.45290  0.52740  0.58340  Biso   1.000  H
  H241     1.0000 0.99650  0.90660  0.07270  Biso   1.000  H
  H242     1.0000 0.00350  0.90660  0.42730  Biso   1.000  H
  H243     1.0000 0.49650  0.40660  0.07270  Biso   1.000  H
  H244     1.0000 0.50350  0.40660  0.42730  Biso   1.000  H
  H245     1.0000 0.00350  0.09340  0.92730  Biso   1.000  H
  H246     1.0000 0.99650  0.09340  0.57270  Biso   1.000  H
  H247     1.0000 0.50350  0.59340  0.92730  Biso   1.000  H
  H248     1.0000 0.49650  0.59340  0.57270  Biso   1.000  H
  O65      1.0000 0.73660  0.12120  0.92150  Biso   1.000  O
  O66      1.0000 0.26340  0.12120  0.57850  Biso   1.000  O
  O67      1.0000 0.23660  0.62120  0.92150  Biso   1.000  O
  O68      1.0000 0.76340  0.62120  0.57850  Biso   1.000  O
  O69      1.0000 0.26340  0.87880  0.07850  Biso   1.000  O
  O70      1.0000 0.73660  0.87880  0.42150  Biso   1.000  O
  O71      1.0000 0.76340  0.37880  0.07850  Biso   1.000  O
  O72      1.0000 0.23660  0.37880  0.42150  Biso   1.000  O
  H249     1.0000 0.76220  0.11030  0.91190  Biso   1.000  H
  H250     1.0000 0.23780  0.11030  0.58810  Biso   1.000  H
  H251     1.0000 0.26220  0.61030  0.91190  Biso   1.000  H
  H252     1.0000 0.73780  0.61030  0.58810  Biso   1.000  H
  H253     1.0000 0.23780  0.88970  0.08810  Biso   1.000  H
  H254     1.0000 0.76220  0.88970  0.41190  Biso   1.000  H
  H255     1.0000 0.73780  0.38970  0.08810  Biso   1.000  H
  H256     1.0000 0.26220  0.38970  0.41190  Biso   1.000  H
  H257     1.0000 0.69830  0.11570  0.89610  Biso   1.000  H
  H258     1.0000 0.30170  0.11570  0.60390  Biso   1.000  H
  H259     1.0000 0.19830  0.61570  0.89610  Biso   1.000  H
  H260     1.0000 0.80170  0.61570  0.60390  Biso   1.000  H
  H261     1.0000 0.30170  0.88430  0.10390  Biso   1.000  H
  H262     1.0000 0.69830  0.88430  0.39610  Biso   1.000  H
  H263     1.0000 0.80170  0.38430  0.10390  Biso   1.000  H
  H264     1.0000 0.19830  0.38430  0.39610  Biso   1.000  H
  O73      1.0000 0.64660  0.24960  0.82750  Biso   1.000  O
  O74      1.0000 0.35340  0.24960  0.67250  Biso   1.000  O
  O75      1.0000 0.14660  0.74960  0.82750  Biso   1.000  O
  O76      1.0000 0.85340  0.74960  0.67250  Biso   1.000  O
  O77      1.0000 0.35340  0.75040  0.17250  Biso   1.000  O
  O78      1.0000 0.64660  0.75040  0.32750  Biso   1.000  O
  O79      1.0000 0.85340  0.25040  0.17250  Biso   1.000  O
  O80      1.0000 0.14660  0.25040  0.32750  Biso   1.000  O
  H265     1.0000 0.65380  0.19500  0.81760  Biso   1.000  H
  H266     1.0000 0.34620  0.19500  0.68240  Biso   1.000  H
  H267     1.0000 0.15380  0.69500  0.81760  Biso   1.000  H
  H268     1.0000 0.84620  0.69500  0.68240  Biso   1.000  H
  H269     1.0000 0.34620  0.80500  0.18240  Biso   1.000  H
  H270     1.0000 0.65380  0.80500  0.31760  Biso   1.000  H
  H271     1.0000 0.84620  0.30500  0.18240  Biso   1.000  H
  H272     1.0000 0.15380  0.30500  0.31760  Biso   1.000  H
  H273     1.0000 0.62190  0.29450  0.81740  Biso   1.000  H
  H274     1.0000 0.37810  0.29450  0.68260  Biso   1.000  H
  H275     1.0000 0.12190  0.79450  0.81740  Biso   1.000  H
  H276     1.0000 0.87810  0.79450  0.68260  Biso   1.000  H
  H277     1.0000 0.37810  0.70550  0.18260  Biso   1.000  H
  H278     1.0000 0.62190  0.70550  0.31740  Biso   1.000  H
  H279     1.0000 0.87810  0.20550  0.18260  Biso   1.000  H
  H280     1.0000 0.12190  0.20550  0.31740  Biso   1.000  H
  O81      1.0000 0.79680  0.04060  0.06290  Biso   1.000  O
  O82      1.0000 0.20320  0.04060  0.43710  Biso   1.000  O
  O83      1.0000 0.29680  0.54060  0.06290  Biso   1.000  O
  O84      1.0000 0.70320  0.54060  0.43710  Biso   1.000  O
  O85      1.0000 0.20320  0.95940  0.93710  Biso   1.000  O
  O86      1.0000 0.79680  0.95940  0.56290  Biso   1.000  O
  O87      1.0000 0.70320  0.45940  0.93710  Biso   1.000  O
  O88      1.0000 0.29680  0.45940  0.56290  Biso   1.000  O
  H281     1.0000 0.83000  0.06360  0.10030  Biso   1.000  H
  H282     1.0000 0.17000  0.06360  0.39970  Biso   1.000  H
  H283     1.0000 0.33000  0.56360  0.10030  Biso   1.000  H
  H284     1.0000 0.67000  0.56360  0.39970  Biso   1.000  H
  H285     1.0000 0.17000  0.93640  0.89970  Biso   1.000  H
  H286     1.0000 0.83000  0.93640  0.60030  Biso   1.000  H
  H287     1.0000 0.67000  0.43640  0.89970  Biso   1.000  H
  H288     1.0000 0.33000  0.43640  0.60030  Biso   1.000  H
  H289     1.0000 0.79100  0.07200  0.02590  Biso   1.000  H
  H290     1.0000 0.20900  0.07200  0.47410  Biso   1.000  H
  H291     1.0000 0.29100  0.57200  0.02590  Biso   1.000  H
  H292     1.0000 0.70900  0.57200  0.47410  Biso   1.000  H
  H293     1.0000 0.20900  0.92800  0.97410  Biso   1.000  H
  H294     1.0000 0.79100  0.92800  0.52590  Biso   1.000  H
  H295     1.0000 0.70900  0.42800  0.97410  Biso   1.000  H
  H296     1.0000 0.29100  0.42800  0.52590  Biso   1.000  H
  O89      1.0000 0.90890  0.06000  0.19340  Biso   1.000  O
  O90      1.0000 0.09110  0.06000  0.30660  Biso   1.000  O
  O91      1.0000 0.40890  0.56000  0.19340  Biso   1.000  O
  O92      1.0000 0.59110  0.56000  0.30660  Biso   1.000  O
  O93      1.0000 0.09110  0.94000  0.80660  Biso   1.000  O
  O94      1.0000 0.90890  0.94000  0.69340  Biso   1.000  O
  O95      1.0000 0.59110  0.44000  0.80660  Biso   1.000  O
  O96      1.0000 0.40890  0.44000  0.69340  Biso   1.000  O
  H297     1.0000 0.94350  0.08420  0.22590  Biso   1.000  H
  H298     1.0000 0.05650  0.08420  0.27410  Biso   1.000  H
  H299     1.0000 0.44350  0.58420  0.22590  Biso   1.000  H
  H300     1.0000 0.55650  0.58420  0.27410  Biso   1.000  H
  H301     1.0000 0.05650  0.91580  0.77410  Biso   1.000  H
  H302     1.0000 0.94350  0.91580  0.72590  Biso   1.000  H
  H303     1.0000 0.55650  0.41580  0.77410  Biso   1.000  H
  H304     1.0000 0.44350  0.41580  0.72590  Biso   1.000  H
  H305     1.0000 0.91760  0.00130  0.19570  Biso   1.000  H
  H306     1.0000 0.08240  0.00130  0.30430  Biso   1.000  H
  H307     1.0000 0.41760  0.50130  0.19570  Biso   1.000  H
  H308     1.0000 0.58240  0.50130  0.30430  Biso   1.000  H
  H309     1.0000 0.08240  0.99870  0.80430  Biso   1.000  H
  H310     1.0000 0.91760  0.99870  0.69570  Biso   1.000  H
  H311     1.0000 0.58240  0.49870  0.80430  Biso   1.000  H
  H312     1.0000 0.41760  0.49870  0.69570  Biso   1.000  H
