data_image0
_cell_length_a       30.503
_cell_length_b       9.6056
_cell_length_c       25.8351
_cell_angle_alpha    90
_cell_angle_beta     126.003
_cell_angle_gamma    90

_symmetry_space_group_name_H-M    "P 1"
_symmetry_int_tables_number       1

loop_
  _symmetry_equiv_pos_as_xyz
  'x, y, z'

loop_
  _atom_site_label
  _atom_site_occupancy
  _atom_site_fract_x
  _atom_site_fract_y
  _atom_site_fract_z
  _atom_site_thermal_displace_type
  _atom_site_B_iso_or_equiv
  _atom_site_type_symbol
  Cu1      1.0000 0.00000  0.00000  0.00000  Biso   1.000  Cu
  Cu2      1.0000 0.50000  0.50000  0.00000  Biso   1.000  Cu
  Cu3      1.0000 0.00000  0.00000  0.50000  Biso   1.000  Cu
  Cu4      1.0000 0.50000  0.50000  0.50000  Biso   1.000  Cu
  O1       1.0000 0.99099  0.90060  0.92410  Biso   1.000  O
  O2       1.0000 0.49099  0.40060  0.92410  Biso   1.000  O
  O3       1.0000 0.00901  0.90060  0.57590  Biso   1.000  O
  O4       1.0000 0.50901  0.40060  0.57590  Biso   1.000  O
  O5       1.0000 0.00901  0.09940  0.07590  Biso   1.000  O
  O6       1.0000 0.50901  0.59940  0.07590  Biso   1.000  O
  O7       1.0000 0.99099  0.09940  0.42410  Biso   1.000  O
  O8       1.0000 0.49099  0.59940  0.42410  Biso   1.000  O
  C1       1.0000 0.98270  0.72140  0.85930  Biso   1.000  C
  C2       1.0000 0.48270  0.22140  0.85930  Biso   1.000  C
  C3       1.0000 0.01730  0.72140  0.64070  Biso   1.000  C
  C4       1.0000 0.51730  0.22140  0.64070  Biso   1.000  C
  C5       1.0000 0.01730  0.27860  0.14070  Biso   1.000  C
  C6       1.0000 0.51730  0.77860  0.14070  Biso   1.000  C
  C7       1.0000 0.98270  0.27860  0.35930  Biso   1.000  C
  C8       1.0000 0.48270  0.77860  0.35930  Biso   1.000  C
  F1       1.0000 0.96090  0.58280  0.83450  Biso   1.000  F
  F2       1.0000 0.46090  0.08280  0.83450  Biso   1.000  F
  F3       1.0000 0.03910  0.58280  0.66550  Biso   1.000  F
  F4       1.0000 0.53910  0.08280  0.66550  Biso   1.000  F
  F5       1.0000 0.03910  0.41720  0.16550  Biso   1.000  F
  F6       1.0000 0.53910  0.91720  0.16550  Biso   1.000  F
  F7       1.0000 0.96090  0.41720  0.33450  Biso   1.000  F
  F8       1.0000 0.46090  0.91720  0.33450  Biso   1.000  F
  F9       1.0000 0.03250  0.68700  0.88410  Biso   1.000  F
  F10      1.0000 0.53250  0.18700  0.88410  Biso   1.000  F
  F11      1.0000 0.96750  0.68700  0.61590  Biso   1.000  F
  F12      1.0000 0.46750  0.18700  0.61590  Biso   1.000  F
  F13      1.0000 0.96750  0.31300  0.11590  Biso   1.000  F
  F14      1.0000 0.46750  0.81300  0.11590  Biso   1.000  F
  F15      1.0000 0.03250  0.31300  0.38410  Biso   1.000  F
  F16      1.0000 0.53250  0.81300  0.38410  Biso   1.000  F
  F17      1.0000 0.96740  0.82300  0.81350  Biso   1.000  F
  F18      1.0000 0.46740  0.32300  0.81350  Biso   1.000  F
  F19      1.0000 0.03260  0.82300  0.68650  Biso   1.000  F
  F20      1.0000 0.53260  0.32300  0.68650  Biso   1.000  F
  F21      1.0000 0.03260  0.17700  0.18650  Biso   1.000  F
  F22      1.0000 0.53260  0.67700  0.18650  Biso   1.000  F
  F23      1.0000 0.96740  0.17700  0.31350  Biso   1.000  F
  F24      1.0000 0.46740  0.67700  0.31350  Biso   1.000  F
  C9       1.0000 0.97583  0.77820  0.90896  Biso   1.000  C
  C10      1.0000 0.47583  0.27820  0.90896  Biso   1.000  C
  C11      1.0000 0.02417  0.77820  0.59104  Biso   1.000  C
  C12      1.0000 0.52417  0.27820  0.59104  Biso   1.000  C
  C13      1.0000 0.02417  0.22180  0.09104  Biso   1.000  C
  C14      1.0000 0.52417  0.72180  0.09104  Biso   1.000  C
  C15      1.0000 0.97583  0.22180  0.40896  Biso   1.000  C
  C16      1.0000 0.47583  0.72180  0.40896  Biso   1.000  C
  C17      1.0000 0.95487  0.69180  0.93190  Biso   1.000  C
  C18      1.0000 0.45487  0.19180  0.93190  Biso   1.000  C
  C19      1.0000 0.04513  0.69180  0.56810  Biso   1.000  C
  C20      1.0000 0.54513  0.19180  0.56810  Biso   1.000  C
  C21      1.0000 0.04513  0.30820  0.06810  Biso   1.000  C
  C22      1.0000 0.54513  0.80820  0.06810  Biso   1.000  C
  C23      1.0000 0.95487  0.30820  0.43190  Biso   1.000  C
  C24      1.0000 0.45487  0.80820  0.43190  Biso   1.000  C
  H1       1.0000 0.94590  0.60100  0.91610  Biso   1.000  H
  H2       1.0000 0.44590  0.10100  0.91610  Biso   1.000  H
  H3       1.0000 0.05410  0.60100  0.58390  Biso   1.000  H
  H4       1.0000 0.55410  0.10100  0.58390  Biso   1.000  H
  H5       1.0000 0.05410  0.39900  0.08390  Biso   1.000  H
  H6       1.0000 0.55410  0.89900  0.08390  Biso   1.000  H
  H7       1.0000 0.94590  0.39900  0.41610  Biso   1.000  H
  H8       1.0000 0.44590  0.89900  0.41610  Biso   1.000  H
  C25      1.0000 0.94878  0.73320  0.97840  Biso   1.000  C
  C26      1.0000 0.44878  0.23320  0.97840  Biso   1.000  C
  C27      1.0000 0.05122  0.73320  0.52160  Biso   1.000  C
  C28      1.0000 0.55122  0.23320  0.52160  Biso   1.000  C
  C29      1.0000 0.05122  0.26680  0.02160  Biso   1.000  C
  C30      1.0000 0.55122  0.76680  0.02160  Biso   1.000  C
  C31      1.0000 0.94878  0.26680  0.47840  Biso   1.000  C
  C32      1.0000 0.44878  0.76680  0.47840  Biso   1.000  C
  C33      1.0000 0.92420  0.63100  0.99940  Biso   1.000  C
  C34      1.0000 0.42420  0.13100  0.99940  Biso   1.000  C
  C35      1.0000 0.07580  0.63100  0.50060  Biso   1.000  C
  C36      1.0000 0.57580  0.13100  0.50060  Biso   1.000  C
  C37      1.0000 0.07580  0.36900  0.00060  Biso   1.000  C
  C38      1.0000 0.57580  0.86900  0.00060  Biso   1.000  C
  C39      1.0000 0.92420  0.36900  0.49940  Biso   1.000  C
  C40      1.0000 0.42420  0.86900  0.49940  Biso   1.000  C
  F25      1.0000 0.93450  0.50810  0.99510  Biso   1.000  F
  F26      1.0000 0.43450  0.00810  0.99510  Biso   1.000  F
  F27      1.0000 0.06550  0.50810  0.50490  Biso   1.000  F
  F28      1.0000 0.56550  0.00810  0.50490  Biso   1.000  F
  F29      1.0000 0.06550  0.49190  0.00490  Biso   1.000  F
  F30      1.0000 0.56550  0.99190  0.00490  Biso   1.000  F
  F31      1.0000 0.93450  0.49190  0.49510  Biso   1.000  F
  F32      1.0000 0.43450  0.99190  0.49510  Biso   1.000  F
  F33      1.0000 0.86640  0.63720  0.94870  Biso   1.000  F
  F34      1.0000 0.36640  0.13720  0.94870  Biso   1.000  F
  F35      1.0000 0.13360  0.63720  0.55130  Biso   1.000  F
  F36      1.0000 0.63360  0.13720  0.55130  Biso   1.000  F
  F37      1.0000 0.13360  0.36280  0.05130  Biso   1.000  F
  F38      1.0000 0.63360  0.86280  0.05130  Biso   1.000  F
  F39      1.0000 0.86640  0.36280  0.44870  Biso   1.000  F
  F40      1.0000 0.36640  0.86280  0.44870  Biso   1.000  F
  F41      1.0000 0.92800  0.65950  0.04600  Biso   1.000  F
  F42      1.0000 0.42800  0.15950  0.04600  Biso   1.000  F
  F43      1.0000 0.07200  0.65950  0.45400  Biso   1.000  F
  F44      1.0000 0.57200  0.15950  0.45400  Biso   1.000  F
  F45      1.0000 0.07200  0.34050  0.95400  Biso   1.000  F
  F46      1.0000 0.57200  0.84050  0.95400  Biso   1.000  F
  F47      1.0000 0.92800  0.34050  0.54600  Biso   1.000  F
  F48      1.0000 0.42800  0.84050  0.54600  Biso   1.000  F
  O9       1.0000 0.96062  0.84800  0.00626  Biso   1.000  O
  O10      1.0000 0.46062  0.34800  0.00626  Biso   1.000  O
  O11      1.0000 0.03938  0.84800  0.49374  Biso   1.000  O
  O12      1.0000 0.53938  0.34800  0.49374  Biso   1.000  O
  O13      1.0000 0.03938  0.15200  0.99374  Biso   1.000  O
  O14      1.0000 0.53938  0.65200  0.99374  Biso   1.000  O
  O15      1.0000 0.96062  0.15200  0.50626  Biso   1.000  O
  O16      1.0000 0.46062  0.65200  0.50626  Biso   1.000  O
  Cu5      1.0000 0.25000  0.25000  0.00000  Biso   1.000  Cu
  Cu6      1.0000 0.75000  0.75000  0.00000  Biso   1.000  Cu
  Cu7      1.0000 0.75000  0.25000  0.50000  Biso   1.000  Cu
  Cu8      1.0000 0.25000  0.75000  0.50000  Biso   1.000  Cu
  O17      1.0000 0.25728  0.09230  0.95744  Biso   1.000  O
  O18      1.0000 0.75728  0.59230  0.95744  Biso   1.000  O
  O19      1.0000 0.74272  0.09230  0.54256  Biso   1.000  O
  O20      1.0000 0.24272  0.59230  0.54256  Biso   1.000  O
  O21      1.0000 0.74272  0.90770  0.04256  Biso   1.000  O
  O22      1.0000 0.24272  0.40770  0.04256  Biso   1.000  O
  O23      1.0000 0.25728  0.90770  0.45744  Biso   1.000  O
  O24      1.0000 0.75728  0.40770  0.45744  Biso   1.000  O
  C41      1.0000 0.28090  0.87120  0.94300  Biso   1.000  C
  C42      1.0000 0.78090  0.37120  0.94300  Biso   1.000  C
  C43      1.0000 0.71910  0.87120  0.55700  Biso   1.000  C
  C44      1.0000 0.21910  0.37120  0.55700  Biso   1.000  C
  C45      1.0000 0.71910  0.12880  0.05700  Biso   1.000  C
  C46      1.0000 0.21910  0.62880  0.05700  Biso   1.000  C
  C47      1.0000 0.28090  0.12880  0.44300  Biso   1.000  C
  C48      1.0000 0.78090  0.62880  0.44300  Biso   1.000  C
  F49      1.0000 0.26390  0.91210  0.89000  Biso   1.000  F
  F50      1.0000 0.76390  0.41210  0.89000  Biso   1.000  F
  F51      1.0000 0.73610  0.91210  0.61000  Biso   1.000  F
  F52      1.0000 0.23610  0.41210  0.61000  Biso   1.000  F
  F53      1.0000 0.73610  0.08790  0.11000  Biso   1.000  F
  F54      1.0000 0.23610  0.58790  0.11000  Biso   1.000  F
  F55      1.0000 0.26390  0.08790  0.39000  Biso   1.000  F
  F56      1.0000 0.76390  0.58790  0.39000  Biso   1.000  F
  F57      1.0000 0.26940  0.75690  0.95500  Biso   1.000  F
  F58      1.0000 0.76940  0.25690  0.95500  Biso   1.000  F
  F59      1.0000 0.73060  0.75690  0.54500  Biso   1.000  F
  F60      1.0000 0.23060  0.25690  0.54500  Biso   1.000  F
  F61      1.0000 0.73060  0.24310  0.04500  Biso   1.000  F
  F62      1.0000 0.23060  0.74310  0.04500  Biso   1.000  F
  F63      1.0000 0.26940  0.24310  0.45500  Biso   1.000  F
  F64      1.0000 0.76940  0.74310  0.45500  Biso   1.000  F
  F65      1.0000 0.33770  0.83350  0.96740  Biso   1.000  F
  F66      1.0000 0.83770  0.33350  0.96740  Biso   1.000  F
  F67      1.0000 0.66230  0.83350  0.53260  Biso   1.000  F
  F68      1.0000 0.16230  0.33350  0.53260  Biso   1.000  F
  F69      1.0000 0.66230  0.16650  0.03260  Biso   1.000  F
  F70      1.0000 0.16230  0.66650  0.03260  Biso   1.000  F
  F71      1.0000 0.33770  0.16650  0.46740  Biso   1.000  F
  F72      1.0000 0.83770  0.66650  0.46740  Biso   1.000  F
  C49      1.0000 0.28707  0.99020  0.98622  Biso   1.000  C
  C50      1.0000 0.78707  0.49020  0.98622  Biso   1.000  C
  C51      1.0000 0.71293  0.99020  0.51378  Biso   1.000  C
  C52      1.0000 0.21293  0.49020  0.51378  Biso   1.000  C
  C53      1.0000 0.71293  0.00980  0.01378  Biso   1.000  C
  C54      1.0000 0.21293  0.50980  0.01378  Biso   1.000  C
  C55      1.0000 0.28707  0.00980  0.48622  Biso   1.000  C
  C56      1.0000 0.78707  0.50980  0.48622  Biso   1.000  C
  C57      1.0000 0.32360  0.97190  0.05100  Biso   1.000  C
  C58      1.0000 0.82360  0.47190  0.05100  Biso   1.000  C
  C59      1.0000 0.67640  0.97190  0.44900  Biso   1.000  C
  C60      1.0000 0.17640  0.47190  0.44900  Biso   1.000  C
  C61      1.0000 0.67640  0.02810  0.94900  Biso   1.000  C
  C62      1.0000 0.17640  0.52810  0.94900  Biso   1.000  C
  C63      1.0000 0.32360  0.02810  0.55100  Biso   1.000  C
  C64      1.0000 0.82360  0.52810  0.55100  Biso   1.000  C
  H9       1.0000 0.33900  0.90300  0.06320  Biso   1.000  H
  H10      1.0000 0.83900  0.40300  0.06320  Biso   1.000  H
  H11      1.0000 0.66100  0.90300  0.43680  Biso   1.000  H
  H12      1.0000 0.16100  0.40300  0.43680  Biso   1.000  H
  H13      1.0000 0.66100  0.09700  0.93680  Biso   1.000  H
  H14      1.0000 0.16100  0.59700  0.93680  Biso   1.000  H
  H15      1.0000 0.33900  0.09700  0.56320  Biso   1.000  H
  H16      1.0000 0.83900  0.59700  0.56320  Biso   1.000  H
  C65      1.0000 0.33199  0.06770  0.09542  Biso   1.000  C
  C66      1.0000 0.83199  0.56770  0.09542  Biso   1.000  C
  C67      1.0000 0.66801  0.06770  0.40458  Biso   1.000  C
  C68      1.0000 0.16801  0.56770  0.40458  Biso   1.000  C
  C69      1.0000 0.66801  0.93230  0.90458  Biso   1.000  C
  C70      1.0000 0.16801  0.43230  0.90458  Biso   1.000  C
  C71      1.0000 0.33199  0.93230  0.59542  Biso   1.000  C
  C72      1.0000 0.83199  0.43230  0.59542  Biso   1.000  C
  C73      1.0000 0.37340  0.03650  0.16640  Biso   1.000  C
  C74      1.0000 0.87340  0.53650  0.16640  Biso   1.000  C
  C75      1.0000 0.62660  0.03650  0.33360  Biso   1.000  C
  C76      1.0000 0.12660  0.53650  0.33360  Biso   1.000  C
  C77      1.0000 0.62660  0.96350  0.83360  Biso   1.000  C
  C78      1.0000 0.12660  0.46350  0.83360  Biso   1.000  C
  C79      1.0000 0.37340  0.96350  0.66640  Biso   1.000  C
  C80      1.0000 0.87340  0.46350  0.66640  Biso   1.000  C
  F73      1.0000 0.34940  0.00600  0.19220  Biso   1.000  F
  F74      1.0000 0.84940  0.50600  0.19220  Biso   1.000  F
  F75      1.0000 0.65060  0.00600  0.30780  Biso   1.000  F
  F76      1.0000 0.15060  0.50600  0.30780  Biso   1.000  F
  F77      1.0000 0.65060  0.99400  0.80780  Biso   1.000  F
  F78      1.0000 0.15060  0.49400  0.80780  Biso   1.000  F
  F79      1.0000 0.34940  0.99400  0.69220  Biso   1.000  F
  F80      1.0000 0.84940  0.49400  0.69220  Biso   1.000  F
  F81      1.0000 0.40820  0.94400  0.18000  Biso   1.000  F
  F82      1.0000 0.90820  0.44400  0.18000  Biso   1.000  F
  F83      1.0000 0.59180  0.94400  0.32000  Biso   1.000  F
  F84      1.0000 0.09180  0.44400  0.32000  Biso   1.000  F
  F85      1.0000 0.59180  0.05600  0.82000  Biso   1.000  F
  F86      1.0000 0.09180  0.55600  0.82000  Biso   1.000  F
  F87      1.0000 0.40820  0.05600  0.68000  Biso   1.000  F
  F88      1.0000 0.90820  0.55600  0.68000  Biso   1.000  F
  F89      1.0000 0.40470  0.14930  0.19810  Biso   1.000  F
  F90      1.0000 0.90470  0.64930  0.19810  Biso   1.000  F
  F91      1.0000 0.59530  0.14930  0.30190  Biso   1.000  F
  F92      1.0000 0.09530  0.64930  0.30190  Biso   1.000  F
  F93      1.0000 0.59530  0.85070  0.80190  Biso   1.000  F
  F94      1.0000 0.09530  0.35070  0.80190  Biso   1.000  F
  F95      1.0000 0.40470  0.85070  0.69810  Biso   1.000  F
  F96      1.0000 0.90470  0.35070  0.69810  Biso   1.000  F
  O25      1.0000 0.30936  0.18250  0.08512  Biso   1.000  O
  O26      1.0000 0.80936  0.68250  0.08512  Biso   1.000  O
  O27      1.0000 0.69064  0.18250  0.41488  Biso   1.000  O
  O28      1.0000 0.19064  0.68250  0.41488  Biso   1.000  O
  O29      1.0000 0.69064  0.81750  0.91488  Biso   1.000  O
  O30      1.0000 0.19064  0.31750  0.91488  Biso   1.000  O
  O31      1.0000 0.30936  0.81750  0.58512  Biso   1.000  O
  O32      1.0000 0.80936  0.31750  0.58512  Biso   1.000  O
  O33      1.0000 0.24719  0.00420  0.20337  Biso   1.000  O
  O34      1.0000 0.74719  0.50420  0.20337  Biso   1.000  O
  O35      1.0000 0.75281  0.00420  0.29663  Biso   1.000  O
  O36      1.0000 0.25281  0.50420  0.29663  Biso   1.000  O
  O37      1.0000 0.75281  0.99580  0.79663  Biso   1.000  O
  O38      1.0000 0.25281  0.49580  0.79663  Biso   1.000  O
  O39      1.0000 0.24719  0.99580  0.70337  Biso   1.000  O
  O40      1.0000 0.74719  0.49580  0.70337  Biso   1.000  O
  N1       1.0000 0.19999  0.95580  0.17889  Biso   1.000  N
  N2       1.0000 0.69999  0.45580  0.17889  Biso   1.000  N
  N3       1.0000 0.80001  0.95580  0.32111  Biso   1.000  N
  N4       1.0000 0.30001  0.45580  0.32111  Biso   1.000  N
  N5       1.0000 0.80001  0.04420  0.82111  Biso   1.000  N
  N6       1.0000 0.30001  0.54420  0.82111  Biso   1.000  N
  N7       1.0000 0.19999  0.04420  0.67889  Biso   1.000  N
  N8       1.0000 0.69999  0.54420  0.67889  Biso   1.000  N
  C81      1.0000 0.18018  0.91940  0.21853  Biso   1.000  C
  C82      1.0000 0.68018  0.41940  0.21853  Biso   1.000  C
  C83      1.0000 0.81982  0.91940  0.28147  Biso   1.000  C
  C84      1.0000 0.31982  0.41940  0.28147  Biso   1.000  C
  C85      1.0000 0.81982  0.08060  0.78147  Biso   1.000  C
  C86      1.0000 0.31982  0.58060  0.78147  Biso   1.000  C
  C87      1.0000 0.18018  0.08060  0.71853  Biso   1.000  C
  C88      1.0000 0.68018  0.58060  0.71853  Biso   1.000  C
  C89      1.0000 0.16530  0.05610  0.23340  Biso   1.000  C
  C90      1.0000 0.66530  0.55610  0.23340  Biso   1.000  C
  C91      1.0000 0.83470  0.05610  0.26660  Biso   1.000  C
  C92      1.0000 0.33470  0.55610  0.26660  Biso   1.000  C
  C93      1.0000 0.83470  0.94390  0.76660  Biso   1.000  C
  C94      1.0000 0.33470  0.44390  0.76660  Biso   1.000  C
  C95      1.0000 0.16530  0.94390  0.73340  Biso   1.000  C
  C96      1.0000 0.66530  0.44390  0.73340  Biso   1.000  C
  H17      1.0000 0.19400  0.12600  0.25700  Biso   1.000  H
  H18      1.0000 0.69400  0.62600  0.25700  Biso   1.000  H
  H19      1.0000 0.80600  0.12600  0.24300  Biso   1.000  H
  H20      1.0000 0.30600  0.62600  0.24300  Biso   1.000  H
  H21      1.0000 0.80600  0.87400  0.74300  Biso   1.000  H
  H22      1.0000 0.30600  0.37400  0.74300  Biso   1.000  H
  H23      1.0000 0.19400  0.87400  0.75700  Biso   1.000  H
  H24      1.0000 0.69400  0.37400  0.75700  Biso   1.000  H
  H25      1.0000 0.15380  0.03600  0.26500  Biso   1.000  H
  H26      1.0000 0.65380  0.53600  0.26500  Biso   1.000  H
  H27      1.0000 0.84620  0.03600  0.23500  Biso   1.000  H
  H28      1.0000 0.34620  0.53600  0.23500  Biso   1.000  H
  H29      1.0000 0.84620  0.96400  0.73500  Biso   1.000  H
  H30      1.0000 0.34620  0.46400  0.73500  Biso   1.000  H
  H31      1.0000 0.15380  0.96400  0.76500  Biso   1.000  H
  H32      1.0000 0.65380  0.46400  0.76500  Biso   1.000  H
  H33      1.0000 0.14090  0.09000  0.20400  Biso   1.000  H
  H34      1.0000 0.64090  0.59000  0.20400  Biso   1.000  H
  H35      1.0000 0.85910  0.09000  0.29600  Biso   1.000  H
  H36      1.0000 0.35910  0.59000  0.29600  Biso   1.000  H
  H37      1.0000 0.85910  0.91000  0.79600  Biso   1.000  H
  H38      1.0000 0.35910  0.41000  0.79600  Biso   1.000  H
  H39      1.0000 0.14090  0.91000  0.70400  Biso   1.000  H
  H40      1.0000 0.64090  0.41000  0.70400  Biso   1.000  H
  C97      1.0000 0.22420  0.84550  0.27970  Biso   1.000  C
  C98      1.0000 0.72420  0.34550  0.27970  Biso   1.000  C
  C99      1.0000 0.77580  0.84550  0.22030  Biso   1.000  C
  C100     1.0000 0.27580  0.34550  0.22030  Biso   1.000  C
  C101     1.0000 0.77580  0.15450  0.72030  Biso   1.000  C
  C102     1.0000 0.27580  0.65450  0.72030  Biso   1.000  C
  C103     1.0000 0.22420  0.15450  0.77970  Biso   1.000  C
  C104     1.0000 0.72420  0.65450  0.77970  Biso   1.000  C
  H41      1.0000 0.24140  0.76400  0.26900  Biso   1.000  H
  H42      1.0000 0.74140  0.26400  0.26900  Biso   1.000  H
  H43      1.0000 0.75860  0.76400  0.23100  Biso   1.000  H
  H44      1.0000 0.25860  0.26400  0.23100  Biso   1.000  H
  H45      1.0000 0.75860  0.23600  0.73100  Biso   1.000  H
  H46      1.0000 0.25860  0.73600  0.73100  Biso   1.000  H
  H47      1.0000 0.24140  0.23600  0.76900  Biso   1.000  H
  H48      1.0000 0.74140  0.73600  0.76900  Biso   1.000  H
  H49      1.0000 0.25500  0.89400  0.30300  Biso   1.000  H
  H50      1.0000 0.75500  0.39400  0.30300  Biso   1.000  H
  H51      1.0000 0.74500  0.89400  0.19700  Biso   1.000  H
  H52      1.0000 0.24500  0.39400  0.19700  Biso   1.000  H
  H53      1.0000 0.74500  0.10600  0.69700  Biso   1.000  H
  H54      1.0000 0.24500  0.60600  0.69700  Biso   1.000  H
  H55      1.0000 0.25500  0.10600  0.80300  Biso   1.000  H
  H56      1.0000 0.75500  0.60600  0.80300  Biso   1.000  H
  H57      1.0000 0.20500  0.83300  0.30900  Biso   1.000  H
  H58      1.0000 0.70500  0.33300  0.30900  Biso   1.000  H
  H59      1.0000 0.79500  0.83300  0.19100  Biso   1.000  H
  H60      1.0000 0.29500  0.33300  0.19100  Biso   1.000  H
  H61      1.0000 0.79500  0.16700  0.69100  Biso   1.000  H
  H62      1.0000 0.29500  0.66700  0.69100  Biso   1.000  H
  H63      1.0000 0.20500  0.16700  0.80900  Biso   1.000  H
  H64      1.0000 0.70500  0.66700  0.80900  Biso   1.000  H
  C105     1.0000 0.13108  0.82800  0.16997  Biso   1.000  C
  C106     1.0000 0.63108  0.32800  0.16997  Biso   1.000  C
  C107     1.0000 0.86892  0.82800  0.33003  Biso   1.000  C
  C108     1.0000 0.36892  0.32800  0.33003  Biso   1.000  C
  C109     1.0000 0.86892  0.17200  0.83003  Biso   1.000  C
  C110     1.0000 0.36892  0.67200  0.83003  Biso   1.000  C
  C111     1.0000 0.13108  0.17200  0.66997  Biso   1.000  C
  C112     1.0000 0.63108  0.67200  0.66997  Biso   1.000  C
  C113     1.0000 0.08310  0.83750  0.17300  Biso   1.000  C
  C114     1.0000 0.58310  0.33750  0.17300  Biso   1.000  C
  C115     1.0000 0.91690  0.83750  0.32700  Biso   1.000  C
  C116     1.0000 0.41690  0.33750  0.32700  Biso   1.000  C
  C117     1.0000 0.91690  0.16250  0.82700  Biso   1.000  C
  C118     1.0000 0.41690  0.66250  0.82700  Biso   1.000  C
  C119     1.0000 0.08310  0.16250  0.67300  Biso   1.000  C
  C120     1.0000 0.58310  0.66250  0.67300  Biso   1.000  C
  H65      1.0000 0.05500  0.77700  0.14400  Biso   1.000  H
  H66      1.0000 0.55500  0.27700  0.14400  Biso   1.000  H
  H67      1.0000 0.94500  0.77700  0.35600  Biso   1.000  H
  H68      1.0000 0.44500  0.27700  0.35600  Biso   1.000  H
  H69      1.0000 0.94500  0.22300  0.85600  Biso   1.000  H
  H70      1.0000 0.44500  0.72300  0.85600  Biso   1.000  H
  H71      1.0000 0.05500  0.22300  0.64400  Biso   1.000  H
  H72      1.0000 0.55500  0.72300  0.64400  Biso   1.000  H
  H73      1.0000 0.07040  0.93500  0.17020  Biso   1.000  H
  H74      1.0000 0.57040  0.43500  0.17020  Biso   1.000  H
  H75      1.0000 0.92960  0.93500  0.32980  Biso   1.000  H
  H76      1.0000 0.42960  0.43500  0.32980  Biso   1.000  H
  H77      1.0000 0.92960  0.06500  0.82980  Biso   1.000  H
  H78      1.0000 0.42960  0.56500  0.82980  Biso   1.000  H
  H79      1.0000 0.07040  0.06500  0.67020  Biso   1.000  H
  H80      1.0000 0.57040  0.56500  0.67020  Biso   1.000  H
  H81      1.0000 0.09380  0.80400  0.21300  Biso   1.000  H
  H82      1.0000 0.59380  0.30400  0.21300  Biso   1.000  H
  H83      1.0000 0.90620  0.80400  0.28700  Biso   1.000  H
  H84      1.0000 0.40620  0.30400  0.28700  Biso   1.000  H
  H85      1.0000 0.90620  0.19600  0.78700  Biso   1.000  H
  H86      1.0000 0.40620  0.69600  0.78700  Biso   1.000  H
  H87      1.0000 0.09380  0.19600  0.71300  Biso   1.000  H
  H88      1.0000 0.59380  0.69600  0.71300  Biso   1.000  H
  C121     1.0000 0.14640  0.67540  0.17020  Biso   1.000  C
  C122     1.0000 0.64640  0.17540  0.17020  Biso   1.000  C
  C123     1.0000 0.85360  0.67540  0.32980  Biso   1.000  C
  C124     1.0000 0.35360  0.17540  0.32980  Biso   1.000  C
  C125     1.0000 0.85360  0.32460  0.82980  Biso   1.000  C
  C126     1.0000 0.35360  0.82460  0.82980  Biso   1.000  C
  C127     1.0000 0.14640  0.32460  0.67020  Biso   1.000  C
  C128     1.0000 0.64640  0.82460  0.67020  Biso   1.000  C
  H89      1.0000 0.11910  0.63800  0.14150  Biso   1.000  H
  H90      1.0000 0.61910  0.13800  0.14150  Biso   1.000  H
  H91      1.0000 0.88090  0.63800  0.35850  Biso   1.000  H
  H92      1.0000 0.38090  0.13800  0.35850  Biso   1.000  H
  H93      1.0000 0.88090  0.36200  0.85850  Biso   1.000  H
  H94      1.0000 0.38090  0.86200  0.85850  Biso   1.000  H
  H95      1.0000 0.11910  0.36200  0.64150  Biso   1.000  H
  H96      1.0000 0.61910  0.86200  0.64150  Biso   1.000  H
  H97      1.0000 0.15150  0.63200  0.21020  Biso   1.000  H
  H98      1.0000 0.65150  0.13200  0.21020  Biso   1.000  H
  H99      1.0000 0.84850  0.63200  0.28980  Biso   1.000  H
  H100     1.0000 0.34850  0.13200  0.28980  Biso   1.000  H
  H101     1.0000 0.84850  0.36800  0.78980  Biso   1.000  H
  H102     1.0000 0.34850  0.86800  0.78980  Biso   1.000  H
  H103     1.0000 0.15150  0.36800  0.71020  Biso   1.000  H
  H104     1.0000 0.65150  0.86800  0.71020  Biso   1.000  H
  H105     1.0000 0.17700  0.66000  0.16400  Biso   1.000  H
  H106     1.0000 0.67700  0.16000  0.16400  Biso   1.000  H
  H107     1.0000 0.82300  0.66000  0.33600  Biso   1.000  H
  H108     1.0000 0.32300  0.16000  0.33600  Biso   1.000  H
  H109     1.0000 0.82300  0.34000  0.83600  Biso   1.000  H
  H110     1.0000 0.32300  0.84000  0.83600  Biso   1.000  H
  H111     1.0000 0.17700  0.34000  0.66400  Biso   1.000  H
  H112     1.0000 0.67700  0.84000  0.66400  Biso   1.000  H
  N9       1.0000 0.11739  0.88880  0.10889  Biso   1.000  N
  N10      1.0000 0.61739  0.38880  0.10889  Biso   1.000  N
  N11      1.0000 0.88261  0.88880  0.39111  Biso   1.000  N
  N12      1.0000 0.38261  0.38880  0.39111  Biso   1.000  N
  N13      1.0000 0.88261  0.11120  0.89111  Biso   1.000  N
  N14      1.0000 0.38261  0.61120  0.89111  Biso   1.000  N
  N15      1.0000 0.11739  0.11120  0.60889  Biso   1.000  N
  N16      1.0000 0.61739  0.61120  0.60889  Biso   1.000  N
  O41      1.0000 0.07185  0.86200  0.05422  Biso   1.000  O
  O42      1.0000 0.57185  0.36200  0.05422  Biso   1.000  O
  O43      1.0000 0.92815  0.86200  0.44578  Biso   1.000  O
  O44      1.0000 0.42815  0.36200  0.44578  Biso   1.000  O
  O45      1.0000 0.92815  0.13800  0.94578  Biso   1.000  O
  O46      1.0000 0.42815  0.63800  0.94578  Biso   1.000  O
  O47      1.0000 0.07185  0.13800  0.55422  Biso   1.000  O
  O48      1.0000 0.57185  0.63800  0.55422  Biso   1.000  O
  C129     1.0000 0.15995  0.94950  0.11603  Biso   1.000  C
  C130     1.0000 0.65995  0.44950  0.11603  Biso   1.000  C
  C131     1.0000 0.84005  0.94950  0.38397  Biso   1.000  C
  C132     1.0000 0.34005  0.44950  0.38397  Biso   1.000  C
  C133     1.0000 0.84005  0.05050  0.88397  Biso   1.000  C
  C134     1.0000 0.34005  0.55050  0.88397  Biso   1.000  C
  C135     1.0000 0.15995  0.05050  0.61603  Biso   1.000  C
  C136     1.0000 0.65995  0.55050  0.61603  Biso   1.000  C
  C137     1.0000 0.16250  0.99880  0.06566  Biso   1.000  C
  C138     1.0000 0.66250  0.49880  0.06566  Biso   1.000  C
  C139     1.0000 0.83750  0.99880  0.43434  Biso   1.000  C
  C140     1.0000 0.33750  0.49880  0.43434  Biso   1.000  C
  C141     1.0000 0.83750  0.00120  0.93434  Biso   1.000  C
  C142     1.0000 0.33750  0.50120  0.93434  Biso   1.000  C
  C143     1.0000 0.16250  0.00120  0.56566  Biso   1.000  C
  C144     1.0000 0.66250  0.50120  0.56566  Biso   1.000  C
  C145     1.0000 0.12456  0.97900  0.00095  Biso   1.000  C
  C146     1.0000 0.62456  0.47900  0.00095  Biso   1.000  C
  C147     1.0000 0.87544  0.97900  0.49905  Biso   1.000  C
  C148     1.0000 0.37544  0.47900  0.49905  Biso   1.000  C
  C149     1.0000 0.87544  0.02100  0.99905  Biso   1.000  C
  C150     1.0000 0.37544  0.52100  0.99905  Biso   1.000  C
  C151     1.0000 0.12456  0.02100  0.50095  Biso   1.000  C
  C152     1.0000 0.62456  0.52100  0.50095  Biso   1.000  C
  H113     1.0000 0.08930  0.92400  0.97690  Biso   1.000  H
  H114     1.0000 0.58930  0.42400  0.97690  Biso   1.000  H
  H115     1.0000 0.91070  0.92400  0.52310  Biso   1.000  H
  H116     1.0000 0.41070  0.42400  0.52310  Biso   1.000  H
  H117     1.0000 0.91070  0.07600  0.02310  Biso   1.000  H
  H118     1.0000 0.41070  0.57600  0.02310  Biso   1.000  H
  H119     1.0000 0.08930  0.07600  0.47690  Biso   1.000  H
  H120     1.0000 0.58930  0.57600  0.47690  Biso   1.000  H
  N17      1.0000 0.14270  0.04320  0.97149  Biso   1.000  N
  N18      1.0000 0.64270  0.54320  0.97149  Biso   1.000  N
  N19      1.0000 0.85730  0.04320  0.52851  Biso   1.000  N
  N20      1.0000 0.35730  0.54320  0.52851  Biso   1.000  N
  N21      1.0000 0.85730  0.95680  0.02851  Biso   1.000  N
  N22      1.0000 0.35730  0.45680  0.02851  Biso   1.000  N
  N23      1.0000 0.14270  0.95680  0.47149  Biso   1.000  N
  N24      1.0000 0.64270  0.45680  0.47149  Biso   1.000  N
  C153     1.0000 0.11600  0.05000  0.90350  Biso   1.000  C
  C154     1.0000 0.61600  0.55000  0.90350  Biso   1.000  C
  C155     1.0000 0.88400  0.05000  0.59650  Biso   1.000  C
  C156     1.0000 0.38400  0.55000  0.59650  Biso   1.000  C
  C157     1.0000 0.88400  0.95000  0.09650  Biso   1.000  C
  C158     1.0000 0.38400  0.45000  0.09650  Biso   1.000  C
  C159     1.0000 0.11600  0.95000  0.40350  Biso   1.000  C
  C160     1.0000 0.61600  0.45000  0.40350  Biso   1.000  C
  C161     1.0000 0.06820  0.09000  0.86600  Biso   1.000  C
  C162     1.0000 0.56820  0.59000  0.86600  Biso   1.000  C
  C163     1.0000 0.93180  0.09000  0.63400  Biso   1.000  C
  C164     1.0000 0.43180  0.59000  0.63400  Biso   1.000  C
  C165     1.0000 0.93180  0.91000  0.13400  Biso   1.000  C
  C166     1.0000 0.43180  0.41000  0.13400  Biso   1.000  C
  C167     1.0000 0.06820  0.91000  0.36600  Biso   1.000  C
  C168     1.0000 0.56820  0.41000  0.36600  Biso   1.000  C
  H121     1.0000 0.07710  0.18660  0.86820  Biso   1.000  H
  H122     1.0000 0.57710  0.68660  0.86820  Biso   1.000  H
  H123     1.0000 0.92290  0.18660  0.63180  Biso   1.000  H
  H124     1.0000 0.42290  0.68660  0.63180  Biso   1.000  H
  H125     1.0000 0.92290  0.81340  0.13180  Biso   1.000  H
  H126     1.0000 0.42290  0.31340  0.13180  Biso   1.000  H
  H127     1.0000 0.07710  0.81340  0.36820  Biso   1.000  H
  H128     1.0000 0.57710  0.31340  0.36820  Biso   1.000  H
  C169     1.0000 0.04200  0.07750  0.79360  Biso   1.000  C
  C170     1.0000 0.54200  0.57750  0.79360  Biso   1.000  C
  C171     1.0000 0.95800  0.07750  0.70640  Biso   1.000  C
  C172     1.0000 0.45800  0.57750  0.70640  Biso   1.000  C
  C173     1.0000 0.95800  0.92250  0.20640  Biso   1.000  C
  C174     1.0000 0.45800  0.42250  0.20640  Biso   1.000  C
  C175     1.0000 0.04200  0.92250  0.29360  Biso   1.000  C
  C176     1.0000 0.54200  0.42250  0.29360  Biso   1.000  C
  H129     1.0000 0.00480  0.10590  0.76960  Biso   1.000  H
  H130     1.0000 0.50480  0.60590  0.76960  Biso   1.000  H
  H131     1.0000 0.99520  0.10590  0.73040  Biso   1.000  H
  H132     1.0000 0.49520  0.60590  0.73040  Biso   1.000  H
  H133     1.0000 0.99520  0.89410  0.23040  Biso   1.000  H
  H134     1.0000 0.49520  0.39410  0.23040  Biso   1.000  H
  H135     1.0000 0.00480  0.89410  0.26960  Biso   1.000  H
  H136     1.0000 0.50480  0.39410  0.26960  Biso   1.000  H
  H137     1.0000 0.04400  0.98270  0.78340  Biso   1.000  H
  H138     1.0000 0.54400  0.48270  0.78340  Biso   1.000  H
  H139     1.0000 0.95600  0.98270  0.71660  Biso   1.000  H
  H140     1.0000 0.45600  0.48270  0.71660  Biso   1.000  H
  H141     1.0000 0.95600  0.01730  0.21660  Biso   1.000  H
  H142     1.0000 0.45600  0.51730  0.21660  Biso   1.000  H
  H143     1.0000 0.04400  0.01730  0.28340  Biso   1.000  H
  H144     1.0000 0.54400  0.51730  0.28340  Biso   1.000  H
  H145     1.0000 0.06110  0.13630  0.78290  Biso   1.000  H
  H146     1.0000 0.56110  0.63630  0.78290  Biso   1.000  H
  H147     1.0000 0.93890  0.13630  0.71710  Biso   1.000  H
  H148     1.0000 0.43890  0.63630  0.71710  Biso   1.000  H
  H149     1.0000 0.93890  0.86370  0.21710  Biso   1.000  H
  H150     1.0000 0.43890  0.36370  0.21710  Biso   1.000  H
  H151     1.0000 0.06110  0.86370  0.28290  Biso   1.000  H
  H152     1.0000 0.56110  0.36370  0.28290  Biso   1.000  H
  N25      1.0000 0.19151  0.10590  0.01352  Biso   1.000  N
  N26      1.0000 0.69151  0.60590  0.01352  Biso   1.000  N
  N27      1.0000 0.80849  0.10590  0.48648  Biso   1.000  N
  N28      1.0000 0.30849  0.60590  0.48648  Biso   1.000  N
  N29      1.0000 0.80849  0.89410  0.98648  Biso   1.000  N
  N30      1.0000 0.30849  0.39410  0.98648  Biso   1.000  N
  N31      1.0000 0.19151  0.89410  0.51352  Biso   1.000  N
  N32      1.0000 0.69151  0.39410  0.51352  Biso   1.000  N
  C177     1.0000 0.20344  0.07920  0.06981  Biso   1.000  C
  C178     1.0000 0.70344  0.57920  0.06981  Biso   1.000  C
  C179     1.0000 0.79656  0.07920  0.43019  Biso   1.000  C
  C180     1.0000 0.29656  0.57920  0.43019  Biso   1.000  C
  C181     1.0000 0.79656  0.92080  0.93019  Biso   1.000  C
  C182     1.0000 0.29656  0.42080  0.93019  Biso   1.000  C
  C183     1.0000 0.20344  0.92080  0.56981  Biso   1.000  C
  C184     1.0000 0.70344  0.42080  0.56981  Biso   1.000  C
  H153     1.0000 0.23850  0.10900  0.11250  Biso   1.000  H
  H154     1.0000 0.73850  0.60900  0.11250  Biso   1.000  H
  H155     1.0000 0.76150  0.10900  0.38750  Biso   1.000  H
  H156     1.0000 0.26150  0.60900  0.38750  Biso   1.000  H
  H157     1.0000 0.76150  0.89100  0.88750  Biso   1.000  H
  H158     1.0000 0.26150  0.39100  0.88750  Biso   1.000  H
  H159     1.0000 0.23850  0.89100  0.61250  Biso   1.000  H
  H160     1.0000 0.73850  0.39100  0.61250  Biso   1.000  H
  F97      1.0000 0.95910  0.78200  0.80900  Biso   1.000  F
  F98      1.0000 0.45910  0.28200  0.80900  Biso   1.000  F
  F99      1.0000 0.04090  0.78200  0.69100  Biso   1.000  F
  F100     1.0000 0.54090  0.28200  0.69100  Biso   1.000  F
  F101     1.0000 0.04090  0.21800  0.19100  Biso   1.000  F
  F102     1.0000 0.54090  0.71800  0.19100  Biso   1.000  F
  F103     1.0000 0.95910  0.21800  0.30900  Biso   1.000  F
  F104     1.0000 0.45910  0.71800  0.30900  Biso   1.000  F
  F105     1.0000 0.96250  0.62000  0.84000  Biso   1.000  F
  F106     1.0000 0.46250  0.12000  0.84000  Biso   1.000  F
  F107     1.0000 0.03750  0.62000  0.66000  Biso   1.000  F
  F108     1.0000 0.53750  0.12000  0.66000  Biso   1.000  F
  F109     1.0000 0.03750  0.38000  0.16000  Biso   1.000  F
  F110     1.0000 0.53750  0.88000  0.16000  Biso   1.000  F
  F111     1.0000 0.96250  0.38000  0.34000  Biso   1.000  F
  F112     1.0000 0.46250  0.88000  0.34000  Biso   1.000  F
  F113     1.0000 0.03530  0.72200  0.88390  Biso   1.000  F
  F114     1.0000 0.53530  0.22200  0.88390  Biso   1.000  F
  F115     1.0000 0.96470  0.72200  0.61610  Biso   1.000  F
  F116     1.0000 0.46470  0.22200  0.61610  Biso   1.000  F
  F117     1.0000 0.96470  0.27800  0.11610  Biso   1.000  F
  F118     1.0000 0.46470  0.77800  0.11610  Biso   1.000  F
  F119     1.0000 0.03530  0.27800  0.38390  Biso   1.000  F
  F120     1.0000 0.53530  0.77800  0.38390  Biso   1.000  F
  F121     1.0000 0.96310  0.61690  0.06810  Biso   1.000  F
  F122     1.0000 0.46310  0.11690  0.06810  Biso   1.000  F
  F123     1.0000 0.03690  0.61690  0.43190  Biso   1.000  F
  F124     1.0000 0.53690  0.11690  0.43190  Biso   1.000  F
  F125     1.0000 0.03690  0.38310  0.93190  Biso   1.000  F
  F126     1.0000 0.53690  0.88310  0.93190  Biso   1.000  F
  F127     1.0000 0.96310  0.38310  0.56810  Biso   1.000  F
  F128     1.0000 0.46310  0.88310  0.56810  Biso   1.000  F
  F129     1.0000 0.92160  0.49860  0.98290  Biso   1.000  F
  F130     1.0000 0.42160  0.99860  0.98290  Biso   1.000  F
  F131     1.0000 0.07840  0.49860  0.51710  Biso   1.000  F
  F132     1.0000 0.57840  0.99860  0.51710  Biso   1.000  F
  F133     1.0000 0.07840  0.50140  0.01710  Biso   1.000  F
  F134     1.0000 0.57840  0.00140  0.01710  Biso   1.000  F
  F135     1.0000 0.92160  0.50140  0.48290  Biso   1.000  F
  F136     1.0000 0.42160  0.00140  0.48290  Biso   1.000  F
  F137     1.0000 0.88380  0.66560  0.99420  Biso   1.000  F
  F138     1.0000 0.38380  0.16560  0.99420  Biso   1.000  F
  F139     1.0000 0.11620  0.66560  0.50580  Biso   1.000  F
  F140     1.0000 0.61620  0.16560  0.50580  Biso   1.000  F
  F141     1.0000 0.11620  0.33440  0.00580  Biso   1.000  F
  F142     1.0000 0.61620  0.83440  0.00580  Biso   1.000  F
  F143     1.0000 0.88380  0.33440  0.49420  Biso   1.000  F
  F144     1.0000 0.38380  0.83440  0.49420  Biso   1.000  F
  F145     1.0000 0.21970  0.85250  0.89350  Biso   1.000  F
  F146     1.0000 0.71970  0.35250  0.89350  Biso   1.000  F
  F147     1.0000 0.78030  0.85250  0.60650  Biso   1.000  F
  F148     1.0000 0.28030  0.35250  0.60650  Biso   1.000  F
  F149     1.0000 0.78030  0.14750  0.10650  Biso   1.000  F
  F150     1.0000 0.28030  0.64750  0.10650  Biso   1.000  F
  F151     1.0000 0.21970  0.14750  0.39350  Biso   1.000  F
  F152     1.0000 0.71970  0.64750  0.39350  Biso   1.000  F
  F153     1.0000 0.28470  0.75320  0.96520  Biso   1.000  F
  F154     1.0000 0.78470  0.25320  0.96520  Biso   1.000  F
  F155     1.0000 0.71530  0.75320  0.53480  Biso   1.000  F
  F156     1.0000 0.21530  0.25320  0.53480  Biso   1.000  F
  F157     1.0000 0.71530  0.24680  0.03480  Biso   1.000  F
  F158     1.0000 0.21530  0.74680  0.03480  Biso   1.000  F
  F159     1.0000 0.28470  0.24680  0.46520  Biso   1.000  F
  F160     1.0000 0.78470  0.74680  0.46520  Biso   1.000  F
  F161     1.0000 0.29320  0.88430  0.90980  Biso   1.000  F
  F162     1.0000 0.79320  0.38430  0.90980  Biso   1.000  F
  F163     1.0000 0.70680  0.88430  0.59020  Biso   1.000  F
  F164     1.0000 0.20680  0.38430  0.59020  Biso   1.000  F
  F165     1.0000 0.70680  0.11570  0.09020  Biso   1.000  F
  F166     1.0000 0.20680  0.61570  0.09020  Biso   1.000  F
  F167     1.0000 0.29320  0.11570  0.40980  Biso   1.000  F
  F168     1.0000 0.79320  0.61570  0.40980  Biso   1.000  F
  F169     1.0000 0.36180  0.08200  0.19990  Biso   1.000  F
  F170     1.0000 0.86180  0.58200  0.19990  Biso   1.000  F
  F171     1.0000 0.63820  0.08200  0.30010  Biso   1.000  F
  F172     1.0000 0.13820  0.58200  0.30010  Biso   1.000  F
  F173     1.0000 0.63820  0.91800  0.80010  Biso   1.000  F
  F174     1.0000 0.13820  0.41800  0.80010  Biso   1.000  F
  F175     1.0000 0.36180  0.91800  0.69990  Biso   1.000  F
  F176     1.0000 0.86180  0.41800  0.69990  Biso   1.000  F
  F177     1.0000 0.38100  0.90090  0.17650  Biso   1.000  F
  F178     1.0000 0.88100  0.40090  0.17650  Biso   1.000  F
  F179     1.0000 0.61900  0.90090  0.32350  Biso   1.000  F
  F180     1.0000 0.11900  0.40090  0.32350  Biso   1.000  F
  F181     1.0000 0.61900  0.09910  0.82350  Biso   1.000  F
  F182     1.0000 0.11900  0.59910  0.82350  Biso   1.000  F
  F183     1.0000 0.38100  0.09910  0.67650  Biso   1.000  F
  F184     1.0000 0.88100  0.59910  0.67650  Biso   1.000  F
  F185     1.0000 0.41760  0.07800  0.18440  Biso   1.000  F
  F186     1.0000 0.91760  0.57800  0.18440  Biso   1.000  F
  F187     1.0000 0.58240  0.07800  0.31560  Biso   1.000  F
  F188     1.0000 0.08240  0.57800  0.31560  Biso   1.000  F
  F189     1.0000 0.58240  0.92200  0.81560  Biso   1.000  F
  F190     1.0000 0.08240  0.42200  0.81560  Biso   1.000  F
  F191     1.0000 0.41760  0.92200  0.68440  Biso   1.000  F
  F192     1.0000 0.91760  0.42200  0.68440  Biso   1.000  F
  H161     1.0000 0.07840  0.18770  0.86820  Biso   1.000  H
  H162     1.0000 0.57840  0.68770  0.86820  Biso   1.000  H
  H163     1.0000 0.92160  0.18770  0.63180  Biso   1.000  H
  H164     1.0000 0.42160  0.68770  0.63180  Biso   1.000  H
  H165     1.0000 0.92160  0.81230  0.13180  Biso   1.000  H
  H166     1.0000 0.42160  0.31230  0.13180  Biso   1.000  H
  H167     1.0000 0.07840  0.81230  0.36820  Biso   1.000  H
  H168     1.0000 0.57840  0.31230  0.36820  Biso   1.000  H
  C185     1.0000 0.12500  0.02270  0.86360  Biso   1.000  C
  C186     1.0000 0.62500  0.52270  0.86360  Biso   1.000  C
  C187     1.0000 0.87500  0.02270  0.63640  Biso   1.000  C
  C188     1.0000 0.37500  0.52270  0.63640  Biso   1.000  C
  C189     1.0000 0.87500  0.97730  0.13640  Biso   1.000  C
  C190     1.0000 0.37500  0.47730  0.13640  Biso   1.000  C
  C191     1.0000 0.12500  0.97730  0.36360  Biso   1.000  C
  C192     1.0000 0.62500  0.47730  0.36360  Biso   1.000  C
  H169     1.0000 0.15980  0.05810  0.87610  Biso   1.000  H
  H170     1.0000 0.65980  0.55810  0.87610  Biso   1.000  H
  H171     1.0000 0.84020  0.05810  0.62390  Biso   1.000  H
  H172     1.0000 0.34020  0.55810  0.62390  Biso   1.000  H
  H173     1.0000 0.84020  0.94190  0.12390  Biso   1.000  H
  H174     1.0000 0.34020  0.44190  0.12390  Biso   1.000  H
  H175     1.0000 0.15980  0.94190  0.37610  Biso   1.000  H
  H176     1.0000 0.65980  0.44190  0.37610  Biso   1.000  H
  H177     1.0000 0.09640  0.05520  0.82100  Biso   1.000  H
  H178     1.0000 0.59640  0.55520  0.82100  Biso   1.000  H
  H179     1.0000 0.90360  0.05520  0.67900  Biso   1.000  H
  H180     1.0000 0.40360  0.55520  0.67900  Biso   1.000  H
  H181     1.0000 0.90360  0.94480  0.17900  Biso   1.000  H
  H182     1.0000 0.40360  0.44480  0.17900  Biso   1.000  H
  H183     1.0000 0.09640  0.94480  0.32100  Biso   1.000  H
  H184     1.0000 0.59640  0.44480  0.32100  Biso   1.000  H
  C193     1.0000 0.12490  0.87890  0.86940  Biso   1.000  C
  C194     1.0000 0.62490  0.37890  0.86940  Biso   1.000  C
  C195     1.0000 0.87510  0.87890  0.63060  Biso   1.000  C
  C196     1.0000 0.37510  0.37890  0.63060  Biso   1.000  C
  C197     1.0000 0.87510  0.12110  0.13060  Biso   1.000  C
  C198     1.0000 0.37510  0.62110  0.13060  Biso   1.000  C
  C199     1.0000 0.12490  0.12110  0.36940  Biso   1.000  C
  C200     1.0000 0.62490  0.62110  0.36940  Biso   1.000  C
  H185     1.0000 0.13230  0.83580  0.84170  Biso   1.000  H
  H186     1.0000 0.63230  0.33580  0.84170  Biso   1.000  H
  H187     1.0000 0.86770  0.83580  0.65830  Biso   1.000  H
  H188     1.0000 0.36770  0.33580  0.65830  Biso   1.000  H
  H189     1.0000 0.86770  0.16420  0.15830  Biso   1.000  H
  H190     1.0000 0.36770  0.66420  0.15830  Biso   1.000  H
  H191     1.0000 0.13230  0.16420  0.34170  Biso   1.000  H
  H192     1.0000 0.63230  0.66420  0.34170  Biso   1.000  H
  H193     1.0000 0.09010  0.84910  0.85750  Biso   1.000  H
  H194     1.0000 0.59010  0.34910  0.85750  Biso   1.000  H
  H195     1.0000 0.90990  0.84910  0.64250  Biso   1.000  H
  H196     1.0000 0.40990  0.34910  0.64250  Biso   1.000  H
  H197     1.0000 0.90990  0.15090  0.14250  Biso   1.000  H
  H198     1.0000 0.40990  0.65090  0.14250  Biso   1.000  H
  H199     1.0000 0.09010  0.15090  0.35750  Biso   1.000  H
  H200     1.0000 0.59010  0.65090  0.35750  Biso   1.000  H
  H201     1.0000 0.15230  0.85240  0.91280  Biso   1.000  H
  H202     1.0000 0.65230  0.35240  0.91280  Biso   1.000  H
  H203     1.0000 0.84770  0.85240  0.58720  Biso   1.000  H
  H204     1.0000 0.34770  0.35240  0.58720  Biso   1.000  H
  H205     1.0000 0.84770  0.14760  0.08720  Biso   1.000  H
  H206     1.0000 0.34770  0.64760  0.08720  Biso   1.000  H
  H207     1.0000 0.15230  0.14760  0.41280  Biso   1.000  H
  H208     1.0000 0.65230  0.64760  0.41280  Biso   1.000  H
