data_image0
_cell_length_a       30.613
_cell_length_b       9.5703
_cell_length_c       25.945
_cell_angle_alpha    90
_cell_angle_beta     125.676
_cell_angle_gamma    90

_symmetry_space_group_name_H-M    "P 1"
_symmetry_int_tables_number       1

loop_
  _symmetry_equiv_pos_as_xyz
  'x, y, z'

loop_
  _atom_site_label
  _atom_site_occupancy
  _atom_site_fract_x
  _atom_site_fract_y
  _atom_site_fract_z
  _atom_site_thermal_displace_type
  _atom_site_B_iso_or_equiv
  _atom_site_type_symbol
  Cu1      1.0000 0.00000  0.00000  0.00000  Biso   1.000  Cu
  Cu2      1.0000 0.50000  0.50000  0.00000  Biso   1.000  Cu
  Cu3      1.0000 0.00000  0.00000  0.50000  Biso   1.000  Cu
  Cu4      1.0000 0.50000  0.50000  0.50000  Biso   1.000  Cu
  O1       1.0000 0.99206  0.90120  0.92623  Biso   1.000  O
  O2       1.0000 0.49206  0.40120  0.92623  Biso   1.000  O
  O3       1.0000 0.00794  0.90120  0.57377  Biso   1.000  O
  O4       1.0000 0.50794  0.40120  0.57377  Biso   1.000  O
  O5       1.0000 0.00794  0.09880  0.07377  Biso   1.000  O
  O6       1.0000 0.50794  0.59880  0.07377  Biso   1.000  O
  O7       1.0000 0.99206  0.09880  0.42623  Biso   1.000  O
  O8       1.0000 0.49206  0.59880  0.42623  Biso   1.000  O
  C1       1.0000 0.98440  0.72300  0.86140  Biso   1.000  C
  C2       1.0000 0.48440  0.22300  0.86140  Biso   1.000  C
  C3       1.0000 0.01560  0.72300  0.63860  Biso   1.000  C
  C4       1.0000 0.51560  0.22300  0.63860  Biso   1.000  C
  C5       1.0000 0.01560  0.27700  0.13860  Biso   1.000  C
  C6       1.0000 0.51560  0.77700  0.13860  Biso   1.000  C
  C7       1.0000 0.98440  0.27700  0.36140  Biso   1.000  C
  C8       1.0000 0.48440  0.77700  0.36140  Biso   1.000  C
  F1       1.0000 0.96060  0.59010  0.83540  Biso   1.000  F
  F2       1.0000 0.46060  0.09010  0.83540  Biso   1.000  F
  F3       1.0000 0.03940  0.59010  0.66460  Biso   1.000  F
  F4       1.0000 0.53940  0.09010  0.66460  Biso   1.000  F
  F5       1.0000 0.03940  0.40990  0.16460  Biso   1.000  F
  F6       1.0000 0.53940  0.90990  0.16460  Biso   1.000  F
  F7       1.0000 0.96060  0.40990  0.33540  Biso   1.000  F
  F8       1.0000 0.46060  0.90990  0.33540  Biso   1.000  F
  F9       1.0000 0.03180  0.69100  0.88790  Biso   1.000  F
  F10      1.0000 0.53180  0.19100  0.88790  Biso   1.000  F
  F11      1.0000 0.96820  0.69100  0.61210  Biso   1.000  F
  F12      1.0000 0.46820  0.19100  0.61210  Biso   1.000  F
  F13      1.0000 0.96820  0.30900  0.11210  Biso   1.000  F
  F14      1.0000 0.46820  0.80900  0.11210  Biso   1.000  F
  F15      1.0000 0.03180  0.30900  0.38790  Biso   1.000  F
  F16      1.0000 0.53180  0.80900  0.38790  Biso   1.000  F
  F17      1.0000 0.97250  0.81300  0.81720  Biso   1.000  F
  F18      1.0000 0.47250  0.31300  0.81720  Biso   1.000  F
  F19      1.0000 0.02750  0.81300  0.68280  Biso   1.000  F
  F20      1.0000 0.52750  0.31300  0.68280  Biso   1.000  F
  F21      1.0000 0.02750  0.18700  0.18280  Biso   1.000  F
  F22      1.0000 0.52750  0.68700  0.18280  Biso   1.000  F
  F23      1.0000 0.97250  0.18700  0.31720  Biso   1.000  F
  F24      1.0000 0.47250  0.68700  0.31720  Biso   1.000  F
  C9       1.0000 0.97657  0.77870  0.91080  Biso   1.000  C
  C10      1.0000 0.47657  0.27870  0.91080  Biso   1.000  C
  C11      1.0000 0.02343  0.77870  0.58920  Biso   1.000  C
  C12      1.0000 0.52343  0.27870  0.58920  Biso   1.000  C
  C13      1.0000 0.02343  0.22130  0.08920  Biso   1.000  C
  C14      1.0000 0.52343  0.72130  0.08920  Biso   1.000  C
  C15      1.0000 0.97657  0.22130  0.41080  Biso   1.000  C
  C16      1.0000 0.47657  0.72130  0.41080  Biso   1.000  C
  C17      1.0000 0.95510  0.69240  0.93260  Biso   1.000  C
  C18      1.0000 0.45510  0.19240  0.93260  Biso   1.000  C
  C19      1.0000 0.04490  0.69240  0.56740  Biso   1.000  C
  C20      1.0000 0.54490  0.19240  0.56740  Biso   1.000  C
  C21      1.0000 0.04490  0.30760  0.06740  Biso   1.000  C
  C22      1.0000 0.54490  0.80760  0.06740  Biso   1.000  C
  C23      1.0000 0.95510  0.30760  0.43260  Biso   1.000  C
  C24      1.0000 0.45510  0.80760  0.43260  Biso   1.000  C
  H1       1.0000 0.94750  0.61300  0.91800  Biso   1.000  H
  H2       1.0000 0.44750  0.11300  0.91800  Biso   1.000  H
  H3       1.0000 0.05250  0.61300  0.58200  Biso   1.000  H
  H4       1.0000 0.55250  0.11300  0.58200  Biso   1.000  H
  H5       1.0000 0.05250  0.38700  0.08200  Biso   1.000  H
  H6       1.0000 0.55250  0.88700  0.08200  Biso   1.000  H
  H7       1.0000 0.94750  0.38700  0.41800  Biso   1.000  H
  H8       1.0000 0.44750  0.88700  0.41800  Biso   1.000  H
  C25      1.0000 0.94903  0.73350  0.97870  Biso   1.000  C
  C26      1.0000 0.44903  0.23350  0.97870  Biso   1.000  C
  C27      1.0000 0.05097  0.73350  0.52130  Biso   1.000  C
  C28      1.0000 0.55097  0.23350  0.52130  Biso   1.000  C
  C29      1.0000 0.05097  0.26650  0.02130  Biso   1.000  C
  C30      1.0000 0.55097  0.76650  0.02130  Biso   1.000  C
  C31      1.0000 0.94903  0.26650  0.47870  Biso   1.000  C
  C32      1.0000 0.44903  0.76650  0.47870  Biso   1.000  C
  C33      1.0000 0.92400  0.62980  0.00000  Biso   1.000  C
  C34      1.0000 0.42400  0.12980  0.00000  Biso   1.000  C
  C35      1.0000 0.07600  0.62980  0.50000  Biso   1.000  C
  C36      1.0000 0.57600  0.12980  0.50000  Biso   1.000  C
  C37      1.0000 0.07600  0.37020  0.00000  Biso   1.000  C
  C38      1.0000 0.57600  0.87020  0.00000  Biso   1.000  C
  C39      1.0000 0.92400  0.37020  0.50000  Biso   1.000  C
  C40      1.0000 0.42400  0.87020  0.50000  Biso   1.000  C
  F25      1.0000 0.93430  0.50500  0.99730  Biso   1.000  F
  F26      1.0000 0.43430  0.00500  0.99730  Biso   1.000  F
  F27      1.0000 0.06570  0.50500  0.50270  Biso   1.000  F
  F28      1.0000 0.56570  0.00500  0.50270  Biso   1.000  F
  F29      1.0000 0.06570  0.49500  0.00270  Biso   1.000  F
  F30      1.0000 0.56570  0.99500  0.00270  Biso   1.000  F
  F31      1.0000 0.93430  0.49500  0.49730  Biso   1.000  F
  F32      1.0000 0.43430  0.99500  0.49730  Biso   1.000  F
  F33      1.0000 0.86690  0.63140  0.94610  Biso   1.000  F
  F34      1.0000 0.36690  0.13140  0.94610  Biso   1.000  F
  F35      1.0000 0.13310  0.63140  0.55390  Biso   1.000  F
  F36      1.0000 0.63310  0.13140  0.55390  Biso   1.000  F
  F37      1.0000 0.13310  0.36860  0.05390  Biso   1.000  F
  F38      1.0000 0.63310  0.86860  0.05390  Biso   1.000  F
  F39      1.0000 0.86690  0.36860  0.44610  Biso   1.000  F
  F40      1.0000 0.36690  0.86860  0.44610  Biso   1.000  F
  F41      1.0000 0.92550  0.66090  0.04410  Biso   1.000  F
  F42      1.0000 0.42550  0.16090  0.04410  Biso   1.000  F
  F43      1.0000 0.07450  0.66090  0.45590  Biso   1.000  F
  F44      1.0000 0.57450  0.16090  0.45590  Biso   1.000  F
  F45      1.0000 0.07450  0.33910  0.95590  Biso   1.000  F
  F46      1.0000 0.57450  0.83910  0.95590  Biso   1.000  F
  F47      1.0000 0.92550  0.33910  0.54410  Biso   1.000  F
  F48      1.0000 0.42550  0.83910  0.54410  Biso   1.000  F
  O9       1.0000 0.96121  0.84710  0.00710  Biso   1.000  O
  O10      1.0000 0.46121  0.34710  0.00710  Biso   1.000  O
  O11      1.0000 0.03879  0.84710  0.49290  Biso   1.000  O
  O12      1.0000 0.53879  0.34710  0.49290  Biso   1.000  O
  O13      1.0000 0.03879  0.15290  0.99290  Biso   1.000  O
  O14      1.0000 0.53879  0.65290  0.99290  Biso   1.000  O
  O15      1.0000 0.96121  0.15290  0.50710  Biso   1.000  O
  O16      1.0000 0.46121  0.65290  0.50710  Biso   1.000  O
  Cu5      1.0000 0.25000  0.25000  0.00000  Biso   1.000  Cu
  Cu6      1.0000 0.75000  0.75000  0.00000  Biso   1.000  Cu
  Cu7      1.0000 0.75000  0.25000  0.50000  Biso   1.000  Cu
  Cu8      1.0000 0.25000  0.75000  0.50000  Biso   1.000  Cu
  O17      1.0000 0.25692  0.09170  0.95739  Biso   1.000  O
  O18      1.0000 0.75692  0.59170  0.95739  Biso   1.000  O
  O19      1.0000 0.74308  0.09170  0.54261  Biso   1.000  O
  O20      1.0000 0.24308  0.59170  0.54261  Biso   1.000  O
  O21      1.0000 0.74308  0.90830  0.04261  Biso   1.000  O
  O22      1.0000 0.24308  0.40830  0.04261  Biso   1.000  O
  O23      1.0000 0.25692  0.90830  0.45739  Biso   1.000  O
  O24      1.0000 0.75692  0.40830  0.45739  Biso   1.000  O
  C41      1.0000 0.27980  0.86990  0.94190  Biso   1.000  C
  C42      1.0000 0.77980  0.36990  0.94190  Biso   1.000  C
  C43      1.0000 0.72020  0.86990  0.55810  Biso   1.000  C
  C44      1.0000 0.22020  0.36990  0.55810  Biso   1.000  C
  C45      1.0000 0.72020  0.13010  0.05810  Biso   1.000  C
  C46      1.0000 0.22020  0.63010  0.05810  Biso   1.000  C
  C47      1.0000 0.27980  0.13010  0.44190  Biso   1.000  C
  C48      1.0000 0.77980  0.63010  0.44190  Biso   1.000  C
  F49      1.0000 0.25750  0.90340  0.88780  Biso   1.000  F
  F50      1.0000 0.75750  0.40340  0.88780  Biso   1.000  F
  F51      1.0000 0.74250  0.90340  0.61220  Biso   1.000  F
  F52      1.0000 0.24250  0.40340  0.61220  Biso   1.000  F
  F53      1.0000 0.74250  0.09660  0.11220  Biso   1.000  F
  F54      1.0000 0.24250  0.59660  0.11220  Biso   1.000  F
  F55      1.0000 0.25750  0.09660  0.38780  Biso   1.000  F
  F56      1.0000 0.75750  0.59660  0.38780  Biso   1.000  F
  F57      1.0000 0.26950  0.75390  0.95520  Biso   1.000  F
  F58      1.0000 0.76950  0.25390  0.95520  Biso   1.000  F
  F59      1.0000 0.73050  0.75390  0.54480  Biso   1.000  F
  F60      1.0000 0.23050  0.25390  0.54480  Biso   1.000  F
  F61      1.0000 0.73050  0.24610  0.04480  Biso   1.000  F
  F62      1.0000 0.23050  0.74610  0.04480  Biso   1.000  F
  F63      1.0000 0.26950  0.24610  0.45520  Biso   1.000  F
  F64      1.0000 0.76950  0.74610  0.45520  Biso   1.000  F
  F65      1.0000 0.33560  0.83450  0.96430  Biso   1.000  F
  F66      1.0000 0.83560  0.33450  0.96430  Biso   1.000  F
  F67      1.0000 0.66440  0.83450  0.53570  Biso   1.000  F
  F68      1.0000 0.16440  0.33450  0.53570  Biso   1.000  F
  F69      1.0000 0.66440  0.16550  0.03570  Biso   1.000  F
  F70      1.0000 0.16440  0.66550  0.03570  Biso   1.000  F
  F71      1.0000 0.33560  0.16550  0.46430  Biso   1.000  F
  F72      1.0000 0.83560  0.66550  0.46430  Biso   1.000  F
  C49      1.0000 0.28619  0.98890  0.98580  Biso   1.000  C
  C50      1.0000 0.78619  0.48890  0.98580  Biso   1.000  C
  C51      1.0000 0.71381  0.98890  0.51420  Biso   1.000  C
  C52      1.0000 0.21381  0.48890  0.51420  Biso   1.000  C
  C53      1.0000 0.71381  0.01110  0.01420  Biso   1.000  C
  C54      1.0000 0.21381  0.51110  0.01420  Biso   1.000  C
  C55      1.0000 0.28619  0.01110  0.48580  Biso   1.000  C
  C56      1.0000 0.78619  0.51110  0.48580  Biso   1.000  C
  C57      1.0000 0.32250  0.96930  0.05020  Biso   1.000  C
  C58      1.0000 0.82250  0.46930  0.05020  Biso   1.000  C
  C59      1.0000 0.67750  0.96930  0.44980  Biso   1.000  C
  C60      1.0000 0.17750  0.46930  0.44980  Biso   1.000  C
  C61      1.0000 0.67750  0.03070  0.94980  Biso   1.000  C
  C62      1.0000 0.17750  0.53070  0.94980  Biso   1.000  C
  C63      1.0000 0.32250  0.03070  0.55020  Biso   1.000  C
  C64      1.0000 0.82250  0.53070  0.55020  Biso   1.000  C
  H9       1.0000 0.33900  0.88700  0.06400  Biso   1.000  H
  H10      1.0000 0.83900  0.38700  0.06400  Biso   1.000  H
  H11      1.0000 0.66100  0.88700  0.43600  Biso   1.000  H
  H12      1.0000 0.16100  0.38700  0.43600  Biso   1.000  H
  H13      1.0000 0.66100  0.11300  0.93600  Biso   1.000  H
  H14      1.0000 0.16100  0.61300  0.93600  Biso   1.000  H
  H15      1.0000 0.33900  0.11300  0.56400  Biso   1.000  H
  H16      1.0000 0.83900  0.61300  0.56400  Biso   1.000  H
  C65      1.0000 0.33100  0.06560  0.09407  Biso   1.000  C
  C66      1.0000 0.83100  0.56560  0.09407  Biso   1.000  C
  C67      1.0000 0.66900  0.06560  0.40593  Biso   1.000  C
  C68      1.0000 0.16900  0.56560  0.40593  Biso   1.000  C
  C69      1.0000 0.66900  0.93440  0.90593  Biso   1.000  C
  C70      1.0000 0.16900  0.43440  0.90593  Biso   1.000  C
  C71      1.0000 0.33100  0.93440  0.59407  Biso   1.000  C
  C72      1.0000 0.83100  0.43440  0.59407  Biso   1.000  C
  C73      1.0000 0.37250  0.03270  0.16470  Biso   1.000  C
  C74      1.0000 0.87250  0.53270  0.16470  Biso   1.000  C
  C75      1.0000 0.62750  0.03270  0.33530  Biso   1.000  C
  C76      1.0000 0.12750  0.53270  0.33530  Biso   1.000  C
  C77      1.0000 0.62750  0.96730  0.83530  Biso   1.000  C
  C78      1.0000 0.12750  0.46730  0.83530  Biso   1.000  C
  C79      1.0000 0.37250  0.96730  0.66470  Biso   1.000  C
  C80      1.0000 0.87250  0.46730  0.66470  Biso   1.000  C
  F73      1.0000 0.34820  0.99300  0.18930  Biso   1.000  F
  F74      1.0000 0.84820  0.49300  0.18930  Biso   1.000  F
  F75      1.0000 0.65180  0.99300  0.31070  Biso   1.000  F
  F76      1.0000 0.15180  0.49300  0.31070  Biso   1.000  F
  F77      1.0000 0.65180  0.00700  0.81070  Biso   1.000  F
  F78      1.0000 0.15180  0.50700  0.81070  Biso   1.000  F
  F79      1.0000 0.34820  0.00700  0.68930  Biso   1.000  F
  F80      1.0000 0.84820  0.50700  0.68930  Biso   1.000  F
  F81      1.0000 0.40750  0.94600  0.17740  Biso   1.000  F
  F82      1.0000 0.90750  0.44600  0.17740  Biso   1.000  F
  F83      1.0000 0.59250  0.94600  0.32260  Biso   1.000  F
  F84      1.0000 0.09250  0.44600  0.32260  Biso   1.000  F
  F85      1.0000 0.59250  0.05400  0.82260  Biso   1.000  F
  F86      1.0000 0.09250  0.55400  0.82260  Biso   1.000  F
  F87      1.0000 0.40750  0.05400  0.67740  Biso   1.000  F
  F88      1.0000 0.90750  0.55400  0.67740  Biso   1.000  F
  F89      1.0000 0.40130  0.14600  0.19730  Biso   1.000  F
  F90      1.0000 0.90130  0.64600  0.19730  Biso   1.000  F
  F91      1.0000 0.59870  0.14600  0.30270  Biso   1.000  F
  F92      1.0000 0.09870  0.64600  0.30270  Biso   1.000  F
  F93      1.0000 0.59870  0.85400  0.80270  Biso   1.000  F
  F94      1.0000 0.09870  0.35400  0.80270  Biso   1.000  F
  F95      1.0000 0.40130  0.85400  0.69730  Biso   1.000  F
  F96      1.0000 0.90130  0.35400  0.69730  Biso   1.000  F
  O25      1.0000 0.30872  0.18180  0.08398  Biso   1.000  O
  O26      1.0000 0.80872  0.68180  0.08398  Biso   1.000  O
  O27      1.0000 0.69128  0.18180  0.41602  Biso   1.000  O
  O28      1.0000 0.19128  0.68180  0.41602  Biso   1.000  O
  O29      1.0000 0.69128  0.81820  0.91602  Biso   1.000  O
  O30      1.0000 0.19128  0.31820  0.91602  Biso   1.000  O
  O31      1.0000 0.30872  0.81820  0.58398  Biso   1.000  O
  O32      1.0000 0.80872  0.31820  0.58398  Biso   1.000  O
  O33      1.0000 0.24674  0.00720  0.20404  Biso   1.000  O
  O34      1.0000 0.74674  0.50720  0.20404  Biso   1.000  O
  O35      1.0000 0.75326  0.00720  0.29596  Biso   1.000  O
  O36      1.0000 0.25326  0.50720  0.29596  Biso   1.000  O
  O37      1.0000 0.75326  0.99280  0.79596  Biso   1.000  O
  O38      1.0000 0.25326  0.49280  0.79596  Biso   1.000  O
  O39      1.0000 0.24674  0.99280  0.70404  Biso   1.000  O
  O40      1.0000 0.74674  0.49280  0.70404  Biso   1.000  O
  N1       1.0000 0.20004  0.95700  0.17948  Biso   1.000  N
  N2       1.0000 0.70004  0.45700  0.17948  Biso   1.000  N
  N3       1.0000 0.79996  0.95700  0.32052  Biso   1.000  N
  N4       1.0000 0.29996  0.45700  0.32052  Biso   1.000  N
  N5       1.0000 0.79996  0.04300  0.82052  Biso   1.000  N
  N6       1.0000 0.29996  0.54300  0.82052  Biso   1.000  N
  N7       1.0000 0.20004  0.04300  0.67948  Biso   1.000  N
  N8       1.0000 0.70004  0.54300  0.67948  Biso   1.000  N
  C81      1.0000 0.18003  0.92040  0.21833  Biso   1.000  C
  C82      1.0000 0.68003  0.42040  0.21833  Biso   1.000  C
  C83      1.0000 0.81997  0.92040  0.28167  Biso   1.000  C
  C84      1.0000 0.31997  0.42040  0.28167  Biso   1.000  C
  C85      1.0000 0.81997  0.07960  0.78167  Biso   1.000  C
  C86      1.0000 0.31997  0.57960  0.78167  Biso   1.000  C
  C87      1.0000 0.18003  0.07960  0.71833  Biso   1.000  C
  C88      1.0000 0.68003  0.57960  0.71833  Biso   1.000  C
  C89      1.0000 0.16440  0.06010  0.23240  Biso   1.000  C
  C90      1.0000 0.66440  0.56010  0.23240  Biso   1.000  C
  C91      1.0000 0.83560  0.06010  0.26760  Biso   1.000  C
  C92      1.0000 0.33560  0.56010  0.26760  Biso   1.000  C
  C93      1.0000 0.83560  0.93990  0.76760  Biso   1.000  C
  C94      1.0000 0.33560  0.43990  0.76760  Biso   1.000  C
  C95      1.0000 0.16440  0.93990  0.73240  Biso   1.000  C
  C96      1.0000 0.66440  0.43990  0.73240  Biso   1.000  C
  H17      1.0000 0.18800  0.12200  0.26000  Biso   1.000  H
  H18      1.0000 0.68800  0.62200  0.26000  Biso   1.000  H
  H19      1.0000 0.81200  0.12200  0.24000  Biso   1.000  H
  H20      1.0000 0.31200  0.62200  0.24000  Biso   1.000  H
  H21      1.0000 0.81200  0.87800  0.74000  Biso   1.000  H
  H22      1.0000 0.31200  0.37800  0.74000  Biso   1.000  H
  H23      1.0000 0.18800  0.87800  0.76000  Biso   1.000  H
  H24      1.0000 0.68800  0.37800  0.76000  Biso   1.000  H
  H25      1.0000 0.14300  0.03900  0.25500  Biso   1.000  H
  H26      1.0000 0.64300  0.53900  0.25500  Biso   1.000  H
  H27      1.0000 0.85700  0.03900  0.24500  Biso   1.000  H
  H28      1.0000 0.35700  0.53900  0.24500  Biso   1.000  H
  H29      1.0000 0.85700  0.96100  0.74500  Biso   1.000  H
  H30      1.0000 0.35700  0.46100  0.74500  Biso   1.000  H
  H31      1.0000 0.14300  0.96100  0.75500  Biso   1.000  H
  H32      1.0000 0.64300  0.46100  0.75500  Biso   1.000  H
  H33      1.0000 0.12900  0.10200  0.18700  Biso   1.000  H
  H34      1.0000 0.62900  0.60200  0.18700  Biso   1.000  H
  H35      1.0000 0.87100  0.10200  0.31300  Biso   1.000  H
  H36      1.0000 0.37100  0.60200  0.31300  Biso   1.000  H
  H37      1.0000 0.87100  0.89800  0.81300  Biso   1.000  H
  H38      1.0000 0.37100  0.39800  0.81300  Biso   1.000  H
  H39      1.0000 0.12900  0.89800  0.68700  Biso   1.000  H
  H40      1.0000 0.62900  0.39800  0.68700  Biso   1.000  H
  C97      1.0000 0.22400  0.84900  0.27990  Biso   1.000  C
  C98      1.0000 0.72400  0.34900  0.27990  Biso   1.000  C
  C99      1.0000 0.77600  0.84900  0.22010  Biso   1.000  C
  C100     1.0000 0.27600  0.34900  0.22010  Biso   1.000  C
  C101     1.0000 0.77600  0.15100  0.72010  Biso   1.000  C
  C102     1.0000 0.27600  0.65100  0.72010  Biso   1.000  C
  C103     1.0000 0.22400  0.15100  0.77990  Biso   1.000  C
  C104     1.0000 0.72400  0.65100  0.77990  Biso   1.000  C
  H41      1.0000 0.25100  0.91100  0.30800  Biso   1.000  H
  H42      1.0000 0.75100  0.41100  0.30800  Biso   1.000  H
  H43      1.0000 0.74900  0.91100  0.19200  Biso   1.000  H
  H44      1.0000 0.24900  0.41100  0.19200  Biso   1.000  H
  H45      1.0000 0.74900  0.08900  0.69200  Biso   1.000  H
  H46      1.0000 0.24900  0.58900  0.69200  Biso   1.000  H
  H47      1.0000 0.25100  0.08900  0.80800  Biso   1.000  H
  H48      1.0000 0.75100  0.58900  0.80800  Biso   1.000  H
  H49      1.0000 0.24000  0.78700  0.27300  Biso   1.000  H
  H50      1.0000 0.74000  0.28700  0.27300  Biso   1.000  H
  H51      1.0000 0.76000  0.78700  0.22700  Biso   1.000  H
  H52      1.0000 0.26000  0.28700  0.22700  Biso   1.000  H
  H53      1.0000 0.76000  0.21300  0.72700  Biso   1.000  H
  H54      1.0000 0.26000  0.71300  0.72700  Biso   1.000  H
  H55      1.0000 0.24000  0.21300  0.77300  Biso   1.000  H
  H56      1.0000 0.74000  0.71300  0.77300  Biso   1.000  H
  H57      1.0000 0.20500  0.82900  0.30400  Biso   1.000  H
  H58      1.0000 0.70500  0.32900  0.30400  Biso   1.000  H
  H59      1.0000 0.79500  0.82900  0.19600  Biso   1.000  H
  H60      1.0000 0.29500  0.32900  0.19600  Biso   1.000  H
  H61      1.0000 0.79500  0.17100  0.69600  Biso   1.000  H
  H62      1.0000 0.29500  0.67100  0.69600  Biso   1.000  H
  H63      1.0000 0.20500  0.17100  0.80400  Biso   1.000  H
  H64      1.0000 0.70500  0.67100  0.80400  Biso   1.000  H
  C105     1.0000 0.13155  0.82830  0.17096  Biso   1.000  C
  C106     1.0000 0.63155  0.32830  0.17096  Biso   1.000  C
  C107     1.0000 0.86845  0.82830  0.32904  Biso   1.000  C
  C108     1.0000 0.36845  0.32830  0.32904  Biso   1.000  C
  C109     1.0000 0.86845  0.17170  0.82904  Biso   1.000  C
  C110     1.0000 0.36845  0.67170  0.82904  Biso   1.000  C
  C111     1.0000 0.13155  0.17170  0.67096  Biso   1.000  C
  C112     1.0000 0.63155  0.67170  0.67096  Biso   1.000  C
  C113     1.0000 0.08350  0.83760  0.17340  Biso   1.000  C
  C114     1.0000 0.58350  0.33760  0.17340  Biso   1.000  C
  C115     1.0000 0.91650  0.83760  0.32660  Biso   1.000  C
  C116     1.0000 0.41650  0.33760  0.32660  Biso   1.000  C
  C117     1.0000 0.91650  0.16240  0.82660  Biso   1.000  C
  C118     1.0000 0.41650  0.66240  0.82660  Biso   1.000  C
  C119     1.0000 0.08350  0.16240  0.67340  Biso   1.000  C
  C120     1.0000 0.58350  0.66240  0.67340  Biso   1.000  C
  H65      1.0000 0.05100  0.76300  0.14300  Biso   1.000  H
  H66      1.0000 0.55100  0.26300  0.14300  Biso   1.000  H
  H67      1.0000 0.94900  0.76300  0.35700  Biso   1.000  H
  H68      1.0000 0.44900  0.26300  0.35700  Biso   1.000  H
  H69      1.0000 0.94900  0.23700  0.85700  Biso   1.000  H
  H70      1.0000 0.44900  0.73700  0.85700  Biso   1.000  H
  H71      1.0000 0.05100  0.23700  0.64300  Biso   1.000  H
  H72      1.0000 0.55100  0.73700  0.64300  Biso   1.000  H
  H73      1.0000 0.07160  0.94400  0.16700  Biso   1.000  H
  H74      1.0000 0.57160  0.44400  0.16700  Biso   1.000  H
  H75      1.0000 0.92840  0.94400  0.33300  Biso   1.000  H
  H76      1.0000 0.42840  0.44400  0.33300  Biso   1.000  H
  H77      1.0000 0.92840  0.05600  0.83300  Biso   1.000  H
  H78      1.0000 0.42840  0.55600  0.83300  Biso   1.000  H
  H79      1.0000 0.07160  0.05600  0.66700  Biso   1.000  H
  H80      1.0000 0.57160  0.55600  0.66700  Biso   1.000  H
  H81      1.0000 0.09630  0.81200  0.21700  Biso   1.000  H
  H82      1.0000 0.59630  0.31200  0.21700  Biso   1.000  H
  H83      1.0000 0.90370  0.81200  0.28300  Biso   1.000  H
  H84      1.0000 0.40370  0.31200  0.28300  Biso   1.000  H
  H85      1.0000 0.90370  0.18800  0.78300  Biso   1.000  H
  H86      1.0000 0.40370  0.68800  0.78300  Biso   1.000  H
  H87      1.0000 0.09630  0.18800  0.71700  Biso   1.000  H
  H88      1.0000 0.59630  0.68800  0.71700  Biso   1.000  H
  C121     1.0000 0.14670  0.67600  0.17100  Biso   1.000  C
  C122     1.0000 0.64670  0.17600  0.17100  Biso   1.000  C
  C123     1.0000 0.85330  0.67600  0.32900  Biso   1.000  C
  C124     1.0000 0.35330  0.17600  0.32900  Biso   1.000  C
  C125     1.0000 0.85330  0.32400  0.82900  Biso   1.000  C
  C126     1.0000 0.35330  0.82400  0.82900  Biso   1.000  C
  C127     1.0000 0.14670  0.32400  0.67100  Biso   1.000  C
  C128     1.0000 0.64670  0.82400  0.67100  Biso   1.000  C
  H89      1.0000 0.11700  0.63100  0.14100  Biso   1.000  H
  H90      1.0000 0.61700  0.13100  0.14100  Biso   1.000  H
  H91      1.0000 0.88300  0.63100  0.35900  Biso   1.000  H
  H92      1.0000 0.38300  0.13100  0.35900  Biso   1.000  H
  H93      1.0000 0.88300  0.36900  0.85900  Biso   1.000  H
  H94      1.0000 0.38300  0.86900  0.85900  Biso   1.000  H
  H95      1.0000 0.11700  0.36900  0.64100  Biso   1.000  H
  H96      1.0000 0.61700  0.86900  0.64100  Biso   1.000  H
  H97      1.0000 0.15000  0.63000  0.20200  Biso   1.000  H
  H98      1.0000 0.65000  0.13000  0.20200  Biso   1.000  H
  H99      1.0000 0.85000  0.63000  0.29800  Biso   1.000  H
  H100     1.0000 0.35000  0.13000  0.29800  Biso   1.000  H
  H101     1.0000 0.85000  0.37000  0.79800  Biso   1.000  H
  H102     1.0000 0.35000  0.87000  0.79800  Biso   1.000  H
  H103     1.0000 0.15000  0.37000  0.70200  Biso   1.000  H
  H104     1.0000 0.65000  0.87000  0.70200  Biso   1.000  H
  H105     1.0000 0.18300  0.69200  0.17000  Biso   1.000  H
  H106     1.0000 0.68300  0.19200  0.17000  Biso   1.000  H
  H107     1.0000 0.81700  0.69200  0.33000  Biso   1.000  H
  H108     1.0000 0.31700  0.19200  0.33000  Biso   1.000  H
  H109     1.0000 0.81700  0.30800  0.83000  Biso   1.000  H
  H110     1.0000 0.31700  0.80800  0.83000  Biso   1.000  H
  H111     1.0000 0.18300  0.30800  0.67000  Biso   1.000  H
  H112     1.0000 0.68300  0.80800  0.67000  Biso   1.000  H
  N9       1.0000 0.11833  0.88930  0.10995  Biso   1.000  N
  N10      1.0000 0.61833  0.38930  0.10995  Biso   1.000  N
  N11      1.0000 0.88167  0.88930  0.39005  Biso   1.000  N
  N12      1.0000 0.38167  0.38930  0.39005  Biso   1.000  N
  N13      1.0000 0.88167  0.11070  0.89005  Biso   1.000  N
  N14      1.0000 0.38167  0.61070  0.89005  Biso   1.000  N
  N15      1.0000 0.11833  0.11070  0.60995  Biso   1.000  N
  N16      1.0000 0.61833  0.61070  0.60995  Biso   1.000  N
  O41      1.0000 0.07306  0.86100  0.05582  Biso   1.000  O
  O42      1.0000 0.57306  0.36100  0.05582  Biso   1.000  O
  O43      1.0000 0.92694  0.86100  0.44418  Biso   1.000  O
  O44      1.0000 0.42694  0.36100  0.44418  Biso   1.000  O
  O45      1.0000 0.92694  0.13900  0.94418  Biso   1.000  O
  O46      1.0000 0.42694  0.63900  0.94418  Biso   1.000  O
  O47      1.0000 0.07306  0.13900  0.55582  Biso   1.000  O
  O48      1.0000 0.57306  0.63900  0.55582  Biso   1.000  O
  C129     1.0000 0.16046  0.94970  0.11684  Biso   1.000  C
  C130     1.0000 0.66046  0.44970  0.11684  Biso   1.000  C
  C131     1.0000 0.83954  0.94970  0.38316  Biso   1.000  C
  C132     1.0000 0.33954  0.44970  0.38316  Biso   1.000  C
  C133     1.0000 0.83954  0.05030  0.88316  Biso   1.000  C
  C134     1.0000 0.33954  0.55030  0.88316  Biso   1.000  C
  C135     1.0000 0.16046  0.05030  0.61684  Biso   1.000  C
  C136     1.0000 0.66046  0.55030  0.61684  Biso   1.000  C
  C137     1.0000 0.16303  0.00000  0.06690  Biso   1.000  C
  C138     1.0000 0.66303  0.50000  0.06690  Biso   1.000  C
  C139     1.0000 0.83697  0.00000  0.43310  Biso   1.000  C
  C140     1.0000 0.33697  0.50000  0.43310  Biso   1.000  C
  C141     1.0000 0.83697  0.00000  0.93310  Biso   1.000  C
  C142     1.0000 0.33697  0.50000  0.93310  Biso   1.000  C
  C143     1.0000 0.16303  0.00000  0.56690  Biso   1.000  C
  C144     1.0000 0.66303  0.50000  0.56690  Biso   1.000  C
  C145     1.0000 0.12583  0.97900  0.00320  Biso   1.000  C
  C146     1.0000 0.62583  0.47900  0.00320  Biso   1.000  C
  C147     1.0000 0.87417  0.97900  0.49680  Biso   1.000  C
  C148     1.0000 0.37417  0.47900  0.49680  Biso   1.000  C
  C149     1.0000 0.87417  0.02100  0.99680  Biso   1.000  C
  C150     1.0000 0.37417  0.52100  0.99680  Biso   1.000  C
  C151     1.0000 0.12583  0.02100  0.50320  Biso   1.000  C
  C152     1.0000 0.62583  0.52100  0.50320  Biso   1.000  C
  H113     1.0000 0.09350  0.93500  0.98050  Biso   1.000  H
  H114     1.0000 0.59350  0.43500  0.98050  Biso   1.000  H
  H115     1.0000 0.90650  0.93500  0.51950  Biso   1.000  H
  H116     1.0000 0.40650  0.43500  0.51950  Biso   1.000  H
  H117     1.0000 0.90650  0.06500  0.01950  Biso   1.000  H
  H118     1.0000 0.40650  0.56500  0.01950  Biso   1.000  H
  H119     1.0000 0.09350  0.06500  0.48050  Biso   1.000  H
  H120     1.0000 0.59350  0.56500  0.48050  Biso   1.000  H
  N17      1.0000 0.14371  0.04310  0.97343  Biso   1.000  N
  N18      1.0000 0.64371  0.54310  0.97343  Biso   1.000  N
  N19      1.0000 0.85629  0.04310  0.52657  Biso   1.000  N
  N20      1.0000 0.35629  0.54310  0.52657  Biso   1.000  N
  N21      1.0000 0.85629  0.95690  0.02657  Biso   1.000  N
  N22      1.0000 0.35629  0.45690  0.02657  Biso   1.000  N
  N23      1.0000 0.14371  0.95690  0.47343  Biso   1.000  N
  N24      1.0000 0.64371  0.45690  0.47343  Biso   1.000  N
  C153     1.0000 0.11790  0.04980  0.90600  Biso   1.000  C
  C154     1.0000 0.61790  0.54980  0.90600  Biso   1.000  C
  C155     1.0000 0.88210  0.04980  0.59400  Biso   1.000  C
  C156     1.0000 0.38210  0.54980  0.59400  Biso   1.000  C
  C157     1.0000 0.88210  0.95020  0.09400  Biso   1.000  C
  C158     1.0000 0.38210  0.45020  0.09400  Biso   1.000  C
  C159     1.0000 0.11790  0.95020  0.40600  Biso   1.000  C
  C160     1.0000 0.61790  0.45020  0.40600  Biso   1.000  C
  H121     1.0000 0.14090  0.10610  0.89990  Biso   1.000  H
  H122     1.0000 0.64090  0.60610  0.89990  Biso   1.000  H
  H123     1.0000 0.85910  0.10610  0.60010  Biso   1.000  H
  H124     1.0000 0.35910  0.60610  0.60010  Biso   1.000  H
  H125     1.0000 0.85910  0.89390  0.10010  Biso   1.000  H
  H126     1.0000 0.35910  0.39390  0.10010  Biso   1.000  H
  H127     1.0000 0.14090  0.89390  0.39990  Biso   1.000  H
  H128     1.0000 0.64090  0.39390  0.39990  Biso   1.000  H
  H129     1.0000 0.11850  0.95580  0.89240  Biso   1.000  H
  H130     1.0000 0.61850  0.45580  0.89240  Biso   1.000  H
  H131     1.0000 0.88150  0.95580  0.60760  Biso   1.000  H
  H132     1.0000 0.38150  0.45580  0.60760  Biso   1.000  H
  H133     1.0000 0.88150  0.04420  0.10760  Biso   1.000  H
  H134     1.0000 0.38150  0.54420  0.10760  Biso   1.000  H
  H135     1.0000 0.11850  0.04420  0.39240  Biso   1.000  H
  H136     1.0000 0.61850  0.54420  0.39240  Biso   1.000  H
  C161     1.0000 0.06810  0.09800  0.86580  Biso   1.000  C
  C162     1.0000 0.56810  0.59800  0.86580  Biso   1.000  C
  C163     1.0000 0.93190  0.09800  0.63420  Biso   1.000  C
  C164     1.0000 0.43190  0.59800  0.63420  Biso   1.000  C
  C165     1.0000 0.93190  0.90200  0.13420  Biso   1.000  C
  C166     1.0000 0.43190  0.40200  0.13420  Biso   1.000  C
  C167     1.0000 0.06810  0.90200  0.36580  Biso   1.000  C
  C168     1.0000 0.56810  0.40200  0.36580  Biso   1.000  C
  H137     1.0000 0.06730  0.19830  0.86930  Biso   1.000  H
  H138     1.0000 0.56730  0.69830  0.86930  Biso   1.000  H
  H139     1.0000 0.93270  0.19830  0.63070  Biso   1.000  H
  H140     1.0000 0.43270  0.69830  0.63070  Biso   1.000  H
  H141     1.0000 0.93270  0.80170  0.13070  Biso   1.000  H
  H142     1.0000 0.43270  0.30170  0.13070  Biso   1.000  H
  H143     1.0000 0.06730  0.80170  0.36930  Biso   1.000  H
  H144     1.0000 0.56730  0.30170  0.36930  Biso   1.000  H
  H145     1.0000 0.04430  0.05610  0.87480  Biso   1.000  H
  H146     1.0000 0.54430  0.55610  0.87480  Biso   1.000  H
  H147     1.0000 0.95570  0.05610  0.62520  Biso   1.000  H
  H148     1.0000 0.45570  0.55610  0.62520  Biso   1.000  H
  H149     1.0000 0.95570  0.94390  0.12520  Biso   1.000  H
  H150     1.0000 0.45570  0.44390  0.12520  Biso   1.000  H
  H151     1.0000 0.04430  0.94390  0.37480  Biso   1.000  H
  H152     1.0000 0.54430  0.44390  0.37480  Biso   1.000  H
  C169     1.0000 0.05020  0.05430  0.79640  Biso   1.000  C
  C170     1.0000 0.55020  0.55430  0.79640  Biso   1.000  C
  C171     1.0000 0.94980  0.05430  0.70360  Biso   1.000  C
  C172     1.0000 0.44980  0.55430  0.70360  Biso   1.000  C
  C173     1.0000 0.94980  0.94570  0.20360  Biso   1.000  C
  C174     1.0000 0.44980  0.44570  0.20360  Biso   1.000  C
  C175     1.0000 0.05020  0.94570  0.29640  Biso   1.000  C
  C176     1.0000 0.55020  0.44570  0.29640  Biso   1.000  C
  H153     1.0000 0.05140  0.95450  0.79380  Biso   1.000  H
  H154     1.0000 0.55140  0.45450  0.79380  Biso   1.000  H
  H155     1.0000 0.94860  0.95450  0.70620  Biso   1.000  H
  H156     1.0000 0.44860  0.45450  0.70620  Biso   1.000  H
  H157     1.0000 0.94860  0.04550  0.20620  Biso   1.000  H
  H158     1.0000 0.44860  0.54550  0.20620  Biso   1.000  H
  H159     1.0000 0.05140  0.04550  0.29380  Biso   1.000  H
  H160     1.0000 0.55140  0.54550  0.29380  Biso   1.000  H
  H161     1.0000 0.07410  0.09620  0.78830  Biso   1.000  H
  H162     1.0000 0.57410  0.59620  0.78830  Biso   1.000  H
  H163     1.0000 0.92590  0.09620  0.71170  Biso   1.000  H
  H164     1.0000 0.42590  0.59620  0.71170  Biso   1.000  H
  H165     1.0000 0.92590  0.90380  0.21170  Biso   1.000  H
  H166     1.0000 0.42590  0.40380  0.21170  Biso   1.000  H
  H167     1.0000 0.07410  0.90380  0.28830  Biso   1.000  H
  H168     1.0000 0.57410  0.40380  0.28830  Biso   1.000  H
  N25      1.0000 0.19200  0.10600  0.01464  Biso   1.000  N
  N26      1.0000 0.69200  0.60600  0.01464  Biso   1.000  N
  N27      1.0000 0.80800  0.10600  0.48536  Biso   1.000  N
  N28      1.0000 0.30800  0.60600  0.48536  Biso   1.000  N
  N29      1.0000 0.80800  0.89400  0.98536  Biso   1.000  N
  N30      1.0000 0.30800  0.39400  0.98536  Biso   1.000  N
  N31      1.0000 0.19200  0.89400  0.51464  Biso   1.000  N
  N32      1.0000 0.69200  0.39400  0.51464  Biso   1.000  N
  C177     1.0000 0.20331  0.07930  0.07060  Biso   1.000  C
  C178     1.0000 0.70331  0.57930  0.07060  Biso   1.000  C
  C179     1.0000 0.79669  0.07930  0.42940  Biso   1.000  C
  C180     1.0000 0.29669  0.57930  0.42940  Biso   1.000  C
  C181     1.0000 0.79669  0.92070  0.92940  Biso   1.000  C
  C182     1.0000 0.29669  0.42070  0.92940  Biso   1.000  C
  C183     1.0000 0.20331  0.92070  0.57060  Biso   1.000  C
  C184     1.0000 0.70331  0.42070  0.57060  Biso   1.000  C
  H169     1.0000 0.23570  0.10400  0.10600  Biso   1.000  H
  H170     1.0000 0.73570  0.60400  0.10600  Biso   1.000  H
  H171     1.0000 0.76430  0.10400  0.39400  Biso   1.000  H
  H172     1.0000 0.26430  0.60400  0.39400  Biso   1.000  H
  H173     1.0000 0.76430  0.89600  0.89400  Biso   1.000  H
  H174     1.0000 0.26430  0.39600  0.89400  Biso   1.000  H
  H175     1.0000 0.23570  0.89600  0.60600  Biso   1.000  H
  H176     1.0000 0.73570  0.39600  0.60600  Biso   1.000  H
  F97      1.0000 0.95730  0.80100  0.81120  Biso   1.000  F
  F98      1.0000 0.45730  0.30100  0.81120  Biso   1.000  F
  F99      1.0000 0.04270  0.80100  0.68880  Biso   1.000  F
  F100     1.0000 0.54270  0.30100  0.68880  Biso   1.000  F
  F101     1.0000 0.04270  0.19900  0.18880  Biso   1.000  F
  F102     1.0000 0.54270  0.69900  0.18880  Biso   1.000  F
  F103     1.0000 0.95730  0.19900  0.31120  Biso   1.000  F
  F104     1.0000 0.45730  0.69900  0.31120  Biso   1.000  F
  F105     1.0000 0.96230  0.62200  0.84120  Biso   1.000  F
  F106     1.0000 0.46230  0.12200  0.84120  Biso   1.000  F
  F107     1.0000 0.03770  0.62200  0.65880  Biso   1.000  F
  F108     1.0000 0.53770  0.12200  0.65880  Biso   1.000  F
  F109     1.0000 0.03770  0.37800  0.15880  Biso   1.000  F
  F110     1.0000 0.53770  0.87800  0.15880  Biso   1.000  F
  F111     1.0000 0.96230  0.37800  0.34120  Biso   1.000  F
  F112     1.0000 0.46230  0.87800  0.34120  Biso   1.000  F
  F113     1.0000 0.03880  0.71700  0.88340  Biso   1.000  F
  F114     1.0000 0.53880  0.21700  0.88340  Biso   1.000  F
  F115     1.0000 0.96120  0.71700  0.61660  Biso   1.000  F
  F116     1.0000 0.46120  0.21700  0.61660  Biso   1.000  F
  F117     1.0000 0.96120  0.28300  0.11660  Biso   1.000  F
  F118     1.0000 0.46120  0.78300  0.11660  Biso   1.000  F
  F119     1.0000 0.03880  0.28300  0.38340  Biso   1.000  F
  F120     1.0000 0.53880  0.78300  0.38340  Biso   1.000  F
  F121     1.0000 0.96340  0.61610  0.06860  Biso   1.000  F
  F122     1.0000 0.46340  0.11610  0.06860  Biso   1.000  F
  F123     1.0000 0.03660  0.61610  0.43140  Biso   1.000  F
  F124     1.0000 0.53660  0.11610  0.43140  Biso   1.000  F
  F125     1.0000 0.03660  0.38390  0.93140  Biso   1.000  F
  F126     1.0000 0.53660  0.88390  0.93140  Biso   1.000  F
  F127     1.0000 0.96340  0.38390  0.56860  Biso   1.000  F
  F128     1.0000 0.46340  0.88390  0.56860  Biso   1.000  F
  F129     1.0000 0.92320  0.50000  0.98270  Biso   1.000  F
  F130     1.0000 0.42320  0.00000  0.98270  Biso   1.000  F
  F131     1.0000 0.07680  0.50000  0.51730  Biso   1.000  F
  F132     1.0000 0.57680  0.00000  0.51730  Biso   1.000  F
  F133     1.0000 0.07680  0.50000  0.01730  Biso   1.000  F
  F134     1.0000 0.57680  0.00000  0.01730  Biso   1.000  F
  F135     1.0000 0.92320  0.50000  0.48270  Biso   1.000  F
  F136     1.0000 0.42320  0.00000  0.48270  Biso   1.000  F
  F137     1.0000 0.88200  0.66600  0.99050  Biso   1.000  F
  F138     1.0000 0.38200  0.16600  0.99050  Biso   1.000  F
  F139     1.0000 0.11800  0.66600  0.50950  Biso   1.000  F
  F140     1.0000 0.61800  0.16600  0.50950  Biso   1.000  F
  F141     1.0000 0.11800  0.33400  0.00950  Biso   1.000  F
  F142     1.0000 0.61800  0.83400  0.00950  Biso   1.000  F
  F143     1.0000 0.88200  0.33400  0.49050  Biso   1.000  F
  F144     1.0000 0.38200  0.83400  0.49050  Biso   1.000  F
  F145     1.0000 0.22010  0.85060  0.89540  Biso   1.000  F
  F146     1.0000 0.72010  0.35060  0.89540  Biso   1.000  F
  F147     1.0000 0.77990  0.85060  0.60460  Biso   1.000  F
  F148     1.0000 0.27990  0.35060  0.60460  Biso   1.000  F
  F149     1.0000 0.77990  0.14940  0.10460  Biso   1.000  F
  F150     1.0000 0.27990  0.64940  0.10460  Biso   1.000  F
  F151     1.0000 0.22010  0.14940  0.39540  Biso   1.000  F
  F152     1.0000 0.72010  0.64940  0.39540  Biso   1.000  F
  F153     1.0000 0.28640  0.75100  0.96570  Biso   1.000  F
  F154     1.0000 0.78640  0.25100  0.96570  Biso   1.000  F
  F155     1.0000 0.71360  0.75100  0.53430  Biso   1.000  F
  F156     1.0000 0.21360  0.25100  0.53430  Biso   1.000  F
  F157     1.0000 0.71360  0.24900  0.03430  Biso   1.000  F
  F158     1.0000 0.21360  0.74900  0.03430  Biso   1.000  F
  F159     1.0000 0.28640  0.24900  0.46570  Biso   1.000  F
  F160     1.0000 0.78640  0.74900  0.46570  Biso   1.000  F
  F161     1.0000 0.29400  0.88710  0.91030  Biso   1.000  F
  F162     1.0000 0.79400  0.38710  0.91030  Biso   1.000  F
  F163     1.0000 0.70600  0.88710  0.58970  Biso   1.000  F
  F164     1.0000 0.20600  0.38710  0.58970  Biso   1.000  F
  F165     1.0000 0.70600  0.11290  0.08970  Biso   1.000  F
  F166     1.0000 0.20600  0.61290  0.08970  Biso   1.000  F
  F167     1.0000 0.29400  0.11290  0.41030  Biso   1.000  F
  F168     1.0000 0.79400  0.61290  0.41030  Biso   1.000  F
  F169     1.0000 0.35940  0.07800  0.19770  Biso   1.000  F
  F170     1.0000 0.85940  0.57800  0.19770  Biso   1.000  F
  F171     1.0000 0.64060  0.07800  0.30230  Biso   1.000  F
  F172     1.0000 0.14060  0.57800  0.30230  Biso   1.000  F
  F173     1.0000 0.64060  0.92200  0.80230  Biso   1.000  F
  F174     1.0000 0.14060  0.42200  0.80230  Biso   1.000  F
  F175     1.0000 0.35940  0.92200  0.69770  Biso   1.000  F
  F176     1.0000 0.85940  0.42200  0.69770  Biso   1.000  F
  F177     1.0000 0.38010  0.89610  0.17420  Biso   1.000  F
  F178     1.0000 0.88010  0.39610  0.17420  Biso   1.000  F
  F179     1.0000 0.61990  0.89610  0.32580  Biso   1.000  F
  F180     1.0000 0.11990  0.39610  0.32580  Biso   1.000  F
  F181     1.0000 0.61990  0.10390  0.82580  Biso   1.000  F
  F182     1.0000 0.11990  0.60390  0.82580  Biso   1.000  F
  F183     1.0000 0.38010  0.10390  0.67420  Biso   1.000  F
  F184     1.0000 0.88010  0.60390  0.67420  Biso   1.000  F
  F185     1.0000 0.41660  0.09200  0.18370  Biso   1.000  F
  F186     1.0000 0.91660  0.59200  0.18370  Biso   1.000  F
  F187     1.0000 0.58340  0.09200  0.31630  Biso   1.000  F
  F188     1.0000 0.08340  0.59200  0.31630  Biso   1.000  F
  F189     1.0000 0.58340  0.90800  0.81630  Biso   1.000  F
  F190     1.0000 0.08340  0.40800  0.81630  Biso   1.000  F
  F191     1.0000 0.41660  0.90800  0.68370  Biso   1.000  F
  F192     1.0000 0.91660  0.40800  0.68370  Biso   1.000  F
  H177     1.0000 0.01420  0.08630  0.76540  Biso   1.000  H
  H178     1.0000 0.51420  0.58630  0.76540  Biso   1.000  H
  H179     1.0000 0.98580  0.08630  0.73460  Biso   1.000  H
  H180     1.0000 0.48580  0.58630  0.73460  Biso   1.000  H
  H181     1.0000 0.98580  0.91370  0.23460  Biso   1.000  H
  H182     1.0000 0.48580  0.41370  0.23460  Biso   1.000  H
  H183     1.0000 0.01420  0.91370  0.26540  Biso   1.000  H
  H184     1.0000 0.51420  0.41370  0.26540  Biso   1.000  H
