data_image0
_cell_length_a       30.934
_cell_length_b       9.5804
_cell_length_c       26.135
_cell_angle_alpha    90
_cell_angle_beta     125.328
_cell_angle_gamma    90

_symmetry_space_group_name_H-M    "P 1"
_symmetry_int_tables_number       1

loop_
  _symmetry_equiv_pos_as_xyz
  'x, y, z'

loop_
  _atom_site_label
  _atom_site_occupancy
  _atom_site_fract_x
  _atom_site_fract_y
  _atom_site_fract_z
  _atom_site_thermal_displace_type
  _atom_site_B_iso_or_equiv
  _atom_site_type_symbol
  Cu1      1.0000 0.00000  0.00000  0.00000  Biso   1.000  Cu
  Cu2      1.0000 0.00000  0.00000  0.50000  Biso   1.000  Cu
  Cu3      1.0000 0.50000  0.50000  0.00000  Biso   1.000  Cu
  Cu4      1.0000 0.50000  0.50000  0.50000  Biso   1.000  Cu
  O1       1.0000 0.03749  0.84713  0.99112  Biso   1.000  O
  O2       1.0000 0.96251  0.84713  0.50888  Biso   1.000  O
  O3       1.0000 0.53749  0.34713  0.99112  Biso   1.000  O
  O4       1.0000 0.46251  0.34713  0.50888  Biso   1.000  O
  O5       1.0000 0.96251  0.15287  0.00888  Biso   1.000  O
  O6       1.0000 0.03749  0.15287  0.49112  Biso   1.000  O
  O7       1.0000 0.46251  0.65287  0.00888  Biso   1.000  O
  O8       1.0000 0.53749  0.65287  0.49112  Biso   1.000  O
  C1       1.0000 0.07468  0.63020  0.99890  Biso   1.000  C
  C2       1.0000 0.92532  0.63020  0.50110  Biso   1.000  C
  C3       1.0000 0.57468  0.13020  0.99890  Biso   1.000  C
  C4       1.0000 0.42532  0.13020  0.50110  Biso   1.000  C
  C5       1.0000 0.92532  0.36980  0.00110  Biso   1.000  C
  C6       1.0000 0.07468  0.36980  0.49890  Biso   1.000  C
  C7       1.0000 0.42532  0.86980  0.00110  Biso   1.000  C
  C8       1.0000 0.57468  0.86980  0.49890  Biso   1.000  C
  F1       1.0000 0.07610  0.50350  0.01790  Biso   1.000  F
  F2       1.0000 0.92390  0.50350  0.48210  Biso   1.000  F
  F3       1.0000 0.57610  0.00350  0.01790  Biso   1.000  F
  F4       1.0000 0.42390  0.00350  0.48210  Biso   1.000  F
  F5       1.0000 0.92390  0.49650  0.98210  Biso   1.000  F
  F6       1.0000 0.07610  0.49650  0.51790  Biso   1.000  F
  F7       1.0000 0.42390  0.99650  0.98210  Biso   1.000  F
  F8       1.0000 0.57610  0.99650  0.51790  Biso   1.000  F
  F9       1.0000 0.03500  0.61290  0.93120  Biso   1.000  F
  F10      1.0000 0.96500  0.61290  0.56880  Biso   1.000  F
  F11      1.0000 0.53500  0.11290  0.93120  Biso   1.000  F
  F12      1.0000 0.46500  0.11290  0.56880  Biso   1.000  F
  F13      1.0000 0.96500  0.38710  0.06880  Biso   1.000  F
  F14      1.0000 0.03500  0.38710  0.43120  Biso   1.000  F
  F15      1.0000 0.46500  0.88710  0.06880  Biso   1.000  F
  F16      1.0000 0.53500  0.88710  0.43120  Biso   1.000  F
  F17      1.0000 0.11420  0.66920  0.00390  Biso   1.000  F
  F18      1.0000 0.88580  0.66920  0.49610  Biso   1.000  F
  F19      1.0000 0.61420  0.16920  0.00390  Biso   1.000  F
  F20      1.0000 0.38580  0.16920  0.49610  Biso   1.000  F
  F21      1.0000 0.88580  0.33080  0.99610  Biso   1.000  F
  F22      1.0000 0.11420  0.33080  0.50390  Biso   1.000  F
  F23      1.0000 0.38580  0.83080  0.99610  Biso   1.000  F
  F24      1.0000 0.61420  0.83080  0.50390  Biso   1.000  F
  C9       1.0000 0.05014  0.73440  0.01972  Biso   1.000  C
  C10      1.0000 0.94986  0.73440  0.48028  Biso   1.000  C
  C11      1.0000 0.55014  0.23440  0.01972  Biso   1.000  C
  C12      1.0000 0.44986  0.23440  0.48028  Biso   1.000  C
  C13      1.0000 0.94986  0.26560  0.98028  Biso   1.000  C
  C14      1.0000 0.05014  0.26560  0.51972  Biso   1.000  C
  C15      1.0000 0.44986  0.76560  0.98028  Biso   1.000  C
  C16      1.0000 0.55014  0.76560  0.51972  Biso   1.000  C
  C17      1.0000 0.04446  0.69390  0.06615  Biso   1.000  C
  C18      1.0000 0.95554  0.69390  0.43385  Biso   1.000  C
  C19      1.0000 0.54446  0.19390  0.06615  Biso   1.000  C
  C20      1.0000 0.45554  0.19390  0.43385  Biso   1.000  C
  C21      1.0000 0.95554  0.30610  0.93385  Biso   1.000  C
  C22      1.0000 0.04446  0.30610  0.56615  Biso   1.000  C
  C23      1.0000 0.45554  0.80610  0.93385  Biso   1.000  C
  C24      1.0000 0.54446  0.80610  0.56615  Biso   1.000  C
  H1       1.0000 0.05560  0.60520  0.08340  Biso   1.000  H
  H2       1.0000 0.94440  0.60520  0.41660  Biso   1.000  H
  H3       1.0000 0.55560  0.10520  0.08340  Biso   1.000  H
  H4       1.0000 0.44440  0.10520  0.41660  Biso   1.000  H
  H5       1.0000 0.94440  0.39480  0.91660  Biso   1.000  H
  H6       1.0000 0.05560  0.39480  0.58340  Biso   1.000  H
  H7       1.0000 0.44440  0.89480  0.91660  Biso   1.000  H
  H8       1.0000 0.55560  0.89480  0.58340  Biso   1.000  H
  C25      1.0000 0.02279  0.78070  0.08781  Biso   1.000  C
  C26      1.0000 0.97721  0.78070  0.41219  Biso   1.000  C
  C27      1.0000 0.52279  0.28070  0.08781  Biso   1.000  C
  C28      1.0000 0.47721  0.28070  0.41219  Biso   1.000  C
  C29      1.0000 0.97721  0.21930  0.91219  Biso   1.000  C
  C30      1.0000 0.02279  0.21930  0.58781  Biso   1.000  C
  C31      1.0000 0.47721  0.71930  0.91219  Biso   1.000  C
  C32      1.0000 0.52279  0.71930  0.58781  Biso   1.000  C
  C33      1.0000 0.01620  0.72460  0.13750  Biso   1.000  C
  C34      1.0000 0.98380  0.72460  0.36250  Biso   1.000  C
  C35      1.0000 0.51620  0.22460  0.13750  Biso   1.000  C
  C36      1.0000 0.48380  0.22460  0.36250  Biso   1.000  C
  C37      1.0000 0.98380  0.27540  0.86250  Biso   1.000  C
  C38      1.0000 0.01620  0.27540  0.63750  Biso   1.000  C
  C39      1.0000 0.48380  0.77540  0.86250  Biso   1.000  C
  C40      1.0000 0.51620  0.77540  0.63750  Biso   1.000  C
  F25      1.0000 0.04840  0.62180  0.16940  Biso   1.000  F
  F26      1.0000 0.95160  0.62180  0.33060  Biso   1.000  F
  F27      1.0000 0.54840  0.12180  0.16940  Biso   1.000  F
  F28      1.0000 0.45160  0.12180  0.33060  Biso   1.000  F
  F29      1.0000 0.95160  0.37820  0.83060  Biso   1.000  F
  F30      1.0000 0.04840  0.37820  0.66940  Biso   1.000  F
  F31      1.0000 0.45160  0.87820  0.83060  Biso   1.000  F
  F32      1.0000 0.54840  0.87820  0.66940  Biso   1.000  F
  F33      1.0000 0.02760  0.82420  0.18020  Biso   1.000  F
  F34      1.0000 0.97240  0.82420  0.31980  Biso   1.000  F
  F35      1.0000 0.52760  0.32420  0.18020  Biso   1.000  F
  F36      1.0000 0.47240  0.32420  0.31980  Biso   1.000  F
  F37      1.0000 0.97240  0.17580  0.81980  Biso   1.000  F
  F38      1.0000 0.02760  0.17580  0.68020  Biso   1.000  F
  F39      1.0000 0.47240  0.67580  0.81980  Biso   1.000  F
  F40      1.0000 0.52760  0.67580  0.68020  Biso   1.000  F
  F41      1.0000 0.96890  0.68850  0.11200  Biso   1.000  F
  F42      1.0000 0.03110  0.68850  0.38800  Biso   1.000  F
  F43      1.0000 0.46890  0.18850  0.11200  Biso   1.000  F
  F44      1.0000 0.53110  0.18850  0.38800  Biso   1.000  F
  F45      1.0000 0.03110  0.31150  0.88800  Biso   1.000  F
  F46      1.0000 0.96890  0.31150  0.61200  Biso   1.000  F
  F47      1.0000 0.53110  0.81150  0.88800  Biso   1.000  F
  F48      1.0000 0.46890  0.81150  0.61200  Biso   1.000  F
  O9       1.0000 0.00647  0.90245  0.07113  Biso   1.000  O
  O10      1.0000 0.99353  0.90245  0.42887  Biso   1.000  O
  O11      1.0000 0.50647  0.40245  0.07113  Biso   1.000  O
  O12      1.0000 0.49353  0.40245  0.42887  Biso   1.000  O
  O13      1.0000 0.99353  0.09755  0.92887  Biso   1.000  O
  O14      1.0000 0.00647  0.09755  0.57113  Biso   1.000  O
  O15      1.0000 0.49353  0.59755  0.92887  Biso   1.000  O
  O16      1.0000 0.50647  0.59755  0.57113  Biso   1.000  O
  Cu5      1.0000 0.25000  0.75000  0.00000  Biso   1.000  Cu
  Cu6      1.0000 0.75000  0.75000  0.50000  Biso   1.000  Cu
  Cu7      1.0000 0.75000  0.25000  0.00000  Biso   1.000  Cu
  Cu8      1.0000 0.25000  0.25000  0.50000  Biso   1.000  Cu
  O17      1.0000 0.25666  0.90853  0.95772  Biso   1.000  O
  O18      1.0000 0.74334  0.90853  0.54228  Biso   1.000  O
  O19      1.0000 0.75666  0.40853  0.95772  Biso   1.000  O
  O20      1.0000 0.24334  0.40853  0.54228  Biso   1.000  O
  O21      1.0000 0.74334  0.09147  0.04228  Biso   1.000  O
  O22      1.0000 0.25666  0.09147  0.45772  Biso   1.000  O
  O23      1.0000 0.24334  0.59147  0.04228  Biso   1.000  O
  O24      1.0000 0.75666  0.59147  0.45772  Biso   1.000  O
  C41      1.0000 0.27900  0.12970  0.94190  Biso   1.000  C
  C42      1.0000 0.72100  0.12970  0.55810  Biso   1.000  C
  C43      1.0000 0.77900  0.62970  0.94190  Biso   1.000  C
  C44      1.0000 0.22100  0.62970  0.55810  Biso   1.000  C
  C45      1.0000 0.72100  0.87030  0.05810  Biso   1.000  C
  C46      1.0000 0.27900  0.87030  0.44190  Biso   1.000  C
  C47      1.0000 0.22100  0.37030  0.05810  Biso   1.000  C
  C48      1.0000 0.77900  0.37030  0.44190  Biso   1.000  C
  F49      1.0000 0.33355  0.16600  0.96250  Biso   1.000  F
  F50      1.0000 0.66645  0.16600  0.53750  Biso   1.000  F
  F51      1.0000 0.83355  0.66600  0.96250  Biso   1.000  F
  F52      1.0000 0.16645  0.66600  0.53750  Biso   1.000  F
  F53      1.0000 0.66645  0.83400  0.03750  Biso   1.000  F
  F54      1.0000 0.33355  0.83400  0.46250  Biso   1.000  F
  F55      1.0000 0.16645  0.33400  0.03750  Biso   1.000  F
  F56      1.0000 0.83355  0.33400  0.46250  Biso   1.000  F
  F57      1.0000 0.26740  0.24260  0.95410  Biso   1.000  F
  F58      1.0000 0.73260  0.24260  0.54590  Biso   1.000  F
  F59      1.0000 0.76740  0.74260  0.95410  Biso   1.000  F
  F60      1.0000 0.23260  0.74260  0.54590  Biso   1.000  F
  F61      1.0000 0.73260  0.75740  0.04590  Biso   1.000  F
  F62      1.0000 0.26740  0.75740  0.45410  Biso   1.000  F
  F63      1.0000 0.23260  0.25740  0.04590  Biso   1.000  F
  F64      1.0000 0.76740  0.25740  0.45410  Biso   1.000  F
  F65      1.0000 0.26010  0.08990  0.88890  Biso   1.000  F
  F66      1.0000 0.73990  0.08990  0.61110  Biso   1.000  F
  F67      1.0000 0.76010  0.58990  0.88890  Biso   1.000  F
  F68      1.0000 0.23990  0.58990  0.61110  Biso   1.000  F
  F69      1.0000 0.73990  0.91010  0.11110  Biso   1.000  F
  F70      1.0000 0.26010  0.91010  0.38890  Biso   1.000  F
  F71      1.0000 0.23990  0.41010  0.11110  Biso   1.000  F
  F72      1.0000 0.76010  0.41010  0.38890  Biso   1.000  F
  C49      1.0000 0.28568  0.01110  0.98557  Biso   1.000  C
  C50      1.0000 0.71432  0.01110  0.51443  Biso   1.000  C
  C51      1.0000 0.78568  0.51110  0.98557  Biso   1.000  C
  C52      1.0000 0.21432  0.51110  0.51443  Biso   1.000  C
  C53      1.0000 0.71432  0.98890  0.01443  Biso   1.000  C
  C54      1.0000 0.28568  0.98890  0.48557  Biso   1.000  C
  C55      1.0000 0.21432  0.48890  0.01443  Biso   1.000  C
  C56      1.0000 0.78568  0.48890  0.48557  Biso   1.000  C
  C57      1.0000 0.32130  0.03150  0.04881  Biso   1.000  C
  C58      1.0000 0.67870  0.03150  0.45119  Biso   1.000  C
  C59      1.0000 0.82130  0.53150  0.04881  Biso   1.000  C
  C60      1.0000 0.17870  0.53150  0.45119  Biso   1.000  C
  C61      1.0000 0.67870  0.96850  0.95119  Biso   1.000  C
  C62      1.0000 0.32130  0.96850  0.54881  Biso   1.000  C
  C63      1.0000 0.17870  0.46850  0.95119  Biso   1.000  C
  C64      1.0000 0.82130  0.46850  0.54881  Biso   1.000  C
  H9       1.0000 0.34050  0.11430  0.06280  Biso   1.000  H
  H10      1.0000 0.65950  0.11430  0.43720  Biso   1.000  H
  H11      1.0000 0.84050  0.61430  0.06280  Biso   1.000  H
  H12      1.0000 0.15950  0.61430  0.43720  Biso   1.000  H
  H13      1.0000 0.65950  0.88570  0.93720  Biso   1.000  H
  H14      1.0000 0.34050  0.88570  0.56280  Biso   1.000  H
  H15      1.0000 0.15950  0.38570  0.93720  Biso   1.000  H
  H16      1.0000 0.84050  0.38570  0.56280  Biso   1.000  H
  C65      1.0000 0.32978  0.93390  0.09232  Biso   1.000  C
  C66      1.0000 0.67022  0.93390  0.40768  Biso   1.000  C
  C67      1.0000 0.82978  0.43390  0.09232  Biso   1.000  C
  C68      1.0000 0.17022  0.43390  0.40768  Biso   1.000  C
  C69      1.0000 0.67022  0.06610  0.90768  Biso   1.000  C
  C70      1.0000 0.32978  0.06610  0.59232  Biso   1.000  C
  C71      1.0000 0.17022  0.56610  0.90768  Biso   1.000  C
  C72      1.0000 0.82978  0.56610  0.59232  Biso   1.000  C
  C73      1.0000 0.37011  0.96750  0.16202  Biso   1.000  C
  C74      1.0000 0.62989  0.96750  0.33798  Biso   1.000  C
  C75      1.0000 0.87011  0.46750  0.16202  Biso   1.000  C
  C76      1.0000 0.12989  0.46750  0.33798  Biso   1.000  C
  C77      1.0000 0.62989  0.03250  0.83798  Biso   1.000  C
  C78      1.0000 0.37011  0.03250  0.66202  Biso   1.000  C
  C79      1.0000 0.12989  0.53250  0.83798  Biso   1.000  C
  C80      1.0000 0.87011  0.53250  0.66202  Biso   1.000  C
  F73      1.0000 0.34750  0.98700  0.18980  Biso   1.000  F
  F74      1.0000 0.65250  0.98700  0.31020  Biso   1.000  F
  F75      1.0000 0.84750  0.48700  0.18980  Biso   1.000  F
  F76      1.0000 0.15250  0.48700  0.31020  Biso   1.000  F
  F77      1.0000 0.65250  0.01300  0.81020  Biso   1.000  F
  F78      1.0000 0.34750  0.01300  0.68980  Biso   1.000  F
  F79      1.0000 0.15250  0.51300  0.81020  Biso   1.000  F
  F80      1.0000 0.84750  0.51300  0.68980  Biso   1.000  F
  F81      1.0000 0.40320  0.85920  0.19170  Biso   1.000  F
  F82      1.0000 0.59680  0.85920  0.30830  Biso   1.000  F
  F83      1.0000 0.90320  0.35920  0.19170  Biso   1.000  F
  F84      1.0000 0.09680  0.35920  0.30830  Biso   1.000  F
  F85      1.0000 0.59680  0.14080  0.80830  Biso   1.000  F
  F86      1.0000 0.40320  0.14080  0.69170  Biso   1.000  F
  F87      1.0000 0.09680  0.64080  0.80830  Biso   1.000  F
  F88      1.0000 0.90320  0.64080  0.69170  Biso   1.000  F
  F89      1.0000 0.40050  0.06910  0.17330  Biso   1.000  F
  F90      1.0000 0.59950  0.06910  0.32670  Biso   1.000  F
  F91      1.0000 0.90050  0.56910  0.17330  Biso   1.000  F
  F92      1.0000 0.09950  0.56910  0.32670  Biso   1.000  F
  F93      1.0000 0.59950  0.93090  0.82670  Biso   1.000  F
  F94      1.0000 0.40050  0.93090  0.67330  Biso   1.000  F
  F95      1.0000 0.09950  0.43090  0.82670  Biso   1.000  F
  F96      1.0000 0.90050  0.43090  0.67330  Biso   1.000  F
  O25      1.0000 0.30792  0.81851  0.08285  Biso   1.000  O
  O26      1.0000 0.69208  0.81851  0.41715  Biso   1.000  O
  O27      1.0000 0.80792  0.31851  0.08285  Biso   1.000  O
  O28      1.0000 0.19208  0.31851  0.41715  Biso   1.000  O
  O29      1.0000 0.69208  0.18149  0.91715  Biso   1.000  O
  O30      1.0000 0.30792  0.18149  0.58285  Biso   1.000  O
  O31      1.0000 0.19208  0.68149  0.91715  Biso   1.000  O
  O32      1.0000 0.80792  0.68149  0.58285  Biso   1.000  O
  O33      1.0000 0.07486  0.13862  0.05771  Biso   1.000  O
  O34      1.0000 0.92514  0.13862  0.44229  Biso   1.000  O
  O35      1.0000 0.57486  0.63862  0.05771  Biso   1.000  O
  O36      1.0000 0.42514  0.63862  0.44229  Biso   1.000  O
  O37      1.0000 0.92514  0.86138  0.94229  Biso   1.000  O
  O38      1.0000 0.07486  0.86138  0.55771  Biso   1.000  O
  O39      1.0000 0.42514  0.36138  0.94229  Biso   1.000  O
  O40      1.0000 0.57486  0.36138  0.55771  Biso   1.000  O
  N1       1.0000 0.11904  0.10993  0.11080  Biso   1.000  N
  N2       1.0000 0.88096  0.10993  0.38920  Biso   1.000  N
  N3       1.0000 0.61904  0.60993  0.11080  Biso   1.000  N
  N4       1.0000 0.38096  0.60993  0.38920  Biso   1.000  N
  N5       1.0000 0.88096  0.89007  0.88920  Biso   1.000  N
  N6       1.0000 0.11904  0.89007  0.61080  Biso   1.000  N
  N7       1.0000 0.38096  0.39007  0.88920  Biso   1.000  N
  N8       1.0000 0.61904  0.39007  0.61080  Biso   1.000  N
  C81      1.0000 0.13237  0.17090  0.17123  Biso   1.000  C
  C82      1.0000 0.86763  0.17090  0.32877  Biso   1.000  C
  C83      1.0000 0.63237  0.67090  0.17123  Biso   1.000  C
  C84      1.0000 0.36763  0.67090  0.32877  Biso   1.000  C
  C85      1.0000 0.86763  0.82910  0.82877  Biso   1.000  C
  C86      1.0000 0.13237  0.82910  0.67123  Biso   1.000  C
  C87      1.0000 0.36763  0.32910  0.82877  Biso   1.000  C
  C88      1.0000 0.63237  0.32910  0.67123  Biso   1.000  C
  C89      1.0000 0.14723  0.32340  0.17136  Biso   1.000  C
  C90      1.0000 0.85277  0.32340  0.32864  Biso   1.000  C
  C91      1.0000 0.64723  0.82340  0.17136  Biso   1.000  C
  C92      1.0000 0.35277  0.82340  0.32864  Biso   1.000  C
  C93      1.0000 0.85277  0.67660  0.82864  Biso   1.000  C
  C94      1.0000 0.14723  0.67660  0.67136  Biso   1.000  C
  C95      1.0000 0.35277  0.17660  0.82864  Biso   1.000  C
  C96      1.0000 0.64723  0.17660  0.67136  Biso   1.000  C
  H17      1.0000 0.15620  0.36790  0.20930  Biso   1.000  H
  H18      1.0000 0.84380  0.36790  0.29070  Biso   1.000  H
  H19      1.0000 0.65620  0.86790  0.20930  Biso   1.000  H
  H20      1.0000 0.34380  0.86790  0.29070  Biso   1.000  H
  H21      1.0000 0.84380  0.63210  0.79070  Biso   1.000  H
  H22      1.0000 0.15620  0.63210  0.70930  Biso   1.000  H
  H23      1.0000 0.34380  0.13210  0.79070  Biso   1.000  H
  H24      1.0000 0.65620  0.13210  0.70930  Biso   1.000  H
  H25      1.0000 0.17710  0.32700  0.16910  Biso   1.000  H
  H26      1.0000 0.82290  0.32700  0.33090  Biso   1.000  H
  H27      1.0000 0.67710  0.82700  0.16910  Biso   1.000  H
  H28      1.0000 0.32290  0.82700  0.33090  Biso   1.000  H
  H29      1.0000 0.82290  0.67300  0.83090  Biso   1.000  H
  H30      1.0000 0.17710  0.67300  0.66910  Biso   1.000  H
  H31      1.0000 0.32290  0.17300  0.83090  Biso   1.000  H
  H32      1.0000 0.67710  0.17300  0.66910  Biso   1.000  H
  H33      1.0000 0.11770  0.37080  0.13580  Biso   1.000  H
  H34      1.0000 0.88230  0.37080  0.36420  Biso   1.000  H
  H35      1.0000 0.61770  0.87080  0.13580  Biso   1.000  H
  H36      1.0000 0.38230  0.87080  0.36420  Biso   1.000  H
  H37      1.0000 0.88230  0.62920  0.86420  Biso   1.000  H
  H38      1.0000 0.11770  0.62920  0.63580  Biso   1.000  H
  H39      1.0000 0.38230  0.12920  0.86420  Biso   1.000  H
  H40      1.0000 0.61770  0.12920  0.63580  Biso   1.000  H
  C97      1.0000 0.08458  0.16180  0.17405  Biso   1.000  C
  C98      1.0000 0.91542  0.16180  0.32595  Biso   1.000  C
  C99      1.0000 0.58458  0.66180  0.17405  Biso   1.000  C
  C100     1.0000 0.41542  0.66180  0.32595  Biso   1.000  C
  C101     1.0000 0.91542  0.83820  0.82595  Biso   1.000  C
  C102     1.0000 0.08458  0.83820  0.67405  Biso   1.000  C
  C103     1.0000 0.41542  0.33820  0.82595  Biso   1.000  C
  C104     1.0000 0.58458  0.33820  0.67405  Biso   1.000  C
  H41      1.0000 0.09350  0.20100  0.21280  Biso   1.000  H
  H42      1.0000 0.90650  0.20100  0.28720  Biso   1.000  H
  H43      1.0000 0.59350  0.70100  0.21280  Biso   1.000  H
  H44      1.0000 0.40650  0.70100  0.28720  Biso   1.000  H
  H45      1.0000 0.90650  0.79900  0.78720  Biso   1.000  H
  H46      1.0000 0.09350  0.79900  0.71280  Biso   1.000  H
  H47      1.0000 0.40650  0.29900  0.78720  Biso   1.000  H
  H48      1.0000 0.59350  0.29900  0.71280  Biso   1.000  H
  H49      1.0000 0.05550  0.21280  0.13960  Biso   1.000  H
  H50      1.0000 0.94450  0.21280  0.36040  Biso   1.000  H
  H51      1.0000 0.55550  0.71280  0.13960  Biso   1.000  H
  H52      1.0000 0.44450  0.71280  0.36040  Biso   1.000  H
  H53      1.0000 0.94450  0.78720  0.86040  Biso   1.000  H
  H54      1.0000 0.05550  0.78720  0.63960  Biso   1.000  H
  H55      1.0000 0.44450  0.28720  0.86040  Biso   1.000  H
  H56      1.0000 0.55550  0.28720  0.63960  Biso   1.000  H
  H57      1.0000 0.07460  0.06580  0.17150  Biso   1.000  H
  H58      1.0000 0.92540  0.06580  0.32850  Biso   1.000  H
  H59      1.0000 0.57460  0.56580  0.17150  Biso   1.000  H
  H60      1.0000 0.42540  0.56580  0.32850  Biso   1.000  H
  H61      1.0000 0.92540  0.93420  0.82850  Biso   1.000  H
  H62      1.0000 0.07460  0.93420  0.67150  Biso   1.000  H
  H63      1.0000 0.42540  0.43420  0.82850  Biso   1.000  H
  H64      1.0000 0.57460  0.43420  0.67150  Biso   1.000  H
  C105     1.0000 0.18010  0.07790  0.21809  Biso   1.000  C
  C106     1.0000 0.81990  0.07790  0.28191  Biso   1.000  C
  C107     1.0000 0.68010  0.57790  0.21809  Biso   1.000  C
  C108     1.0000 0.31990  0.57790  0.28191  Biso   1.000  C
  C109     1.0000 0.81990  0.92210  0.78191  Biso   1.000  C
  C110     1.0000 0.18010  0.92210  0.71809  Biso   1.000  C
  C111     1.0000 0.31990  0.42210  0.78191  Biso   1.000  C
  C112     1.0000 0.68010  0.42210  0.71809  Biso   1.000  C
  C113     1.0000 0.16443  0.93930  0.23226  Biso   1.000  C
  C114     1.0000 0.83557  0.93930  0.26774  Biso   1.000  C
  C115     1.0000 0.66443  0.43930  0.23226  Biso   1.000  C
  C116     1.0000 0.33557  0.43930  0.26774  Biso   1.000  C
  C117     1.0000 0.83557  0.06070  0.76774  Biso   1.000  C
  C118     1.0000 0.16443  0.06070  0.73226  Biso   1.000  C
  C119     1.0000 0.33557  0.56070  0.76774  Biso   1.000  C
  C120     1.0000 0.66443  0.56070  0.73226  Biso   1.000  C
  H65      1.0000 0.15130  0.95640  0.25720  Biso   1.000  H
  H66      1.0000 0.84870  0.95640  0.24280  Biso   1.000  H
  H67      1.0000 0.65130  0.45640  0.25720  Biso   1.000  H
  H68      1.0000 0.34870  0.45640  0.24280  Biso   1.000  H
  H69      1.0000 0.84870  0.04360  0.74280  Biso   1.000  H
  H70      1.0000 0.15130  0.04360  0.75720  Biso   1.000  H
  H71      1.0000 0.34870  0.54360  0.74280  Biso   1.000  H
  H72      1.0000 0.65130  0.54360  0.75720  Biso   1.000  H
  H73      1.0000 0.13730  0.89530  0.19360  Biso   1.000  H
  H74      1.0000 0.86270  0.89530  0.30640  Biso   1.000  H
  H75      1.0000 0.63730  0.39530  0.19360  Biso   1.000  H
  H76      1.0000 0.36270  0.39530  0.30640  Biso   1.000  H
  H77      1.0000 0.86270  0.10470  0.80640  Biso   1.000  H
  H78      1.0000 0.13730  0.10470  0.69360  Biso   1.000  H
  H79      1.0000 0.36270  0.60470  0.80640  Biso   1.000  H
  H80      1.0000 0.63730  0.60470  0.69360  Biso   1.000  H
  H81      1.0000 0.19490  0.87940  0.25490  Biso   1.000  H
  H82      1.0000 0.80510  0.87940  0.24510  Biso   1.000  H
  H83      1.0000 0.69490  0.37940  0.25490  Biso   1.000  H
  H84      1.0000 0.30510  0.37940  0.24510  Biso   1.000  H
  H85      1.0000 0.80510  0.12060  0.74510  Biso   1.000  H
  H86      1.0000 0.19490  0.12060  0.75490  Biso   1.000  H
  H87      1.0000 0.30510  0.62060  0.74510  Biso   1.000  H
  H88      1.0000 0.69490  0.62060  0.75490  Biso   1.000  H
  C121     1.0000 0.22367  0.14940  0.27857  Biso   1.000  C
  C122     1.0000 0.77633  0.14940  0.22143  Biso   1.000  C
  C123     1.0000 0.72367  0.64940  0.27857  Biso   1.000  C
  C124     1.0000 0.27633  0.64940  0.22143  Biso   1.000  C
  C125     1.0000 0.77633  0.85060  0.72143  Biso   1.000  C
  C126     1.0000 0.22367  0.85060  0.77857  Biso   1.000  C
  C127     1.0000 0.27633  0.35060  0.72143  Biso   1.000  C
  C128     1.0000 0.72367  0.35060  0.77857  Biso   1.000  C
  H89      1.0000 0.21050  0.17270  0.30300  Biso   1.000  H
  H90      1.0000 0.78950  0.17270  0.19700  Biso   1.000  H
  H91      1.0000 0.71050  0.67270  0.30300  Biso   1.000  H
  H92      1.0000 0.28950  0.67270  0.19700  Biso   1.000  H
  H93      1.0000 0.78950  0.82730  0.69700  Biso   1.000  H
  H94      1.0000 0.21050  0.82730  0.80300  Biso   1.000  H
  H95      1.0000 0.28950  0.32730  0.69700  Biso   1.000  H
  H96      1.0000 0.71050  0.32730  0.80300  Biso   1.000  H
  H97      1.0000 0.25340  0.08760  0.30220  Biso   1.000  H
  H98      1.0000 0.74660  0.08760  0.19780  Biso   1.000  H
  H99      1.0000 0.75340  0.58760  0.30220  Biso   1.000  H
  H100     1.0000 0.24660  0.58760  0.19780  Biso   1.000  H
  H101     1.0000 0.74660  0.91240  0.69780  Biso   1.000  H
  H102     1.0000 0.25340  0.91240  0.80220  Biso   1.000  H
  H103     1.0000 0.24660  0.41240  0.69780  Biso   1.000  H
  H104     1.0000 0.75340  0.41240  0.80220  Biso   1.000  H
  H105     1.0000 0.23450  0.23310  0.26870  Biso   1.000  H
  H106     1.0000 0.76550  0.23310  0.23130  Biso   1.000  H
  H107     1.0000 0.73450  0.73310  0.26870  Biso   1.000  H
  H108     1.0000 0.26550  0.73310  0.23130  Biso   1.000  H
  H109     1.0000 0.76550  0.76690  0.73130  Biso   1.000  H
  H110     1.0000 0.23450  0.76690  0.76870  Biso   1.000  H
  H111     1.0000 0.26550  0.26690  0.73130  Biso   1.000  H
  H112     1.0000 0.73450  0.26690  0.76870  Biso   1.000  H
  N9       1.0000 0.19989  0.04095  0.17946  Biso   1.000  N
  N10      1.0000 0.80011  0.04095  0.32054  Biso   1.000  N
  N11      1.0000 0.69989  0.54095  0.17946  Biso   1.000  N
  N12      1.0000 0.30011  0.54095  0.32054  Biso   1.000  N
  N13      1.0000 0.80011  0.95905  0.82054  Biso   1.000  N
  N14      1.0000 0.19989  0.95905  0.67946  Biso   1.000  N
  N15      1.0000 0.30011  0.45905  0.82054  Biso   1.000  N
  N16      1.0000 0.69989  0.45905  0.67946  Biso   1.000  N
  O41      1.0000 0.24591  0.99040  0.20293  Biso   1.000  O
  O42      1.0000 0.75409  0.99040  0.29707  Biso   1.000  O
  O43      1.0000 0.74591  0.49040  0.20293  Biso   1.000  O
  O44      1.0000 0.25409  0.49040  0.29707  Biso   1.000  O
  O45      1.0000 0.75409  0.00960  0.79707  Biso   1.000  O
  O46      1.0000 0.24591  0.00960  0.70293  Biso   1.000  O
  O47      1.0000 0.25409  0.50960  0.79707  Biso   1.000  O
  O48      1.0000 0.74591  0.50960  0.70293  Biso   1.000  O
  C129     1.0000 0.16090  0.04860  0.11790  Biso   1.000  C
  C130     1.0000 0.83910  0.04860  0.38210  Biso   1.000  C
  C131     1.0000 0.66090  0.54860  0.11790  Biso   1.000  C
  C132     1.0000 0.33910  0.54860  0.38210  Biso   1.000  C
  C133     1.0000 0.83910  0.95140  0.88210  Biso   1.000  C
  C134     1.0000 0.16090  0.95140  0.61790  Biso   1.000  C
  C135     1.0000 0.33910  0.45140  0.88210  Biso   1.000  C
  C136     1.0000 0.66090  0.45140  0.61790  Biso   1.000  C
  C137     1.0000 0.16376  0.99874  0.06827  Biso   1.000  C
  C138     1.0000 0.83624  0.99874  0.43173  Biso   1.000  C
  C139     1.0000 0.66376  0.49874  0.06827  Biso   1.000  C
  C140     1.0000 0.33624  0.49874  0.43173  Biso   1.000  C
  C141     1.0000 0.83624  0.00126  0.93173  Biso   1.000  C
  C142     1.0000 0.16376  0.00126  0.56827  Biso   1.000  C
  C143     1.0000 0.33624  0.50126  0.93173  Biso   1.000  C
  C144     1.0000 0.66376  0.50126  0.56827  Biso   1.000  C
  C145     1.0000 0.20358  0.91860  0.07179  Biso   1.000  C
  C146     1.0000 0.79642  0.91860  0.42821  Biso   1.000  C
  C147     1.0000 0.70358  0.41860  0.07179  Biso   1.000  C
  C148     1.0000 0.29642  0.41860  0.42821  Biso   1.000  C
  C149     1.0000 0.79642  0.08140  0.92821  Biso   1.000  C
  C150     1.0000 0.20358  0.08140  0.57179  Biso   1.000  C
  C151     1.0000 0.29642  0.58140  0.92821  Biso   1.000  C
  C152     1.0000 0.70358  0.58140  0.57179  Biso   1.000  C
  H113     1.0000 0.23400  0.88740  0.10910  Biso   1.000  H
  H114     1.0000 0.76600  0.88740  0.39090  Biso   1.000  H
  H115     1.0000 0.73400  0.38740  0.10910  Biso   1.000  H
  H116     1.0000 0.26600  0.38740  0.39090  Biso   1.000  H
  H117     1.0000 0.76600  0.11260  0.89090  Biso   1.000  H
  H118     1.0000 0.23400  0.11260  0.60910  Biso   1.000  H
  H119     1.0000 0.26600  0.61260  0.89090  Biso   1.000  H
  H120     1.0000 0.73400  0.61260  0.60910  Biso   1.000  H
  N17      1.0000 0.19263  0.89335  0.01606  Biso   1.000  N
  N18      1.0000 0.80737  0.89335  0.48394  Biso   1.000  N
  N19      1.0000 0.69263  0.39335  0.01606  Biso   1.000  N
  N20      1.0000 0.30737  0.39335  0.48394  Biso   1.000  N
  N21      1.0000 0.80737  0.10665  0.98394  Biso   1.000  N
  N22      1.0000 0.19263  0.10665  0.51606  Biso   1.000  N
  N23      1.0000 0.30737  0.60665  0.98394  Biso   1.000  N
  N24      1.0000 0.69263  0.60665  0.51606  Biso   1.000  N
  N25      1.0000 0.14543  0.95700  0.97611  Biso   1.000  N
  N26      1.0000 0.85457  0.95700  0.52389  Biso   1.000  N
  N27      1.0000 0.64543  0.45700  0.97611  Biso   1.000  N
  N28      1.0000 0.35457  0.45700  0.52389  Biso   1.000  N
  N29      1.0000 0.85457  0.04300  0.02389  Biso   1.000  N
  N30      1.0000 0.14543  0.04300  0.47611  Biso   1.000  N
  N31      1.0000 0.35457  0.54300  0.02389  Biso   1.000  N
  N32      1.0000 0.64543  0.54300  0.47611  Biso   1.000  N
  C153     1.0000 0.11360  0.92600  0.90850  Biso   1.000  C
  C154     1.0000 0.88640  0.92600  0.59150  Biso   1.000  C
  C155     1.0000 0.61360  0.42600  0.90850  Biso   1.000  C
  C156     1.0000 0.38640  0.42600  0.59150  Biso   1.000  C
  C157     1.0000 0.88640  0.07400  0.09150  Biso   1.000  C
  C158     1.0000 0.11360  0.07400  0.40850  Biso   1.000  C
  C159     1.0000 0.38640  0.57400  0.09150  Biso   1.000  C
  C160     1.0000 0.61360  0.57400  0.40850  Biso   1.000  C
  H121     1.0000 0.07650  0.91350  0.89150  Biso   1.000  H
  H122     1.0000 0.92350  0.91350  0.60850  Biso   1.000  H
  H123     1.0000 0.57650  0.41350  0.89150  Biso   1.000  H
  H124     1.0000 0.42350  0.41350  0.60850  Biso   1.000  H
  H125     1.0000 0.92350  0.08650  0.10850  Biso   1.000  H
  H126     1.0000 0.07650  0.08650  0.39150  Biso   1.000  H
  H127     1.0000 0.42350  0.58650  0.10850  Biso   1.000  H
  H128     1.0000 0.57650  0.58650  0.39150  Biso   1.000  H
  H129     1.0000 0.12650  0.84350  0.89980  Biso   1.000  H
  H130     1.0000 0.87350  0.84350  0.60020  Biso   1.000  H
  H131     1.0000 0.62650  0.34350  0.89980  Biso   1.000  H
  H132     1.0000 0.37350  0.34350  0.60020  Biso   1.000  H
  H133     1.0000 0.87350  0.15650  0.10020  Biso   1.000  H
  H134     1.0000 0.12650  0.15650  0.39980  Biso   1.000  H
  H135     1.0000 0.37350  0.65650  0.10020  Biso   1.000  H
  H136     1.0000 0.62650  0.65650  0.39980  Biso   1.000  H
  C161     1.0000 0.12270  0.06050  0.88220  Biso   1.000  C
  C162     1.0000 0.87730  0.06050  0.61780  Biso   1.000  C
  C163     1.0000 0.62270  0.56050  0.88220  Biso   1.000  C
  C164     1.0000 0.37730  0.56050  0.61780  Biso   1.000  C
  C165     1.0000 0.87730  0.93950  0.11780  Biso   1.000  C
  C166     1.0000 0.12270  0.93950  0.38220  Biso   1.000  C
  C167     1.0000 0.37730  0.43950  0.11780  Biso   1.000  C
  C168     1.0000 0.62270  0.43950  0.38220  Biso   1.000  C
  H137     1.0000 0.11350  0.14120  0.89650  Biso   1.000  H
  H138     1.0000 0.88650  0.14120  0.60350  Biso   1.000  H
  H139     1.0000 0.61350  0.64120  0.89650  Biso   1.000  H
  H140     1.0000 0.38650  0.64120  0.60350  Biso   1.000  H
  H141     1.0000 0.88650  0.85880  0.10350  Biso   1.000  H
  H142     1.0000 0.11350  0.85880  0.39650  Biso   1.000  H
  H143     1.0000 0.38650  0.35880  0.10350  Biso   1.000  H
  H144     1.0000 0.61350  0.35880  0.39650  Biso   1.000  H
  H145     1.0000 0.16000  0.06740  0.89930  Biso   1.000  H
  H146     1.0000 0.84000  0.06740  0.60070  Biso   1.000  H
  H147     1.0000 0.66000  0.56740  0.89930  Biso   1.000  H
  H148     1.0000 0.34000  0.56740  0.60070  Biso   1.000  H
  H149     1.0000 0.84000  0.93260  0.10070  Biso   1.000  H
  H150     1.0000 0.16000  0.93260  0.39930  Biso   1.000  H
  H151     1.0000 0.34000  0.43260  0.10070  Biso   1.000  H
  H152     1.0000 0.66000  0.43260  0.39930  Biso   1.000  H
  C169     1.0000 0.09370  0.06400  0.81800  Biso   1.000  C
  C170     1.0000 0.90630  0.06400  0.68200  Biso   1.000  C
  C171     1.0000 0.59370  0.56400  0.81800  Biso   1.000  C
  C172     1.0000 0.40630  0.56400  0.68200  Biso   1.000  C
  C173     1.0000 0.90630  0.93600  0.18200  Biso   1.000  C
  C174     1.0000 0.09370  0.93600  0.31800  Biso   1.000  C
  C175     1.0000 0.40630  0.43600  0.18200  Biso   1.000  C
  C176     1.0000 0.59370  0.43600  0.31800  Biso   1.000  C
  H153     1.0000 0.10110  0.14910  0.80500  Biso   1.000  H
  H154     1.0000 0.89890  0.14910  0.69500  Biso   1.000  H
  H155     1.0000 0.60110  0.64910  0.80500  Biso   1.000  H
  H156     1.0000 0.39890  0.64910  0.69500  Biso   1.000  H
  H157     1.0000 0.89890  0.85090  0.19500  Biso   1.000  H
  H158     1.0000 0.10110  0.85090  0.30500  Biso   1.000  H
  H159     1.0000 0.39890  0.35090  0.19500  Biso   1.000  H
  H160     1.0000 0.60110  0.35090  0.30500  Biso   1.000  H
  H161     1.0000 0.10320  0.98570  0.80340  Biso   1.000  H
  H162     1.0000 0.89680  0.98570  0.69660  Biso   1.000  H
  H163     1.0000 0.60320  0.48570  0.80340  Biso   1.000  H
  H164     1.0000 0.39680  0.48570  0.69660  Biso   1.000  H
  H165     1.0000 0.89680  0.01430  0.19660  Biso   1.000  H
  H166     1.0000 0.10320  0.01430  0.30340  Biso   1.000  H
  H167     1.0000 0.39680  0.51430  0.19660  Biso   1.000  H
  H168     1.0000 0.60320  0.51430  0.30340  Biso   1.000  H
  H169     1.0000 0.05670  0.05960  0.80060  Biso   1.000  H
  H170     1.0000 0.94330  0.05960  0.69940  Biso   1.000  H
  H171     1.0000 0.55670  0.55960  0.80060  Biso   1.000  H
  H172     1.0000 0.44330  0.55960  0.69940  Biso   1.000  H
  H173     1.0000 0.94330  0.94040  0.19940  Biso   1.000  H
  H174     1.0000 0.05670  0.94040  0.30060  Biso   1.000  H
  H175     1.0000 0.44330  0.44040  0.19940  Biso   1.000  H
  H176     1.0000 0.55670  0.44040  0.30060  Biso   1.000  H
  C177     1.0000 0.12729  0.02010  0.00527  Biso   1.000  C
  C178     1.0000 0.87271  0.02010  0.49473  Biso   1.000  C
  C179     1.0000 0.62729  0.52010  0.00527  Biso   1.000  C
  C180     1.0000 0.37271  0.52010  0.49473  Biso   1.000  C
  C181     1.0000 0.87271  0.97990  0.99473  Biso   1.000  C
  C182     1.0000 0.12729  0.97990  0.50527  Biso   1.000  C
  C183     1.0000 0.37271  0.47990  0.99473  Biso   1.000  C
  C184     1.0000 0.62729  0.47990  0.50527  Biso   1.000  C
  H177     1.0000 0.09570  0.06970  0.98650  Biso   1.000  H
  H178     1.0000 0.90430  0.06970  0.51350  Biso   1.000  H
  H179     1.0000 0.59570  0.56970  0.98650  Biso   1.000  H
  H180     1.0000 0.40430  0.56970  0.51350  Biso   1.000  H
  H181     1.0000 0.90430  0.93030  0.01350  Biso   1.000  H
  H182     1.0000 0.09570  0.93030  0.48650  Biso   1.000  H
  H183     1.0000 0.40430  0.43030  0.01350  Biso   1.000  H
  H184     1.0000 0.59570  0.43030  0.48650  Biso   1.000  H
  F97      1.0000 0.06560  0.50510  0.00130  Biso   1.000  F
  F98      1.0000 0.93440  0.50510  0.49870  Biso   1.000  F
  F99      1.0000 0.56560  0.00510  0.00130  Biso   1.000  F
  F100     1.0000 0.43440  0.00510  0.49870  Biso   1.000  F
  F101     1.0000 0.93440  0.49490  0.99870  Biso   1.000  F
  F102     1.0000 0.06560  0.49490  0.50130  Biso   1.000  F
  F103     1.0000 0.43440  0.99490  0.99870  Biso   1.000  F
  F104     1.0000 0.56560  0.99490  0.50130  Biso   1.000  F
  F105     1.0000 0.07400  0.66050  0.95500  Biso   1.000  F
  F106     1.0000 0.92600  0.66050  0.54500  Biso   1.000  F
  F107     1.0000 0.57400  0.16050  0.95500  Biso   1.000  F
  F108     1.0000 0.42600  0.16050  0.54500  Biso   1.000  F
  F109     1.0000 0.92600  0.33950  0.04500  Biso   1.000  F
  F110     1.0000 0.07400  0.33950  0.45500  Biso   1.000  F
  F111     1.0000 0.42600  0.83950  0.04500  Biso   1.000  F
  F112     1.0000 0.57400  0.83950  0.45500  Biso   1.000  F
  F113     1.0000 0.13180  0.63350  0.05110  Biso   1.000  F
  F114     1.0000 0.86820  0.63350  0.44890  Biso   1.000  F
  F115     1.0000 0.63180  0.13350  0.05110  Biso   1.000  F
  F116     1.0000 0.36820  0.13350  0.44890  Biso   1.000  F
  F117     1.0000 0.86820  0.36650  0.94890  Biso   1.000  F
  F118     1.0000 0.13180  0.36650  0.55110  Biso   1.000  F
  F119     1.0000 0.36820  0.86650  0.94890  Biso   1.000  F
  F120     1.0000 0.63180  0.86650  0.55110  Biso   1.000  F
  F121     1.0000 0.04010  0.79590  0.18470  Biso   1.000  F
  F122     1.0000 0.95990  0.79590  0.31530  Biso   1.000  F
  F123     1.0000 0.54010  0.29590  0.18470  Biso   1.000  F
  F124     1.0000 0.45990  0.29590  0.31530  Biso   1.000  F
  F125     1.0000 0.95990  0.20410  0.81530  Biso   1.000  F
  F126     1.0000 0.04010  0.20410  0.68470  Biso   1.000  F
  F127     1.0000 0.45990  0.70410  0.81530  Biso   1.000  F
  F128     1.0000 0.54010  0.70410  0.68470  Biso   1.000  F
  F129     1.0000 0.96390  0.71910  0.11620  Biso   1.000  F
  F130     1.0000 0.03610  0.71910  0.38380  Biso   1.000  F
  F131     1.0000 0.46390  0.21910  0.11620  Biso   1.000  F
  F132     1.0000 0.53610  0.21910  0.38380  Biso   1.000  F
  F133     1.0000 0.03610  0.28090  0.88380  Biso   1.000  F
  F134     1.0000 0.96390  0.28090  0.61620  Biso   1.000  F
  F135     1.0000 0.53610  0.78090  0.88380  Biso   1.000  F
  F136     1.0000 0.46390  0.78090  0.61620  Biso   1.000  F
  F137     1.0000 0.03060  0.59530  0.15250  Biso   1.000  F
  F138     1.0000 0.96940  0.59530  0.34750  Biso   1.000  F
  F139     1.0000 0.53060  0.09530  0.15250  Biso   1.000  F
  F140     1.0000 0.46940  0.09530  0.34750  Biso   1.000  F
  F141     1.0000 0.96940  0.40470  0.84750  Biso   1.000  F
  F142     1.0000 0.03060  0.40470  0.65250  Biso   1.000  F
  F143     1.0000 0.46940  0.90470  0.84750  Biso   1.000  F
  F144     1.0000 0.53060  0.90470  0.65250  Biso   1.000  F
  F145     1.0000 0.28630  0.24920  0.96470  Biso   1.000  F
  F146     1.0000 0.71370  0.24920  0.53530  Biso   1.000  F
  F147     1.0000 0.78630  0.74920  0.96470  Biso   1.000  F
  F148     1.0000 0.21370  0.74920  0.53530  Biso   1.000  F
  F149     1.0000 0.71370  0.75080  0.03530  Biso   1.000  F
  F150     1.0000 0.28630  0.75080  0.46470  Biso   1.000  F
  F151     1.0000 0.21370  0.25080  0.03530  Biso   1.000  F
  F152     1.0000 0.78630  0.25080  0.46470  Biso   1.000  F
  F153     1.0000 0.22440  0.14510  0.89490  Biso   1.000  F
  F154     1.0000 0.77560  0.14510  0.60510  Biso   1.000  F
  F155     1.0000 0.72440  0.64510  0.89490  Biso   1.000  F
  F156     1.0000 0.27560  0.64510  0.60510  Biso   1.000  F
  F157     1.0000 0.77560  0.85490  0.10510  Biso   1.000  F
  F158     1.0000 0.22440  0.85490  0.39490  Biso   1.000  F
  F159     1.0000 0.27560  0.35490  0.10510  Biso   1.000  F
  F160     1.0000 0.72440  0.35490  0.39490  Biso   1.000  F
  F161     1.0000 0.29500  0.11060  0.91100  Biso   1.000  F
  F162     1.0000 0.70500  0.11060  0.58900  Biso   1.000  F
  F163     1.0000 0.79500  0.61060  0.91100  Biso   1.000  F
  F164     1.0000 0.20500  0.61060  0.58900  Biso   1.000  F
  F165     1.0000 0.70500  0.88940  0.08900  Biso   1.000  F
  F166     1.0000 0.29500  0.88940  0.41100  Biso   1.000  F
  F167     1.0000 0.20500  0.38940  0.08900  Biso   1.000  F
  F168     1.0000 0.79500  0.38940  0.41100  Biso   1.000  F
  F169     1.0000 0.36570  0.89850  0.19680  Biso   1.000  F
  F170     1.0000 0.63430  0.89850  0.30320  Biso   1.000  F
  F171     1.0000 0.86570  0.39850  0.19680  Biso   1.000  F
  F172     1.0000 0.13430  0.39850  0.30320  Biso   1.000  F
  F173     1.0000 0.63430  0.10150  0.80320  Biso   1.000  F
  F174     1.0000 0.36570  0.10150  0.69680  Biso   1.000  F
  F175     1.0000 0.13430  0.60150  0.80320  Biso   1.000  F
  F176     1.0000 0.86570  0.60150  0.69680  Biso   1.000  F
  F177     1.0000 0.41600  0.95200  0.17480  Biso   1.000  F
  F178     1.0000 0.58400  0.95200  0.32520  Biso   1.000  F
  F179     1.0000 0.91600  0.45200  0.17480  Biso   1.000  F
  F180     1.0000 0.08400  0.45200  0.32520  Biso   1.000  F
  F181     1.0000 0.58400  0.04800  0.82520  Biso   1.000  F
  F182     1.0000 0.41600  0.04800  0.67480  Biso   1.000  F
  F183     1.0000 0.08400  0.54800  0.82520  Biso   1.000  F
  F184     1.0000 0.91600  0.54800  0.67480  Biso   1.000  F
  F185     1.0000 0.36850  0.10030  0.17240  Biso   1.000  F
  F186     1.0000 0.63150  0.10030  0.32760  Biso   1.000  F
  F187     1.0000 0.86850  0.60030  0.17240  Biso   1.000  F
  F188     1.0000 0.13150  0.60030  0.32760  Biso   1.000  F
  F189     1.0000 0.63150  0.89970  0.82760  Biso   1.000  F
  F190     1.0000 0.36850  0.89970  0.67240  Biso   1.000  F
  F191     1.0000 0.13150  0.39970  0.82760  Biso   1.000  F
  F192     1.0000 0.86850  0.39970  0.67240  Biso   1.000  F
  C185     1.0000 0.12430  0.97010  0.90820  Biso   1.000  C
  C186     1.0000 0.87570  0.97010  0.59180  Biso   1.000  C
  C187     1.0000 0.62430  0.47010  0.90820  Biso   1.000  C
  C188     1.0000 0.37570  0.47010  0.59180  Biso   1.000  C
  C189     1.0000 0.87570  0.02990  0.09180  Biso   1.000  C
  C190     1.0000 0.12430  0.02990  0.40820  Biso   1.000  C
  C191     1.0000 0.37570  0.52990  0.09180  Biso   1.000  C
  C192     1.0000 0.62430  0.52990  0.40820  Biso   1.000  C
  H185     1.0000 0.12550  0.06750  0.89890  Biso   1.000  H
  H186     1.0000 0.87450  0.06750  0.60110  Biso   1.000  H
  H187     1.0000 0.62550  0.56750  0.89890  Biso   1.000  H
  H188     1.0000 0.37450  0.56750  0.60110  Biso   1.000  H
  H189     1.0000 0.87450  0.93250  0.10110  Biso   1.000  H
  H190     1.0000 0.12550  0.93250  0.39890  Biso   1.000  H
  H191     1.0000 0.37450  0.43250  0.10110  Biso   1.000  H
  H192     1.0000 0.62550  0.43250  0.39890  Biso   1.000  H
  H193     1.0000 0.14720  0.91840  0.90080  Biso   1.000  H
  H194     1.0000 0.85280  0.91840  0.59920  Biso   1.000  H
  H195     1.0000 0.64720  0.41840  0.90080  Biso   1.000  H
  H196     1.0000 0.35280  0.41840  0.59920  Biso   1.000  H
  H197     1.0000 0.85280  0.08160  0.09920  Biso   1.000  H
  H198     1.0000 0.14720  0.08160  0.40080  Biso   1.000  H
  H199     1.0000 0.35280  0.58160  0.09920  Biso   1.000  H
  H200     1.0000 0.64720  0.58160  0.40080  Biso   1.000  H
  C193     1.0000 0.07260  0.92100  0.86750  Biso   1.000  C
  C194     1.0000 0.92740  0.92100  0.63250  Biso   1.000  C
  C195     1.0000 0.57260  0.42100  0.86750  Biso   1.000  C
  C196     1.0000 0.42740  0.42100  0.63250  Biso   1.000  C
  C197     1.0000 0.92740  0.07900  0.13250  Biso   1.000  C
  C198     1.0000 0.07260  0.07900  0.36750  Biso   1.000  C
  C199     1.0000 0.42740  0.57900  0.13250  Biso   1.000  C
  C200     1.0000 0.57260  0.57900  0.36750  Biso   1.000  C
  H201     1.0000 0.04990  0.97500  0.87460  Biso   1.000  H
  H202     1.0000 0.95010  0.97500  0.62540  Biso   1.000  H
  H203     1.0000 0.54990  0.47500  0.87460  Biso   1.000  H
  H204     1.0000 0.45010  0.47500  0.62540  Biso   1.000  H
  H205     1.0000 0.95010  0.02500  0.12540  Biso   1.000  H
  H206     1.0000 0.04990  0.02500  0.37460  Biso   1.000  H
  H207     1.0000 0.45010  0.52500  0.12540  Biso   1.000  H
  H208     1.0000 0.54990  0.52500  0.37460  Biso   1.000  H
  H209     1.0000 0.07150  0.82510  0.87810  Biso   1.000  H
  H210     1.0000 0.92850  0.82510  0.62190  Biso   1.000  H
  H211     1.0000 0.57150  0.32510  0.87810  Biso   1.000  H
  H212     1.0000 0.42850  0.32510  0.62190  Biso   1.000  H
  H213     1.0000 0.92850  0.17490  0.12190  Biso   1.000  H
  H214     1.0000 0.07150  0.17490  0.37810  Biso   1.000  H
  H215     1.0000 0.42850  0.67490  0.12190  Biso   1.000  H
  H216     1.0000 0.57150  0.67490  0.37810  Biso   1.000  H
  C201     1.0000 0.05000  0.92800  0.79900  Biso   1.000  C
  C202     1.0000 0.95000  0.92800  0.70100  Biso   1.000  C
  C203     1.0000 0.55000  0.42800  0.79900  Biso   1.000  C
  C204     1.0000 0.45000  0.42800  0.70100  Biso   1.000  C
  C205     1.0000 0.95000  0.07200  0.20100  Biso   1.000  C
  C206     1.0000 0.05000  0.07200  0.29900  Biso   1.000  C
  C207     1.0000 0.45000  0.57200  0.20100  Biso   1.000  C
  C208     1.0000 0.55000  0.57200  0.29900  Biso   1.000  C
  H217     1.0000 0.01440  0.89260  0.77500  Biso   1.000  H
  H218     1.0000 0.98560  0.89260  0.72500  Biso   1.000  H
  H219     1.0000 0.51440  0.39260  0.77500  Biso   1.000  H
  H220     1.0000 0.48560  0.39260  0.72500  Biso   1.000  H
  H221     1.0000 0.98560  0.10740  0.22500  Biso   1.000  H
  H222     1.0000 0.01440  0.10740  0.27500  Biso   1.000  H
  H223     1.0000 0.48560  0.60740  0.22500  Biso   1.000  H
  H224     1.0000 0.51440  0.60740  0.27500  Biso   1.000  H
  H225     1.0000 0.04970  0.02350  0.78740  Biso   1.000  H
  H226     1.0000 0.95030  0.02350  0.71260  Biso   1.000  H
  H227     1.0000 0.54970  0.52350  0.78740  Biso   1.000  H
  H228     1.0000 0.45030  0.52350  0.71260  Biso   1.000  H
  H229     1.0000 0.95030  0.97650  0.21260  Biso   1.000  H
  H230     1.0000 0.04970  0.97650  0.28740  Biso   1.000  H
  H231     1.0000 0.45030  0.47650  0.21260  Biso   1.000  H
  H232     1.0000 0.54970  0.47650  0.28740  Biso   1.000  H
  H233     1.0000 0.07130  0.87320  0.79090  Biso   1.000  H
  H234     1.0000 0.92870  0.87320  0.70910  Biso   1.000  H
  H235     1.0000 0.57130  0.37320  0.79090  Biso   1.000  H
  H236     1.0000 0.42870  0.37320  0.70910  Biso   1.000  H
  H237     1.0000 0.92870  0.12680  0.20910  Biso   1.000  H
  H238     1.0000 0.07130  0.12680  0.29090  Biso   1.000  H
  H239     1.0000 0.42870  0.62680  0.20910  Biso   1.000  H
  H240     1.0000 0.57130  0.62680  0.29090  Biso   1.000  H
