data_image0
_cell_length_a       30.4776
_cell_length_b       9.6557
_cell_length_c       25.804
_cell_angle_alpha    90
_cell_angle_beta     126.115
_cell_angle_gamma    90

_symmetry_space_group_name_H-M    "P 1"
_symmetry_int_tables_number       1

loop_
  _symmetry_equiv_pos_as_xyz
  'x, y, z'

loop_
  _atom_site_label
  _atom_site_occupancy
  _atom_site_fract_x
  _atom_site_fract_y
  _atom_site_fract_z
  _atom_site_thermal_displace_type
  _atom_site_B_iso_or_equiv
  _atom_site_type_symbol
  Cu1      1.0000 0.00000  0.00000  0.00000  Biso   1.000  Cu
  Cu2      1.0000 0.00000  0.00000  0.50000  Biso   1.000  Cu
  Cu3      1.0000 0.50000  0.50000  0.00000  Biso   1.000  Cu
  Cu4      1.0000 0.50000  0.50000  0.50000  Biso   1.000  Cu
  O1       1.0000 0.04019  0.84793  0.99484  Biso   1.000  O
  O2       1.0000 0.95981  0.84793  0.50516  Biso   1.000  O
  O3       1.0000 0.54019  0.34793  0.99484  Biso   1.000  O
  O4       1.0000 0.45981  0.34793  0.50516  Biso   1.000  O
  O5       1.0000 0.95981  0.15207  0.00516  Biso   1.000  O
  O6       1.0000 0.04019  0.15207  0.49484  Biso   1.000  O
  O7       1.0000 0.45981  0.65207  0.00516  Biso   1.000  O
  O8       1.0000 0.54019  0.65207  0.49484  Biso   1.000  O
  O9       1.0000 0.00970  0.90022  0.07760  Biso   1.000  O
  O10      1.0000 0.99030  0.90022  0.42240  Biso   1.000  O
  O11      1.0000 0.50970  0.40022  0.07760  Biso   1.000  O
  O12      1.0000 0.49030  0.40022  0.42240  Biso   1.000  O
  O13      1.0000 0.99030  0.09978  0.92240  Biso   1.000  O
  O14      1.0000 0.00970  0.09978  0.57760  Biso   1.000  O
  O15      1.0000 0.49030  0.59978  0.92240  Biso   1.000  O
  O16      1.0000 0.50970  0.59978  0.57760  Biso   1.000  O
  O17      1.0000 0.07084  0.13730  0.05302  Biso   1.000  O
  O18      1.0000 0.92916  0.13730  0.44698  Biso   1.000  O
  O19      1.0000 0.57084  0.63730  0.05302  Biso   1.000  O
  O20      1.0000 0.42916  0.63730  0.44698  Biso   1.000  O
  O21      1.0000 0.92916  0.86270  0.94698  Biso   1.000  O
  O22      1.0000 0.07084  0.86270  0.55302  Biso   1.000  O
  O23      1.0000 0.42916  0.36270  0.94698  Biso   1.000  O
  O24      1.0000 0.57084  0.36270  0.55302  Biso   1.000  O
  C1       1.0000 0.05166  0.73310  0.02266  Biso   1.000  C
  C2       1.0000 0.94834  0.73310  0.47734  Biso   1.000  C
  C3       1.0000 0.55166  0.23310  0.02266  Biso   1.000  C
  C4       1.0000 0.44834  0.23310  0.47734  Biso   1.000  C
  C5       1.0000 0.94834  0.26690  0.97734  Biso   1.000  C
  C6       1.0000 0.05166  0.26690  0.52266  Biso   1.000  C
  C7       1.0000 0.44834  0.76690  0.97734  Biso   1.000  C
  C8       1.0000 0.55166  0.76690  0.52266  Biso   1.000  C
  C9       1.0000 0.02440  0.77680  0.09228  Biso   1.000  C
  C10      1.0000 0.97560  0.77680  0.40772  Biso   1.000  C
  C11      1.0000 0.52440  0.27680  0.09228  Biso   1.000  C
  C12      1.0000 0.47560  0.27680  0.40772  Biso   1.000  C
  C13      1.0000 0.97560  0.22320  0.90772  Biso   1.000  C
  C14      1.0000 0.02440  0.22320  0.59228  Biso   1.000  C
  C15      1.0000 0.47560  0.72320  0.90772  Biso   1.000  C
  C16      1.0000 0.52440  0.72320  0.59228  Biso   1.000  C
  N1       1.0000 0.11665  0.11020  0.10790  Biso   1.000  N
  N2       1.0000 0.88335  0.11020  0.39210  Biso   1.000  N
  N3       1.0000 0.61665  0.61020  0.10790  Biso   1.000  N
  N4       1.0000 0.38335  0.61020  0.39210  Biso   1.000  N
  N5       1.0000 0.88335  0.88980  0.89210  Biso   1.000  N
  N6       1.0000 0.11665  0.88980  0.60790  Biso   1.000  N
  N7       1.0000 0.38335  0.38980  0.89210  Biso   1.000  N
  N8       1.0000 0.61665  0.38980  0.60790  Biso   1.000  N
  C17      1.0000 0.07578  0.63060  0.00081  Biso   1.000  C
  C18      1.0000 0.92422  0.63060  0.49919  Biso   1.000  C
  C19      1.0000 0.57578  0.13060  0.00081  Biso   1.000  C
  C20      1.0000 0.42422  0.13060  0.49919  Biso   1.000  C
  C21      1.0000 0.92422  0.36940  0.99919  Biso   1.000  C
  C22      1.0000 0.07578  0.36940  0.50081  Biso   1.000  C
  C23      1.0000 0.42422  0.86940  0.99919  Biso   1.000  C
  C24      1.0000 0.57578  0.86940  0.50081  Biso   1.000  C
  C25      1.0000 0.04538  0.69060  0.06903  Biso   1.000  C
  C26      1.0000 0.95462  0.69060  0.43097  Biso   1.000  C
  C27      1.0000 0.54538  0.19060  0.06903  Biso   1.000  C
  C28      1.0000 0.45462  0.19060  0.43097  Biso   1.000  C
  C29      1.0000 0.95462  0.30940  0.93097  Biso   1.000  C
  C30      1.0000 0.04538  0.30940  0.56903  Biso   1.000  C
  C31      1.0000 0.45462  0.80940  0.93097  Biso   1.000  C
  C32      1.0000 0.54538  0.80940  0.56903  Biso   1.000  C
  C33      1.0000 0.01704  0.71860  0.14149  Biso   1.000  C
  C34      1.0000 0.98296  0.71860  0.35851  Biso   1.000  C
  C35      1.0000 0.51704  0.21860  0.14149  Biso   1.000  C
  C36      1.0000 0.48296  0.21860  0.35851  Biso   1.000  C
  C37      1.0000 0.98296  0.28140  0.85851  Biso   1.000  C
  C38      1.0000 0.01704  0.28140  0.64149  Biso   1.000  C
  C39      1.0000 0.48296  0.78140  0.85851  Biso   1.000  C
  C40      1.0000 0.51704  0.78140  0.64149  Biso   1.000  C
  C41      1.0000 0.13077  0.17240  0.16944  Biso   1.000  C
  C42      1.0000 0.86923  0.17240  0.33056  Biso   1.000  C
  C43      1.0000 0.63077  0.67240  0.16944  Biso   1.000  C
  C44      1.0000 0.36923  0.67240  0.33056  Biso   1.000  C
  C45      1.0000 0.86923  0.82760  0.83056  Biso   1.000  C
  C46      1.0000 0.13077  0.82760  0.66944  Biso   1.000  C
  C47      1.0000 0.36923  0.32760  0.83056  Biso   1.000  C
  C48      1.0000 0.63077  0.32760  0.66944  Biso   1.000  C
  C49      1.0000 0.15942  0.05110  0.11534  Biso   1.000  C
  C50      1.0000 0.84058  0.05110  0.38466  Biso   1.000  C
  C51      1.0000 0.65942  0.55110  0.11534  Biso   1.000  C
  C52      1.0000 0.34058  0.55110  0.38466  Biso   1.000  C
  C53      1.0000 0.84058  0.94890  0.88466  Biso   1.000  C
  C54      1.0000 0.15942  0.94890  0.61534  Biso   1.000  C
  C55      1.0000 0.34058  0.44890  0.88466  Biso   1.000  C
  C56      1.0000 0.65942  0.44890  0.61534  Biso   1.000  C
  F1       1.0000 0.07710  0.50340  0.01860  Biso   1.000  F
  F2       1.0000 0.92290  0.50340  0.48140  Biso   1.000  F
  F3       1.0000 0.57710  0.00340  0.01860  Biso   1.000  F
  F4       1.0000 0.42290  0.00340  0.48140  Biso   1.000  F
  F5       1.0000 0.92290  0.49660  0.98140  Biso   1.000  F
  F6       1.0000 0.07710  0.49660  0.51860  Biso   1.000  F
  F7       1.0000 0.42290  0.99660  0.98140  Biso   1.000  F
  F8       1.0000 0.57710  0.99660  0.51860  Biso   1.000  F
  F9       1.0000 0.03790  0.61500  0.93260  Biso   1.000  F
  F10      1.0000 0.96210  0.61500  0.56740  Biso   1.000  F
  F11      1.0000 0.53790  0.11500  0.93260  Biso   1.000  F
  F12      1.0000 0.46210  0.11500  0.56740  Biso   1.000  F
  F13      1.0000 0.96210  0.38500  0.06740  Biso   1.000  F
  F14      1.0000 0.03790  0.38500  0.43260  Biso   1.000  F
  F15      1.0000 0.46210  0.88500  0.06740  Biso   1.000  F
  F16      1.0000 0.53790  0.88500  0.43260  Biso   1.000  F
  F17      1.0000 0.11820  0.66590  0.00870  Biso   1.000  F
  F18      1.0000 0.88180  0.66590  0.49130  Biso   1.000  F
  F19      1.0000 0.61820  0.16590  0.00870  Biso   1.000  F
  F20      1.0000 0.38180  0.16590  0.49130  Biso   1.000  F
  F21      1.0000 0.88180  0.33410  0.99130  Biso   1.000  F
  F22      1.0000 0.11820  0.33410  0.50870  Biso   1.000  F
  F23      1.0000 0.38180  0.83410  0.99130  Biso   1.000  F
  F24      1.0000 0.61820  0.83410  0.50870  Biso   1.000  F
  H1       1.0000 0.05570  0.60020  0.08540  Biso   1.000  H
  H2       1.0000 0.94430  0.60020  0.41460  Biso   1.000  H
  H3       1.0000 0.55570  0.10020  0.08540  Biso   1.000  H
  H4       1.0000 0.44430  0.10020  0.41460  Biso   1.000  H
  H5       1.0000 0.94430  0.39980  0.91460  Biso   1.000  H
  H6       1.0000 0.05570  0.39980  0.58540  Biso   1.000  H
  H7       1.0000 0.44430  0.89980  0.91460  Biso   1.000  H
  H8       1.0000 0.55570  0.89980  0.58540  Biso   1.000  H
  F25      1.0000 0.04480  0.60820  0.16900  Biso   1.000  F
  F26      1.0000 0.95520  0.60820  0.33100  Biso   1.000  F
  F27      1.0000 0.54480  0.10820  0.16900  Biso   1.000  F
  F28      1.0000 0.45520  0.10820  0.33100  Biso   1.000  F
  F29      1.0000 0.95520  0.39180  0.83100  Biso   1.000  F
  F30      1.0000 0.04480  0.39180  0.66900  Biso   1.000  F
  F31      1.0000 0.45520  0.89180  0.83100  Biso   1.000  F
  F32      1.0000 0.54480  0.89180  0.66900  Biso   1.000  F
  F33      1.0000 0.03450  0.82090  0.18780  Biso   1.000  F
  F34      1.0000 0.96550  0.82090  0.31220  Biso   1.000  F
  F35      1.0000 0.53450  0.32090  0.18780  Biso   1.000  F
  F36      1.0000 0.46550  0.32090  0.31220  Biso   1.000  F
  F37      1.0000 0.96550  0.17910  0.81220  Biso   1.000  F
  F38      1.0000 0.03450  0.17910  0.68780  Biso   1.000  F
  F39      1.0000 0.46550  0.67910  0.81220  Biso   1.000  F
  F40      1.0000 0.53450  0.67910  0.68780  Biso   1.000  F
  F41      1.0000 0.96670  0.69110  0.11320  Biso   1.000  F
  F42      1.0000 0.03330  0.69110  0.38680  Biso   1.000  F
  F43      1.0000 0.46670  0.19110  0.11320  Biso   1.000  F
  F44      1.0000 0.53330  0.19110  0.38680  Biso   1.000  F
  F45      1.0000 0.03330  0.30890  0.88680  Biso   1.000  F
  F46      1.0000 0.96670  0.30890  0.61320  Biso   1.000  F
  F47      1.0000 0.53330  0.80890  0.88680  Biso   1.000  F
  F48      1.0000 0.46670  0.80890  0.61320  Biso   1.000  F
  C57      1.0000 0.14518  0.32360  0.16859  Biso   1.000  C
  C58      1.0000 0.85482  0.32360  0.33141  Biso   1.000  C
  C59      1.0000 0.64518  0.82360  0.16859  Biso   1.000  C
  C60      1.0000 0.35482  0.82360  0.33141  Biso   1.000  C
  C61      1.0000 0.85482  0.67640  0.83141  Biso   1.000  C
  C62      1.0000 0.14518  0.67640  0.66859  Biso   1.000  C
  C63      1.0000 0.35482  0.17640  0.83141  Biso   1.000  C
  C64      1.0000 0.64518  0.17640  0.66859  Biso   1.000  C
  C65      1.0000 0.08261  0.16250  0.17271  Biso   1.000  C
  C66      1.0000 0.91739  0.16250  0.32729  Biso   1.000  C
  C67      1.0000 0.58261  0.66250  0.17271  Biso   1.000  C
  C68      1.0000 0.41739  0.66250  0.32729  Biso   1.000  C
  C69      1.0000 0.91739  0.83750  0.82729  Biso   1.000  C
  C70      1.0000 0.08261  0.83750  0.67271  Biso   1.000  C
  C71      1.0000 0.41739  0.33750  0.82729  Biso   1.000  C
  C72      1.0000 0.58261  0.33750  0.67271  Biso   1.000  C
  C73      1.0000 0.18026  0.08140  0.21810  Biso   1.000  C
  C74      1.0000 0.81974  0.08140  0.28190  Biso   1.000  C
  C75      1.0000 0.68026  0.58140  0.21810  Biso   1.000  C
  C76      1.0000 0.31974  0.58140  0.28190  Biso   1.000  C
  C77      1.0000 0.81974  0.91860  0.78190  Biso   1.000  C
  C78      1.0000 0.18026  0.91860  0.71810  Biso   1.000  C
  C79      1.0000 0.31974  0.41860  0.78190  Biso   1.000  C
  C80      1.0000 0.68026  0.41860  0.71810  Biso   1.000  C
  N9       1.0000 0.20023  0.04490  0.17877  Biso   1.000  N
  N10      1.0000 0.79977  0.04490  0.32123  Biso   1.000  N
  N11      1.0000 0.70023  0.54490  0.17877  Biso   1.000  N
  N12      1.0000 0.29977  0.54490  0.32123  Biso   1.000  N
  N13      1.0000 0.79977  0.95510  0.82123  Biso   1.000  N
  N14      1.0000 0.20023  0.95510  0.67877  Biso   1.000  N
  N15      1.0000 0.29977  0.45510  0.82123  Biso   1.000  N
  N16      1.0000 0.70023  0.45510  0.67877  Biso   1.000  N
  C81      1.0000 0.16222  0.00169  0.06497  Biso   1.000  C
  C82      1.0000 0.83778  0.00169  0.43503  Biso   1.000  C
  C83      1.0000 0.66222  0.50169  0.06497  Biso   1.000  C
  C84      1.0000 0.33778  0.50169  0.43503  Biso   1.000  C
  C85      1.0000 0.83778  0.99831  0.93503  Biso   1.000  C
  C86      1.0000 0.16222  0.99831  0.56497  Biso   1.000  C
  C87      1.0000 0.33778  0.49831  0.93503  Biso   1.000  C
  C88      1.0000 0.66222  0.49831  0.56497  Biso   1.000  C
  H9       1.0000 0.15470  0.36930  0.20740  Biso   1.000  H
  H10      1.0000 0.84530  0.36930  0.29260  Biso   1.000  H
  H11      1.0000 0.65470  0.86930  0.20740  Biso   1.000  H
  H12      1.0000 0.34530  0.86930  0.29260  Biso   1.000  H
  H13      1.0000 0.84530  0.63070  0.79260  Biso   1.000  H
  H14      1.0000 0.15470  0.63070  0.70740  Biso   1.000  H
  H15      1.0000 0.34530  0.13070  0.79260  Biso   1.000  H
  H16      1.0000 0.65470  0.13070  0.70740  Biso   1.000  H
  H17      1.0000 0.17580  0.32750  0.16620  Biso   1.000  H
  H18      1.0000 0.82420  0.32750  0.33380  Biso   1.000  H
  H19      1.0000 0.67580  0.82750  0.16620  Biso   1.000  H
  H20      1.0000 0.32420  0.82750  0.33380  Biso   1.000  H
  H21      1.0000 0.82420  0.67250  0.83380  Biso   1.000  H
  H22      1.0000 0.17580  0.67250  0.66620  Biso   1.000  H
  H23      1.0000 0.32420  0.17250  0.83380  Biso   1.000  H
  H24      1.0000 0.67580  0.17250  0.66620  Biso   1.000  H
  H25      1.0000 0.11420  0.36990  0.13150  Biso   1.000  H
  H26      1.0000 0.88580  0.36990  0.36850  Biso   1.000  H
  H27      1.0000 0.61420  0.86990  0.13150  Biso   1.000  H
  H28      1.0000 0.38580  0.86990  0.36850  Biso   1.000  H
  H29      1.0000 0.88580  0.63010  0.86850  Biso   1.000  H
  H30      1.0000 0.11420  0.63010  0.63150  Biso   1.000  H
  H31      1.0000 0.38580  0.13010  0.86850  Biso   1.000  H
  H32      1.0000 0.61420  0.13010  0.63150  Biso   1.000  H
  H33      1.0000 0.09230  0.20290  0.21260  Biso   1.000  H
  H34      1.0000 0.90770  0.20290  0.28740  Biso   1.000  H
  H35      1.0000 0.59230  0.70290  0.21260  Biso   1.000  H
  H36      1.0000 0.40770  0.70290  0.28740  Biso   1.000  H
  H37      1.0000 0.90770  0.79710  0.78740  Biso   1.000  H
  H38      1.0000 0.09230  0.79710  0.71260  Biso   1.000  H
  H39      1.0000 0.40770  0.29710  0.78740  Biso   1.000  H
  H40      1.0000 0.59230  0.29710  0.71260  Biso   1.000  H
  H41      1.0000 0.05200  0.21220  0.13680  Biso   1.000  H
  H42      1.0000 0.94800  0.21220  0.36320  Biso   1.000  H
  H43      1.0000 0.55200  0.71220  0.13680  Biso   1.000  H
  H44      1.0000 0.44800  0.71220  0.36320  Biso   1.000  H
  H45      1.0000 0.94800  0.78780  0.86320  Biso   1.000  H
  H46      1.0000 0.05200  0.78780  0.63680  Biso   1.000  H
  H47      1.0000 0.44800  0.28780  0.86320  Biso   1.000  H
  H48      1.0000 0.55200  0.28780  0.63680  Biso   1.000  H
  H49      1.0000 0.07290  0.06600  0.17080  Biso   1.000  H
  H50      1.0000 0.92710  0.06600  0.32920  Biso   1.000  H
  H51      1.0000 0.57290  0.56600  0.17080  Biso   1.000  H
  H52      1.0000 0.42710  0.56600  0.32920  Biso   1.000  H
  H53      1.0000 0.92710  0.93400  0.82920  Biso   1.000  H
  H54      1.0000 0.07290  0.93400  0.67080  Biso   1.000  H
  H55      1.0000 0.42710  0.43400  0.82920  Biso   1.000  H
  H56      1.0000 0.57290  0.43400  0.67080  Biso   1.000  H
  C89      1.0000 0.16508  0.94390  0.23304  Biso   1.000  C
  C90      1.0000 0.83492  0.94390  0.26696  Biso   1.000  C
  C91      1.0000 0.66508  0.44390  0.23304  Biso   1.000  C
  C92      1.0000 0.33492  0.44390  0.26696  Biso   1.000  C
  C93      1.0000 0.83492  0.05610  0.76696  Biso   1.000  C
  C94      1.0000 0.16508  0.05610  0.73304  Biso   1.000  C
  C95      1.0000 0.33492  0.55610  0.76696  Biso   1.000  C
  C96      1.0000 0.66508  0.55610  0.73304  Biso   1.000  C
  C97      1.0000 0.22505  0.15430  0.27989  Biso   1.000  C
  C98      1.0000 0.77495  0.15430  0.22011  Biso   1.000  C
  C99      1.0000 0.72505  0.65430  0.27989  Biso   1.000  C
  C100     1.0000 0.27495  0.65430  0.22011  Biso   1.000  C
  C101     1.0000 0.77495  0.84570  0.72011  Biso   1.000  C
  C102     1.0000 0.22505  0.84570  0.77989  Biso   1.000  C
  C103     1.0000 0.27495  0.34570  0.72011  Biso   1.000  C
  C104     1.0000 0.72505  0.34570  0.77989  Biso   1.000  C
  O25      1.0000 0.24744  0.99669  0.20319  Biso   1.000  O
  O26      1.0000 0.75256  0.99669  0.29681  Biso   1.000  O
  O27      1.0000 0.74744  0.49669  0.20319  Biso   1.000  O
  O28      1.0000 0.25256  0.49669  0.29681  Biso   1.000  O
  O29      1.0000 0.75256  0.00331  0.79681  Biso   1.000  O
  O30      1.0000 0.24744  0.00331  0.70319  Biso   1.000  O
  O31      1.0000 0.25256  0.50331  0.79681  Biso   1.000  O
  O32      1.0000 0.74744  0.50331  0.70319  Biso   1.000  O
  C105     1.0000 0.20299  0.92200  0.06934  Biso   1.000  C
  C106     1.0000 0.79701  0.92200  0.43066  Biso   1.000  C
  C107     1.0000 0.70299  0.42200  0.06934  Biso   1.000  C
  C108     1.0000 0.29701  0.42200  0.43066  Biso   1.000  C
  C109     1.0000 0.79701  0.07800  0.93066  Biso   1.000  C
  C110     1.0000 0.20299  0.07800  0.56934  Biso   1.000  C
  C111     1.0000 0.29701  0.57800  0.93066  Biso   1.000  C
  C112     1.0000 0.70299  0.57800  0.56934  Biso   1.000  C
  C113     1.0000 0.12407  0.02070  0.00004  Biso   1.000  C
  C114     1.0000 0.87593  0.02070  0.49996  Biso   1.000  C
  C115     1.0000 0.62407  0.52070  0.00004  Biso   1.000  C
  C116     1.0000 0.37593  0.52070  0.49996  Biso   1.000  C
  C117     1.0000 0.87593  0.97930  0.99996  Biso   1.000  C
  C118     1.0000 0.12407  0.97930  0.50004  Biso   1.000  C
  C119     1.0000 0.37593  0.47930  0.99996  Biso   1.000  C
  C120     1.0000 0.62407  0.47930  0.50004  Biso   1.000  C
  H57      1.0000 0.15180  0.96100  0.25860  Biso   1.000  H
  H58      1.0000 0.84820  0.96100  0.24140  Biso   1.000  H
  H59      1.0000 0.65180  0.46100  0.25860  Biso   1.000  H
  H60      1.0000 0.34820  0.46100  0.24140  Biso   1.000  H
  H61      1.0000 0.84820  0.03900  0.74140  Biso   1.000  H
  H62      1.0000 0.15180  0.03900  0.75860  Biso   1.000  H
  H63      1.0000 0.34820  0.53900  0.74140  Biso   1.000  H
  H64      1.0000 0.65180  0.53900  0.75860  Biso   1.000  H
  H65      1.0000 0.13700  0.89870  0.19330  Biso   1.000  H
  H66      1.0000 0.86300  0.89870  0.30670  Biso   1.000  H
  H67      1.0000 0.63700  0.39870  0.19330  Biso   1.000  H
  H68      1.0000 0.36300  0.39870  0.30670  Biso   1.000  H
  H69      1.0000 0.86300  0.10130  0.80670  Biso   1.000  H
  H70      1.0000 0.13700  0.10130  0.69330  Biso   1.000  H
  H71      1.0000 0.36300  0.60130  0.80670  Biso   1.000  H
  H72      1.0000 0.63700  0.60130  0.69330  Biso   1.000  H
  H73      1.0000 0.19690  0.88460  0.25680  Biso   1.000  H
  H74      1.0000 0.80310  0.88460  0.24320  Biso   1.000  H
  H75      1.0000 0.69690  0.38460  0.25680  Biso   1.000  H
  H76      1.0000 0.30310  0.38460  0.24320  Biso   1.000  H
  H77      1.0000 0.80310  0.11540  0.74320  Biso   1.000  H
  H78      1.0000 0.19690  0.11540  0.75680  Biso   1.000  H
  H79      1.0000 0.30310  0.61540  0.74320  Biso   1.000  H
  H80      1.0000 0.69690  0.61540  0.75680  Biso   1.000  H
  H81      1.0000 0.21170  0.17740  0.30490  Biso   1.000  H
  H82      1.0000 0.78830  0.17740  0.19510  Biso   1.000  H
  H83      1.0000 0.71170  0.67740  0.30490  Biso   1.000  H
  H84      1.0000 0.28830  0.67740  0.19510  Biso   1.000  H
  H85      1.0000 0.78830  0.82260  0.69510  Biso   1.000  H
  H86      1.0000 0.21170  0.82260  0.80490  Biso   1.000  H
  H87      1.0000 0.28830  0.32260  0.69510  Biso   1.000  H
  H88      1.0000 0.71170  0.32260  0.80490  Biso   1.000  H
  H89      1.0000 0.25620  0.09350  0.30460  Biso   1.000  H
  H90      1.0000 0.74380  0.09350  0.19540  Biso   1.000  H
  H91      1.0000 0.75620  0.59350  0.30460  Biso   1.000  H
  H92      1.0000 0.24380  0.59350  0.19540  Biso   1.000  H
  H93      1.0000 0.74380  0.90650  0.69540  Biso   1.000  H
  H94      1.0000 0.25620  0.90650  0.80460  Biso   1.000  H
  H95      1.0000 0.24380  0.40650  0.69540  Biso   1.000  H
  H96      1.0000 0.75620  0.40650  0.80460  Biso   1.000  H
  H97      1.0000 0.23560  0.23850  0.26930  Biso   1.000  H
  H98      1.0000 0.76440  0.23850  0.23070  Biso   1.000  H
  H99      1.0000 0.73560  0.73850  0.26930  Biso   1.000  H
  H100     1.0000 0.26440  0.73850  0.23070  Biso   1.000  H
  H101     1.0000 0.76440  0.76150  0.73070  Biso   1.000  H
  H102     1.0000 0.23560  0.76150  0.76930  Biso   1.000  H
  H103     1.0000 0.26440  0.26150  0.73070  Biso   1.000  H
  H104     1.0000 0.73560  0.26150  0.76930  Biso   1.000  H
  H105     1.0000 0.23480  0.89200  0.10820  Biso   1.000  H
  H106     1.0000 0.76520  0.89200  0.39180  Biso   1.000  H
  H107     1.0000 0.73480  0.39200  0.10820  Biso   1.000  H
  H108     1.0000 0.26520  0.39200  0.39180  Biso   1.000  H
  H109     1.0000 0.76520  0.10800  0.89180  Biso   1.000  H
  H110     1.0000 0.23480  0.10800  0.60820  Biso   1.000  H
  H111     1.0000 0.26520  0.60800  0.89180  Biso   1.000  H
  H112     1.0000 0.73480  0.60800  0.60820  Biso   1.000  H
  N17      1.0000 0.19104  0.89453  0.01234  Biso   1.000  N
  N18      1.0000 0.80896  0.89453  0.48766  Biso   1.000  N
  N19      1.0000 0.69104  0.39453  0.01234  Biso   1.000  N
  N20      1.0000 0.30896  0.39453  0.48766  Biso   1.000  N
  N21      1.0000 0.80896  0.10547  0.98766  Biso   1.000  N
  N22      1.0000 0.19104  0.10547  0.51234  Biso   1.000  N
  N23      1.0000 0.30896  0.60547  0.98766  Biso   1.000  N
  N24      1.0000 0.69104  0.60547  0.51234  Biso   1.000  N
  N25      1.0000 0.14208  0.95630  0.97043  Biso   1.000  N
  N26      1.0000 0.85792  0.95630  0.52957  Biso   1.000  N
  N27      1.0000 0.64208  0.45630  0.97043  Biso   1.000  N
  N28      1.0000 0.35792  0.45630  0.52957  Biso   1.000  N
  N29      1.0000 0.85792  0.04370  0.02957  Biso   1.000  N
  N30      1.0000 0.14208  0.04370  0.47043  Biso   1.000  N
  N31      1.0000 0.35792  0.54370  0.02957  Biso   1.000  N
  N32      1.0000 0.64208  0.54370  0.47043  Biso   1.000  N
  H113     1.0000 0.09130  0.07010  0.98030  Biso   1.000  H
  H114     1.0000 0.90870  0.07010  0.51970  Biso   1.000  H
  H115     1.0000 0.59130  0.57010  0.98030  Biso   1.000  H
  H116     1.0000 0.40870  0.57010  0.51970  Biso   1.000  H
  H117     1.0000 0.90870  0.92990  0.01970  Biso   1.000  H
  H118     1.0000 0.09130  0.92990  0.48030  Biso   1.000  H
  H119     1.0000 0.40870  0.42990  0.01970  Biso   1.000  H
  H120     1.0000 0.59130  0.42990  0.48030  Biso   1.000  H
  Cu5      1.0000 0.25000  0.75000  0.00000  Biso   1.000  Cu
  Cu6      1.0000 0.75000  0.75000  0.50000  Biso   1.000  Cu
  Cu7      1.0000 0.75000  0.25000  0.00000  Biso   1.000  Cu
  Cu8      1.0000 0.25000  0.25000  0.50000  Biso   1.000  Cu
  C121     1.0000 0.12380  0.97790  0.90590  Biso   1.000  C
  C122     1.0000 0.87620  0.97790  0.59410  Biso   1.000  C
  C123     1.0000 0.62380  0.47790  0.90590  Biso   1.000  C
  C124     1.0000 0.37620  0.47790  0.59410  Biso   1.000  C
  C125     1.0000 0.87620  0.02210  0.09410  Biso   1.000  C
  C126     1.0000 0.12380  0.02210  0.40590  Biso   1.000  C
  C127     1.0000 0.37620  0.52210  0.09410  Biso   1.000  C
  C128     1.0000 0.62380  0.52210  0.40590  Biso   1.000  C
  O33      1.0000 0.25767  0.90718  0.95747  Biso   1.000  O
  O34      1.0000 0.74233  0.90718  0.54253  Biso   1.000  O
  O35      1.0000 0.75767  0.40718  0.95747  Biso   1.000  O
  O36      1.0000 0.24233  0.40718  0.54253  Biso   1.000  O
  O37      1.0000 0.74233  0.09282  0.04253  Biso   1.000  O
  O38      1.0000 0.25767  0.09282  0.45747  Biso   1.000  O
  O39      1.0000 0.24233  0.59282  0.04253  Biso   1.000  O
  O40      1.0000 0.75767  0.59282  0.45747  Biso   1.000  O
  O41      1.0000 0.30954  0.81689  0.08560  Biso   1.000  O
  O42      1.0000 0.69046  0.81689  0.41440  Biso   1.000  O
  O43      1.0000 0.80954  0.31689  0.08560  Biso   1.000  O
  O44      1.0000 0.19046  0.31689  0.41440  Biso   1.000  O
  O45      1.0000 0.69046  0.18311  0.91440  Biso   1.000  O
  O46      1.0000 0.30954  0.18311  0.58560  Biso   1.000  O
  O47      1.0000 0.19046  0.68311  0.91440  Biso   1.000  O
  O48      1.0000 0.80954  0.68311  0.58560  Biso   1.000  O
  H121     1.0000 0.14950  0.93790  0.89890  Biso   1.000  H
  H122     1.0000 0.85050  0.93790  0.60110  Biso   1.000  H
  H123     1.0000 0.64950  0.43790  0.89890  Biso   1.000  H
  H124     1.0000 0.35050  0.43790  0.60110  Biso   1.000  H
  H125     1.0000 0.85050  0.06210  0.10110  Biso   1.000  H
  H126     1.0000 0.14950  0.06210  0.39890  Biso   1.000  H
  H127     1.0000 0.35050  0.56210  0.10110  Biso   1.000  H
  H128     1.0000 0.64950  0.56210  0.39890  Biso   1.000  H
  H129     1.0000 0.12010  0.07710  0.89600  Biso   1.000  H
  H130     1.0000 0.87990  0.07710  0.60400  Biso   1.000  H
  H131     1.0000 0.62010  0.57710  0.89600  Biso   1.000  H
  H132     1.0000 0.37990  0.57710  0.60400  Biso   1.000  H
  H133     1.0000 0.87990  0.92290  0.10400  Biso   1.000  H
  H134     1.0000 0.12010  0.92290  0.39600  Biso   1.000  H
  H135     1.0000 0.37990  0.42290  0.10400  Biso   1.000  H
  H136     1.0000 0.62010  0.42290  0.39600  Biso   1.000  H
  C129     1.0000 0.06660  0.90250  0.86230  Biso   1.000  C
  C130     1.0000 0.93340  0.90250  0.63770  Biso   1.000  C
  C131     1.0000 0.56660  0.40250  0.86230  Biso   1.000  C
  C132     1.0000 0.43340  0.40250  0.63770  Biso   1.000  C
  C133     1.0000 0.93340  0.09750  0.13770  Biso   1.000  C
  C134     1.0000 0.06660  0.09750  0.36230  Biso   1.000  C
  C135     1.0000 0.43340  0.59750  0.13770  Biso   1.000  C
  C136     1.0000 0.56660  0.59750  0.36230  Biso   1.000  C
  C137     1.0000 0.28753  0.00910  0.98674  Biso   1.000  C
  C138     1.0000 0.71247  0.00910  0.51326  Biso   1.000  C
  C139     1.0000 0.78753  0.50910  0.98674  Biso   1.000  C
  C140     1.0000 0.21247  0.50910  0.51326  Biso   1.000  C
  C141     1.0000 0.71247  0.99090  0.01326  Biso   1.000  C
  C142     1.0000 0.28753  0.99090  0.48674  Biso   1.000  C
  C143     1.0000 0.21247  0.49090  0.01326  Biso   1.000  C
  C144     1.0000 0.78753  0.49090  0.48674  Biso   1.000  C
  C145     1.0000 0.33275  0.93080  0.09612  Biso   1.000  C
  C146     1.0000 0.66725  0.93080  0.40388  Biso   1.000  C
  C147     1.0000 0.83275  0.43080  0.09612  Biso   1.000  C
  C148     1.0000 0.16725  0.43080  0.40388  Biso   1.000  C
  C149     1.0000 0.66725  0.06920  0.90388  Biso   1.000  C
  C150     1.0000 0.33275  0.06920  0.59612  Biso   1.000  C
  C151     1.0000 0.16725  0.56920  0.90388  Biso   1.000  C
  C152     1.0000 0.83275  0.56920  0.59612  Biso   1.000  C
  H137     1.0000 0.07140  0.80330  0.87220  Biso   1.000  H
  H138     1.0000 0.92860  0.80330  0.62780  Biso   1.000  H
  H139     1.0000 0.57140  0.30330  0.87220  Biso   1.000  H
  H140     1.0000 0.42860  0.30330  0.62780  Biso   1.000  H
  H141     1.0000 0.92860  0.19670  0.12780  Biso   1.000  H
  H142     1.0000 0.07140  0.19670  0.37220  Biso   1.000  H
  H143     1.0000 0.42860  0.69670  0.12780  Biso   1.000  H
  H144     1.0000 0.57140  0.69670  0.37220  Biso   1.000  H
  H145     1.0000 0.04240  0.93950  0.87220  Biso   1.000  H
  H146     1.0000 0.95760  0.93950  0.62780  Biso   1.000  H
  H147     1.0000 0.54240  0.43950  0.87220  Biso   1.000  H
  H148     1.0000 0.45760  0.43950  0.62780  Biso   1.000  H
  H149     1.0000 0.95760  0.06050  0.12780  Biso   1.000  H
  H150     1.0000 0.04240  0.06050  0.37220  Biso   1.000  H
  H151     1.0000 0.45760  0.56050  0.12780  Biso   1.000  H
  H152     1.0000 0.54240  0.56050  0.37220  Biso   1.000  H
  C153     1.0000 0.04060  0.92200  0.79180  Biso   1.000  C
  C154     1.0000 0.95940  0.92200  0.70820  Biso   1.000  C
  C155     1.0000 0.54060  0.42200  0.79180  Biso   1.000  C
  C156     1.0000 0.45940  0.42200  0.70820  Biso   1.000  C
  C157     1.0000 0.95940  0.07800  0.20820  Biso   1.000  C
  C158     1.0000 0.04060  0.07800  0.29180  Biso   1.000  C
  C159     1.0000 0.45940  0.57800  0.20820  Biso   1.000  C
  C160     1.0000 0.54060  0.57800  0.29180  Biso   1.000  C
  C161     1.0000 0.28100  0.12780  0.94305  Biso   1.000  C
  C162     1.0000 0.71900  0.12780  0.55695  Biso   1.000  C
  C163     1.0000 0.78100  0.62780  0.94305  Biso   1.000  C
  C164     1.0000 0.21900  0.62780  0.55695  Biso   1.000  C
  C165     1.0000 0.71900  0.87220  0.05695  Biso   1.000  C
  C166     1.0000 0.28100  0.87220  0.44305  Biso   1.000  C
  C167     1.0000 0.21900  0.37220  0.05695  Biso   1.000  C
  C168     1.0000 0.78100  0.37220  0.44305  Biso   1.000  C
  C169     1.0000 0.32458  0.02780  0.05207  Biso   1.000  C
  C170     1.0000 0.67542  0.02780  0.44793  Biso   1.000  C
  C171     1.0000 0.82458  0.52780  0.05207  Biso   1.000  C
  C172     1.0000 0.17542  0.52780  0.44793  Biso   1.000  C
  C173     1.0000 0.67542  0.97220  0.94793  Biso   1.000  C
  C174     1.0000 0.32458  0.97220  0.55207  Biso   1.000  C
  C175     1.0000 0.17542  0.47220  0.94793  Biso   1.000  C
  C176     1.0000 0.82458  0.47220  0.55207  Biso   1.000  C
  C177     1.0000 0.37466  0.96180  0.16786  Biso   1.000  C
  C178     1.0000 0.62534  0.96180  0.33214  Biso   1.000  C
  C179     1.0000 0.87466  0.46180  0.16786  Biso   1.000  C
  C180     1.0000 0.12534  0.46180  0.33214  Biso   1.000  C
  C181     1.0000 0.62534  0.03820  0.83214  Biso   1.000  C
  C182     1.0000 0.37466  0.03820  0.66786  Biso   1.000  C
  C183     1.0000 0.12534  0.53820  0.83214  Biso   1.000  C
  C184     1.0000 0.87466  0.53820  0.66786  Biso   1.000  C
  H153     1.0000 0.00580  0.87460  0.76690  Biso   1.000  H
  H154     1.0000 0.99420  0.87460  0.73310  Biso   1.000  H
  H155     1.0000 0.50580  0.37460  0.76690  Biso   1.000  H
  H156     1.0000 0.49420  0.37460  0.73310  Biso   1.000  H
  H157     1.0000 0.99420  0.12540  0.23310  Biso   1.000  H
  H158     1.0000 0.00580  0.12540  0.26690  Biso   1.000  H
  H159     1.0000 0.49420  0.62540  0.23310  Biso   1.000  H
  H160     1.0000 0.50580  0.62540  0.26690  Biso   1.000  H
  H161     1.0000 0.03510  0.02000  0.78160  Biso   1.000  H
  H162     1.0000 0.96490  0.02000  0.71840  Biso   1.000  H
  H163     1.0000 0.53510  0.52000  0.78160  Biso   1.000  H
  H164     1.0000 0.46490  0.52000  0.71840  Biso   1.000  H
  H165     1.0000 0.96490  0.98000  0.21840  Biso   1.000  H
  H166     1.0000 0.03510  0.98000  0.28160  Biso   1.000  H
  H167     1.0000 0.46490  0.48000  0.21840  Biso   1.000  H
  H168     1.0000 0.53510  0.48000  0.28160  Biso   1.000  H
  H169     1.0000 0.06410  0.88390  0.78160  Biso   1.000  H
  H170     1.0000 0.93590  0.88390  0.71840  Biso   1.000  H
  H171     1.0000 0.56410  0.38390  0.78160  Biso   1.000  H
  H172     1.0000 0.43590  0.38390  0.71840  Biso   1.000  H
  H173     1.0000 0.93590  0.11610  0.21840  Biso   1.000  H
  H174     1.0000 0.06410  0.11610  0.28160  Biso   1.000  H
  H175     1.0000 0.43590  0.61610  0.21840  Biso   1.000  H
  H176     1.0000 0.56410  0.61610  0.28160  Biso   1.000  H
  F49      1.0000 0.33889  0.16500  0.96777  Biso   1.000  F
  F50      1.0000 0.66111  0.16500  0.53223  Biso   1.000  F
  F51      1.0000 0.83889  0.66500  0.96777  Biso   1.000  F
  F52      1.0000 0.16111  0.66500  0.53223  Biso   1.000  F
  F53      1.0000 0.66111  0.83500  0.03223  Biso   1.000  F
  F54      1.0000 0.33889  0.83500  0.46777  Biso   1.000  F
  F55      1.0000 0.16111  0.33500  0.03223  Biso   1.000  F
  F56      1.0000 0.83889  0.33500  0.46777  Biso   1.000  F
  F57      1.0000 0.26900  0.23810  0.95510  Biso   1.000  F
  F58      1.0000 0.73100  0.23810  0.54490  Biso   1.000  F
  F59      1.0000 0.76900  0.73810  0.95510  Biso   1.000  F
  F60      1.0000 0.23100  0.73810  0.54490  Biso   1.000  F
  F61      1.0000 0.73100  0.76190  0.04490  Biso   1.000  F
  F62      1.0000 0.26900  0.76190  0.45510  Biso   1.000  F
  F63      1.0000 0.23100  0.26190  0.04490  Biso   1.000  F
  F64      1.0000 0.76900  0.26190  0.45510  Biso   1.000  F
  F65      1.0000 0.26500  0.08700  0.88990  Biso   1.000  F
  F66      1.0000 0.73500  0.08700  0.61010  Biso   1.000  F
  F67      1.0000 0.76500  0.58700  0.88990  Biso   1.000  F
  F68      1.0000 0.23500  0.58700  0.61010  Biso   1.000  F
  F69      1.0000 0.73500  0.91300  0.11010  Biso   1.000  F
  F70      1.0000 0.26500  0.91300  0.38990  Biso   1.000  F
  F71      1.0000 0.23500  0.41300  0.11010  Biso   1.000  F
  F72      1.0000 0.76500  0.41300  0.38990  Biso   1.000  F
  H177     1.0000 0.34500  0.10990  0.06710  Biso   1.000  H
  H178     1.0000 0.65500  0.10990  0.43290  Biso   1.000  H
  H179     1.0000 0.84500  0.60990  0.06710  Biso   1.000  H
  H180     1.0000 0.15500  0.60990  0.43290  Biso   1.000  H
  H181     1.0000 0.65500  0.89010  0.93290  Biso   1.000  H
  H182     1.0000 0.34500  0.89010  0.56710  Biso   1.000  H
  H183     1.0000 0.15500  0.39010  0.93290  Biso   1.000  H
  H184     1.0000 0.84500  0.39010  0.56710  Biso   1.000  H
  F73      1.0000 0.35010  0.99690  0.19290  Biso   1.000  F
  F74      1.0000 0.64990  0.99690  0.30710  Biso   1.000  F
  F75      1.0000 0.85010  0.49690  0.19290  Biso   1.000  F
  F76      1.0000 0.14990  0.49690  0.30710  Biso   1.000  F
  F77      1.0000 0.64990  0.00310  0.80710  Biso   1.000  F
  F78      1.0000 0.35010  0.00310  0.69290  Biso   1.000  F
  F79      1.0000 0.14990  0.50310  0.80710  Biso   1.000  F
  F80      1.0000 0.85010  0.50310  0.69290  Biso   1.000  F
  F81      1.0000 0.40480  0.84850  0.19990  Biso   1.000  F
  F82      1.0000 0.59520  0.84850  0.30010  Biso   1.000  F
  F83      1.0000 0.90480  0.34850  0.19990  Biso   1.000  F
  F84      1.0000 0.09520  0.34850  0.30010  Biso   1.000  F
  F85      1.0000 0.59520  0.15150  0.80010  Biso   1.000  F
  F86      1.0000 0.40480  0.15150  0.69990  Biso   1.000  F
  F87      1.0000 0.09520  0.65150  0.80010  Biso   1.000  F
  F88      1.0000 0.90480  0.65150  0.69990  Biso   1.000  F
  F89      1.0000 0.41090  0.05030  0.18240  Biso   1.000  F
  F90      1.0000 0.58910  0.05030  0.31760  Biso   1.000  F
  F91      1.0000 0.91090  0.55030  0.18240  Biso   1.000  F
  F92      1.0000 0.08910  0.55030  0.31760  Biso   1.000  F
  F93      1.0000 0.58910  0.94970  0.81760  Biso   1.000  F
  F94      1.0000 0.41090  0.94970  0.68240  Biso   1.000  F
  F95      1.0000 0.08910  0.44970  0.81760  Biso   1.000  F
  F96      1.0000 0.91090  0.44970  0.68240  Biso   1.000  F
  F97      1.0000 0.06690  0.50350  0.00490  Biso   1.000  F
  F98      1.0000 0.93310  0.50350  0.49510  Biso   1.000  F
  F99      1.0000 0.56690  0.00350  0.00490  Biso   1.000  F
  F100     1.0000 0.43310  0.00350  0.49510  Biso   1.000  F
  F101     1.0000 0.93310  0.49650  0.99510  Biso   1.000  F
  F102     1.0000 0.06690  0.49650  0.50490  Biso   1.000  F
  F103     1.0000 0.43310  0.99650  0.99510  Biso   1.000  F
  F104     1.0000 0.56690  0.99650  0.50490  Biso   1.000  F
  F105     1.0000 0.07190  0.66180  0.95420  Biso   1.000  F
  F106     1.0000 0.92810  0.66180  0.54580  Biso   1.000  F
  F107     1.0000 0.57190  0.16180  0.95420  Biso   1.000  F
  F108     1.0000 0.42810  0.16180  0.54580  Biso   1.000  F
  F109     1.0000 0.92810  0.33820  0.04580  Biso   1.000  F
  F110     1.0000 0.07190  0.33820  0.45420  Biso   1.000  F
  F111     1.0000 0.42810  0.83820  0.04580  Biso   1.000  F
  F112     1.0000 0.57190  0.83820  0.45420  Biso   1.000  F
  F113     1.0000 0.13420  0.63750  0.05260  Biso   1.000  F
  F114     1.0000 0.86580  0.63750  0.44740  Biso   1.000  F
  F115     1.0000 0.63420  0.13750  0.05260  Biso   1.000  F
  F116     1.0000 0.36580  0.13750  0.44740  Biso   1.000  F
  F117     1.0000 0.86580  0.36250  0.94740  Biso   1.000  F
  F118     1.0000 0.13420  0.36250  0.55260  Biso   1.000  F
  F119     1.0000 0.36580  0.86250  0.94740  Biso   1.000  F
  F120     1.0000 0.63420  0.86250  0.55260  Biso   1.000  F
  F121     1.0000 0.04060  0.77810  0.19350  Biso   1.000  F
  F122     1.0000 0.95940  0.77810  0.30650  Biso   1.000  F
  F123     1.0000 0.54060  0.27810  0.19350  Biso   1.000  F
  F124     1.0000 0.45940  0.27810  0.30650  Biso   1.000  F
  F125     1.0000 0.95940  0.22190  0.80650  Biso   1.000  F
  F126     1.0000 0.04060  0.22190  0.69350  Biso   1.000  F
  F127     1.0000 0.45940  0.72190  0.80650  Biso   1.000  F
  F128     1.0000 0.54060  0.72190  0.69350  Biso   1.000  F
  F129     1.0000 0.96410  0.71950  0.11980  Biso   1.000  F
  F130     1.0000 0.03590  0.71950  0.38020  Biso   1.000  F
  F131     1.0000 0.46410  0.21950  0.11980  Biso   1.000  F
  F132     1.0000 0.53590  0.21950  0.38020  Biso   1.000  F
  F133     1.0000 0.03590  0.28050  0.88020  Biso   1.000  F
  F134     1.0000 0.96410  0.28050  0.61980  Biso   1.000  F
  F135     1.0000 0.53590  0.78050  0.88020  Biso   1.000  F
  F136     1.0000 0.46410  0.78050  0.61980  Biso   1.000  F
  F137     1.0000 0.03310  0.58880  0.15820  Biso   1.000  F
  F138     1.0000 0.96690  0.58880  0.34180  Biso   1.000  F
  F139     1.0000 0.53310  0.08880  0.15820  Biso   1.000  F
  F140     1.0000 0.46690  0.08880  0.34180  Biso   1.000  F
  F141     1.0000 0.96690  0.41120  0.84180  Biso   1.000  F
  F142     1.0000 0.03310  0.41120  0.65820  Biso   1.000  F
  F143     1.0000 0.46690  0.91120  0.84180  Biso   1.000  F
  F144     1.0000 0.53310  0.91120  0.65820  Biso   1.000  F
  F145     1.0000 0.28410  0.24840  0.96450  Biso   1.000  F
  F146     1.0000 0.71590  0.24840  0.53550  Biso   1.000  F
  F147     1.0000 0.78410  0.74840  0.96450  Biso   1.000  F
  F148     1.0000 0.21590  0.74840  0.53550  Biso   1.000  F
  F149     1.0000 0.71590  0.75160  0.03550  Biso   1.000  F
  F150     1.0000 0.28410  0.75160  0.46450  Biso   1.000  F
  F151     1.0000 0.21590  0.25160  0.03550  Biso   1.000  F
  F152     1.0000 0.78410  0.25160  0.46450  Biso   1.000  F
  F153     1.0000 0.21860  0.14650  0.89240  Biso   1.000  F
  F154     1.0000 0.78140  0.14650  0.60760  Biso   1.000  F
  F155     1.0000 0.71860  0.64650  0.89240  Biso   1.000  F
  F156     1.0000 0.28140  0.64650  0.60760  Biso   1.000  F
  F157     1.0000 0.78140  0.85350  0.10760  Biso   1.000  F
  F158     1.0000 0.21860  0.85350  0.39240  Biso   1.000  F
  F159     1.0000 0.28140  0.35350  0.10760  Biso   1.000  F
  F160     1.0000 0.71860  0.35350  0.39240  Biso   1.000  F
  F161     1.0000 0.29250  0.11550  0.90870  Biso   1.000  F
  F162     1.0000 0.70750  0.11550  0.59130  Biso   1.000  F
  F163     1.0000 0.79250  0.61550  0.90870  Biso   1.000  F
  F164     1.0000 0.20750  0.61550  0.59130  Biso   1.000  F
  F165     1.0000 0.70750  0.88450  0.09130  Biso   1.000  F
  F166     1.0000 0.29250  0.88450  0.40870  Biso   1.000  F
  F167     1.0000 0.20750  0.38450  0.09130  Biso   1.000  F
  F168     1.0000 0.79250  0.38450  0.40870  Biso   1.000  F
  F169     1.0000 0.36020  0.92810  0.20080  Biso   1.000  F
  F170     1.0000 0.63980  0.92810  0.29920  Biso   1.000  F
  F171     1.0000 0.86020  0.42810  0.20080  Biso   1.000  F
  F172     1.0000 0.13980  0.42810  0.29920  Biso   1.000  F
  F173     1.0000 0.63980  0.07190  0.79920  Biso   1.000  F
  F174     1.0000 0.36020  0.07190  0.70080  Biso   1.000  F
  F175     1.0000 0.13980  0.57190  0.79920  Biso   1.000  F
  F176     1.0000 0.86020  0.57190  0.70080  Biso   1.000  F
  F177     1.0000 0.41870  0.91250  0.18720  Biso   1.000  F
  F178     1.0000 0.58130  0.91250  0.31280  Biso   1.000  F
  F179     1.0000 0.91870  0.41250  0.18720  Biso   1.000  F
  F180     1.0000 0.08130  0.41250  0.31280  Biso   1.000  F
  F181     1.0000 0.58130  0.08750  0.81280  Biso   1.000  F
  F182     1.0000 0.41870  0.08750  0.68720  Biso   1.000  F
  F183     1.0000 0.08130  0.58750  0.81280  Biso   1.000  F
  F184     1.0000 0.91870  0.58750  0.68720  Biso   1.000  F
  F185     1.0000 0.38440  0.10160  0.17620  Biso   1.000  F
  F186     1.0000 0.61560  0.10160  0.32380  Biso   1.000  F
  F187     1.0000 0.88440  0.60160  0.17620  Biso   1.000  F
  F188     1.0000 0.11560  0.60160  0.32380  Biso   1.000  F
  F189     1.0000 0.61560  0.89840  0.82380  Biso   1.000  F
  F190     1.0000 0.38440  0.89840  0.67620  Biso   1.000  F
  F191     1.0000 0.11560  0.39840  0.82380  Biso   1.000  F
  F192     1.0000 0.88440  0.39840  0.67620  Biso   1.000  F
  C185     1.0000 0.10120  0.91000  0.89430  Biso   1.000  C
  C186     1.0000 0.89880  0.91000  0.60570  Biso   1.000  C
  C187     1.0000 0.60120  0.41000  0.89430  Biso   1.000  C
  C188     1.0000 0.39880  0.41000  0.60570  Biso   1.000  C
  C189     1.0000 0.89880  0.09000  0.10570  Biso   1.000  C
  C190     1.0000 0.10120  0.09000  0.39430  Biso   1.000  C
  C191     1.0000 0.39880  0.59000  0.10570  Biso   1.000  C
  C192     1.0000 0.60120  0.59000  0.39430  Biso   1.000  C
  H185     1.0000 0.10080  0.80900  0.89010  Biso   1.000  H
  H186     1.0000 0.89920  0.80900  0.60990  Biso   1.000  H
  H187     1.0000 0.60080  0.30900  0.89010  Biso   1.000  H
  H188     1.0000 0.39920  0.30900  0.60990  Biso   1.000  H
  H189     1.0000 0.89920  0.19100  0.10990  Biso   1.000  H
  H190     1.0000 0.10080  0.19100  0.39010  Biso   1.000  H
  H191     1.0000 0.39920  0.69100  0.10990  Biso   1.000  H
  H192     1.0000 0.60080  0.69100  0.39010  Biso   1.000  H
  H193     1.0000 0.06400  0.94170  0.87520  Biso   1.000  H
  H194     1.0000 0.93600  0.94170  0.62480  Biso   1.000  H
  H195     1.0000 0.56400  0.44170  0.87520  Biso   1.000  H
  H196     1.0000 0.43600  0.44170  0.62480  Biso   1.000  H
  H197     1.0000 0.93600  0.05830  0.12480  Biso   1.000  H
  H198     1.0000 0.06400  0.05830  0.37520  Biso   1.000  H
  H199     1.0000 0.43600  0.55830  0.12480  Biso   1.000  H
  H200     1.0000 0.56400  0.55830  0.37520  Biso   1.000  H
  C193     1.0000 0.12400  0.97900  0.86160  Biso   1.000  C
  C194     1.0000 0.87600  0.97900  0.63840  Biso   1.000  C
  C195     1.0000 0.62400  0.47900  0.86160  Biso   1.000  C
  C196     1.0000 0.37600  0.47900  0.63840  Biso   1.000  C
  C197     1.0000 0.87600  0.02100  0.13840  Biso   1.000  C
  C198     1.0000 0.12400  0.02100  0.36160  Biso   1.000  C
  C199     1.0000 0.37600  0.52100  0.13840  Biso   1.000  C
  C200     1.0000 0.62400  0.52100  0.36160  Biso   1.000  C
  H201     1.0000 0.16090  0.94420  0.88120  Biso   1.000  H
  H202     1.0000 0.83910  0.94420  0.61880  Biso   1.000  H
  H203     1.0000 0.66090  0.44420  0.88120  Biso   1.000  H
  H204     1.0000 0.33910  0.44420  0.61880  Biso   1.000  H
  H205     1.0000 0.83910  0.05580  0.11880  Biso   1.000  H
  H206     1.0000 0.16090  0.05580  0.38120  Biso   1.000  H
  H207     1.0000 0.33910  0.55580  0.11880  Biso   1.000  H
  H208     1.0000 0.66090  0.55580  0.38120  Biso   1.000  H
  H209     1.0000 0.10170  0.95180  0.81630  Biso   1.000  H
  H210     1.0000 0.89830  0.95180  0.68370  Biso   1.000  H
  H211     1.0000 0.60170  0.45180  0.81630  Biso   1.000  H
  H212     1.0000 0.39830  0.45180  0.68370  Biso   1.000  H
  H213     1.0000 0.89830  0.04820  0.18370  Biso   1.000  H
  H214     1.0000 0.10170  0.04820  0.31630  Biso   1.000  H
  H215     1.0000 0.39830  0.54820  0.18370  Biso   1.000  H
  H216     1.0000 0.60170  0.54820  0.31630  Biso   1.000  H
  C201     1.0000 0.12580  0.13250  0.86560  Biso   1.000  C
  C202     1.0000 0.87420  0.13250  0.63440  Biso   1.000  C
  C203     1.0000 0.62580  0.63250  0.86560  Biso   1.000  C
  C204     1.0000 0.37420  0.63250  0.63440  Biso   1.000  C
  C205     1.0000 0.87420  0.86750  0.13440  Biso   1.000  C
  C206     1.0000 0.12580  0.86750  0.36560  Biso   1.000  C
  C207     1.0000 0.37420  0.36750  0.13440  Biso   1.000  C
  C208     1.0000 0.62580  0.36750  0.36560  Biso   1.000  C
  H217     1.0000 0.14070  0.16900  0.84400  Biso   1.000  H
  H218     1.0000 0.85930  0.16900  0.65600  Biso   1.000  H
  H219     1.0000 0.64070  0.66900  0.84400  Biso   1.000  H
  H220     1.0000 0.35930  0.66900  0.65600  Biso   1.000  H
  H221     1.0000 0.85930  0.83100  0.15600  Biso   1.000  H
  H222     1.0000 0.14070  0.83100  0.34400  Biso   1.000  H
  H223     1.0000 0.35930  0.33100  0.15600  Biso   1.000  H
  H224     1.0000 0.64070  0.33100  0.34400  Biso   1.000  H
  H225     1.0000 0.08940  0.16820  0.84530  Biso   1.000  H
  H226     1.0000 0.91060  0.16820  0.65470  Biso   1.000  H
  H227     1.0000 0.58940  0.66820  0.84530  Biso   1.000  H
  H228     1.0000 0.41060  0.66820  0.65470  Biso   1.000  H
  H229     1.0000 0.91060  0.83180  0.15470  Biso   1.000  H
  H230     1.0000 0.08940  0.83180  0.34530  Biso   1.000  H
  H231     1.0000 0.41060  0.33180  0.15470  Biso   1.000  H
  H232     1.0000 0.58940  0.33180  0.34530  Biso   1.000  H
  H233     1.0000 0.14860  0.16060  0.91030  Biso   1.000  H
  H234     1.0000 0.85140  0.16060  0.58970  Biso   1.000  H
  H235     1.0000 0.64860  0.66060  0.91030  Biso   1.000  H
  H236     1.0000 0.35140  0.66060  0.58970  Biso   1.000  H
  H237     1.0000 0.85140  0.83940  0.08970  Biso   1.000  H
  H238     1.0000 0.14860  0.83940  0.41030  Biso   1.000  H
  H239     1.0000 0.35140  0.33940  0.08970  Biso   1.000  H
  H240     1.0000 0.64860  0.33940  0.41030  Biso   1.000  H
  C209     1.0000 0.11530  0.94300  0.90410  Biso   1.000  C
  C210     1.0000 0.88470  0.94300  0.59590  Biso   1.000  C
  C211     1.0000 0.61530  0.44300  0.90410  Biso   1.000  C
  C212     1.0000 0.38470  0.44300  0.59590  Biso   1.000  C
  C213     1.0000 0.88470  0.05700  0.09590  Biso   1.000  C
  C214     1.0000 0.11530  0.05700  0.40410  Biso   1.000  C
  C215     1.0000 0.38470  0.55700  0.09590  Biso   1.000  C
  C216     1.0000 0.61530  0.55700  0.40410  Biso   1.000  C
  H241     1.0000 0.13440  0.87580  0.89530  Biso   1.000  H
  H242     1.0000 0.86560  0.87580  0.60470  Biso   1.000  H
  H243     1.0000 0.63440  0.37580  0.89530  Biso   1.000  H
  H244     1.0000 0.36560  0.37580  0.60470  Biso   1.000  H
  H245     1.0000 0.86560  0.12420  0.10470  Biso   1.000  H
  H246     1.0000 0.13440  0.12420  0.39530  Biso   1.000  H
  H247     1.0000 0.36560  0.62420  0.10470  Biso   1.000  H
  H248     1.0000 0.63440  0.62420  0.39530  Biso   1.000  H
  H249     1.0000 0.07810  0.91000  0.88350  Biso   1.000  H
  H250     1.0000 0.92190  0.91000  0.61650  Biso   1.000  H
  H251     1.0000 0.57810  0.41000  0.88350  Biso   1.000  H
  H252     1.0000 0.42190  0.41000  0.61650  Biso   1.000  H
  H253     1.0000 0.92190  0.09000  0.11650  Biso   1.000  H
  H254     1.0000 0.07810  0.09000  0.38350  Biso   1.000  H
  H255     1.0000 0.42190  0.59000  0.11650  Biso   1.000  H
  H256     1.0000 0.57810  0.59000  0.38350  Biso   1.000  H
  C217     1.0000 0.11500  0.06100  0.88280  Biso   1.000  C
  C218     1.0000 0.88500  0.06100  0.61720  Biso   1.000  C
  C219     1.0000 0.61500  0.56100  0.88280  Biso   1.000  C
  C220     1.0000 0.38500  0.56100  0.61720  Biso   1.000  C
  C221     1.0000 0.88500  0.93900  0.11720  Biso   1.000  C
  C222     1.0000 0.11500  0.93900  0.38280  Biso   1.000  C
  C223     1.0000 0.38500  0.43900  0.11720  Biso   1.000  C
  C224     1.0000 0.61500  0.43900  0.38280  Biso   1.000  C
  H257     1.0000 0.15250  0.09290  0.90420  Biso   1.000  H
  H258     1.0000 0.84750  0.09290  0.59580  Biso   1.000  H
  H259     1.0000 0.65250  0.59290  0.90420  Biso   1.000  H
  H260     1.0000 0.34750  0.59290  0.59580  Biso   1.000  H
  H261     1.0000 0.84750  0.90710  0.09580  Biso   1.000  H
  H262     1.0000 0.15250  0.90710  0.40420  Biso   1.000  H
  H263     1.0000 0.34750  0.40710  0.09580  Biso   1.000  H
  H264     1.0000 0.65250  0.40710  0.40420  Biso   1.000  H
  H265     1.0000 0.09620  0.12670  0.89210  Biso   1.000  H
  H266     1.0000 0.90380  0.12670  0.60790  Biso   1.000  H
  H267     1.0000 0.59620  0.62670  0.89210  Biso   1.000  H
  H268     1.0000 0.40380  0.62670  0.60790  Biso   1.000  H
  H269     1.0000 0.90380  0.87330  0.10790  Biso   1.000  H
  H270     1.0000 0.09620  0.87330  0.39210  Biso   1.000  H
  H271     1.0000 0.40380  0.37330  0.10790  Biso   1.000  H
  H272     1.0000 0.59620  0.37330  0.39210  Biso   1.000  H
  C225     1.0000 0.08500  0.05300  0.80740  Biso   1.000  C
  C226     1.0000 0.91500  0.05300  0.69260  Biso   1.000  C
  C227     1.0000 0.58500  0.55300  0.80740  Biso   1.000  C
  C228     1.0000 0.41500  0.55300  0.69260  Biso   1.000  C
  C229     1.0000 0.91500  0.94700  0.19260  Biso   1.000  C
  C230     1.0000 0.08500  0.94700  0.30740  Biso   1.000  C
  C231     1.0000 0.41500  0.44700  0.19260  Biso   1.000  C
  C232     1.0000 0.58500  0.44700  0.30740  Biso   1.000  C
  H273     1.0000 0.08550  0.14410  0.79160  Biso   1.000  H
  H274     1.0000 0.91450  0.14410  0.70840  Biso   1.000  H
  H275     1.0000 0.58550  0.64410  0.79160  Biso   1.000  H
  H276     1.0000 0.41450  0.64410  0.70840  Biso   1.000  H
  H277     1.0000 0.91450  0.85590  0.20840  Biso   1.000  H
  H278     1.0000 0.08550  0.85590  0.29160  Biso   1.000  H
  H279     1.0000 0.41450  0.35590  0.20840  Biso   1.000  H
  H280     1.0000 0.58550  0.35590  0.29160  Biso   1.000  H
  H281     1.0000 0.10450  0.98840  0.79840  Biso   1.000  H
  H282     1.0000 0.89550  0.98840  0.70160  Biso   1.000  H
  H283     1.0000 0.60450  0.48840  0.79840  Biso   1.000  H
  H284     1.0000 0.39550  0.48840  0.70160  Biso   1.000  H
  H285     1.0000 0.89550  0.01160  0.20160  Biso   1.000  H
  H286     1.0000 0.10450  0.01160  0.29840  Biso   1.000  H
  H287     1.0000 0.39550  0.51160  0.20160  Biso   1.000  H
  H288     1.0000 0.60450  0.51160  0.29840  Biso   1.000  H
  H289     1.0000 0.04830  0.02210  0.78630  Biso   1.000  H
  H290     1.0000 0.95170  0.02210  0.71370  Biso   1.000  H
  H291     1.0000 0.54830  0.52210  0.78630  Biso   1.000  H
  H292     1.0000 0.45170  0.52210  0.71370  Biso   1.000  H
  H293     1.0000 0.95170  0.97790  0.21370  Biso   1.000  H
  H294     1.0000 0.04830  0.97790  0.28630  Biso   1.000  H
  H295     1.0000 0.45170  0.47790  0.21370  Biso   1.000  H
  H296     1.0000 0.54830  0.47790  0.28630  Biso   1.000  H
