data_image0
_cell_length_a       30.6714
_cell_length_b       9.5911
_cell_length_c       25.97
_cell_angle_alpha    90
_cell_angle_beta     125.621
_cell_angle_gamma    90

_symmetry_space_group_name_H-M    "P 1"
_symmetry_int_tables_number       1

loop_
  _symmetry_equiv_pos_as_xyz
  'x, y, z'

loop_
  _atom_site_label
  _atom_site_occupancy
  _atom_site_fract_x
  _atom_site_fract_y
  _atom_site_fract_z
  _atom_site_thermal_displace_type
  _atom_site_B_iso_or_equiv
  _atom_site_type_symbol
  Cu1      1.0000 0.00000  0.00000  0.00000  Biso   1.000  Cu
  Cu2      1.0000 0.00000  0.00000  0.50000  Biso   1.000  Cu
  Cu3      1.0000 0.50000  0.50000  0.00000  Biso   1.000  Cu
  Cu4      1.0000 0.50000  0.50000  0.50000  Biso   1.000  Cu
  O1       1.0000 0.03876  0.84733  0.99264  Biso   1.000  O
  O2       1.0000 0.96124  0.84733  0.50736  Biso   1.000  O
  O3       1.0000 0.53876  0.34733  0.99264  Biso   1.000  O
  O4       1.0000 0.46124  0.34733  0.50736  Biso   1.000  O
  O5       1.0000 0.96124  0.15267  0.00736  Biso   1.000  O
  O6       1.0000 0.03876  0.15267  0.49264  Biso   1.000  O
  O7       1.0000 0.46124  0.65267  0.00736  Biso   1.000  O
  O8       1.0000 0.53876  0.65267  0.49264  Biso   1.000  O
  C1       1.0000 0.07537  0.62950  0.99980  Biso   1.000  C
  C2       1.0000 0.92463  0.62950  0.50020  Biso   1.000  C
  C3       1.0000 0.57537  0.12950  0.99980  Biso   1.000  C
  C4       1.0000 0.42463  0.12950  0.50020  Biso   1.000  C
  C5       1.0000 0.92463  0.37050  0.00020  Biso   1.000  C
  C6       1.0000 0.07537  0.37050  0.49980  Biso   1.000  C
  C7       1.0000 0.42463  0.87050  0.00020  Biso   1.000  C
  C8       1.0000 0.57537  0.87050  0.49980  Biso   1.000  C
  F1       1.0000 0.07650  0.50210  0.01770  Biso   1.000  F
  F2       1.0000 0.92350  0.50210  0.48230  Biso   1.000  F
  F3       1.0000 0.57650  0.00210  0.01770  Biso   1.000  F
  F4       1.0000 0.42350  0.00210  0.48230  Biso   1.000  F
  F5       1.0000 0.92350  0.49790  0.98230  Biso   1.000  F
  F6       1.0000 0.07650  0.49790  0.51770  Biso   1.000  F
  F7       1.0000 0.42350  0.99790  0.98230  Biso   1.000  F
  F8       1.0000 0.57650  0.99790  0.51770  Biso   1.000  F
  F9       1.0000 0.03690  0.61440  0.93210  Biso   1.000  F
  F10      1.0000 0.96310  0.61440  0.56790  Biso   1.000  F
  F11      1.0000 0.53690  0.11440  0.93210  Biso   1.000  F
  F12      1.0000 0.46310  0.11440  0.56790  Biso   1.000  F
  F13      1.0000 0.96310  0.38560  0.06790  Biso   1.000  F
  F14      1.0000 0.03690  0.38560  0.43210  Biso   1.000  F
  F15      1.0000 0.46310  0.88560  0.06790  Biso   1.000  F
  F16      1.0000 0.53690  0.88560  0.43210  Biso   1.000  F
  F17      1.0000 0.11660  0.66620  0.00710  Biso   1.000  F
  F18      1.0000 0.88340  0.66620  0.49290  Biso   1.000  F
  F19      1.0000 0.61660  0.16620  0.00710  Biso   1.000  F
  F20      1.0000 0.38340  0.16620  0.49290  Biso   1.000  F
  F21      1.0000 0.88340  0.33380  0.99290  Biso   1.000  F
  F22      1.0000 0.11660  0.33380  0.50710  Biso   1.000  F
  F23      1.0000 0.38340  0.83380  0.99290  Biso   1.000  F
  F24      1.0000 0.61660  0.83380  0.50710  Biso   1.000  F
  C9       1.0000 0.05091  0.73330  0.02113  Biso   1.000  C
  C10      1.0000 0.94909  0.73330  0.47887  Biso   1.000  C
  C11      1.0000 0.55091  0.23330  0.02113  Biso   1.000  C
  C12      1.0000 0.44909  0.23330  0.47887  Biso   1.000  C
  C13      1.0000 0.94909  0.26670  0.97887  Biso   1.000  C
  C14      1.0000 0.05091  0.26670  0.52113  Biso   1.000  C
  C15      1.0000 0.44909  0.76670  0.97887  Biso   1.000  C
  C16      1.0000 0.55091  0.76670  0.52113  Biso   1.000  C
  C17      1.0000 0.04480  0.69180  0.06735  Biso   1.000  C
  C18      1.0000 0.95520  0.69180  0.43265  Biso   1.000  C
  C19      1.0000 0.54480  0.19180  0.06735  Biso   1.000  C
  C20      1.0000 0.45520  0.19180  0.43265  Biso   1.000  C
  C21      1.0000 0.95520  0.30820  0.93265  Biso   1.000  C
  C22      1.0000 0.04480  0.30820  0.56735  Biso   1.000  C
  C23      1.0000 0.45520  0.80820  0.93265  Biso   1.000  C
  C24      1.0000 0.54480  0.80820  0.56735  Biso   1.000  C
  H1       1.0000 0.05550  0.60250  0.08410  Biso   1.000  H
  H2       1.0000 0.94450  0.60250  0.41590  Biso   1.000  H
  H3       1.0000 0.55550  0.10250  0.08410  Biso   1.000  H
  H4       1.0000 0.44450  0.10250  0.41590  Biso   1.000  H
  H5       1.0000 0.94450  0.39750  0.91590  Biso   1.000  H
  H6       1.0000 0.05550  0.39750  0.58410  Biso   1.000  H
  H7       1.0000 0.44450  0.89750  0.91590  Biso   1.000  H
  H8       1.0000 0.55550  0.89750  0.58410  Biso   1.000  H
  C25      1.0000 0.02336  0.77860  0.08958  Biso   1.000  C
  C26      1.0000 0.97664  0.77860  0.41042  Biso   1.000  C
  C27      1.0000 0.52336  0.27860  0.08958  Biso   1.000  C
  C28      1.0000 0.47664  0.27860  0.41042  Biso   1.000  C
  C29      1.0000 0.97664  0.22140  0.91042  Biso   1.000  C
  C30      1.0000 0.02336  0.22140  0.58958  Biso   1.000  C
  C31      1.0000 0.47664  0.72140  0.91042  Biso   1.000  C
  C32      1.0000 0.52336  0.72140  0.58958  Biso   1.000  C
  C33      1.0000 0.01637  0.72150  0.13908  Biso   1.000  C
  C34      1.0000 0.98363  0.72150  0.36092  Biso   1.000  C
  C35      1.0000 0.51637  0.22150  0.13908  Biso   1.000  C
  C36      1.0000 0.48363  0.22150  0.36092  Biso   1.000  C
  C37      1.0000 0.98363  0.27850  0.86092  Biso   1.000  C
  C38      1.0000 0.01637  0.27850  0.63908  Biso   1.000  C
  C39      1.0000 0.48363  0.77850  0.86092  Biso   1.000  C
  C40      1.0000 0.51637  0.77850  0.63908  Biso   1.000  C
  F25      1.0000 0.04630  0.61600  0.16890  Biso   1.000  F
  F26      1.0000 0.95370  0.61600  0.33110  Biso   1.000  F
  F27      1.0000 0.54630  0.11600  0.16890  Biso   1.000  F
  F28      1.0000 0.45370  0.11600  0.33110  Biso   1.000  F
  F29      1.0000 0.95370  0.38400  0.83110  Biso   1.000  F
  F30      1.0000 0.04630  0.38400  0.66890  Biso   1.000  F
  F31      1.0000 0.45370  0.88400  0.83110  Biso   1.000  F
  F32      1.0000 0.54630  0.88400  0.66890  Biso   1.000  F
  F33      1.0000 0.02870  0.81200  0.18520  Biso   1.000  F
  F34      1.0000 0.97130  0.81200  0.31480  Biso   1.000  F
  F35      1.0000 0.52870  0.31200  0.18520  Biso   1.000  F
  F36      1.0000 0.47130  0.31200  0.31480  Biso   1.000  F
  F37      1.0000 0.97130  0.18800  0.81480  Biso   1.000  F
  F38      1.0000 0.02870  0.18800  0.68520  Biso   1.000  F
  F39      1.0000 0.47130  0.68800  0.81480  Biso   1.000  F
  F40      1.0000 0.52870  0.68800  0.68520  Biso   1.000  F
  F41      1.0000 0.96750  0.69150  0.11170  Biso   1.000  F
  F42      1.0000 0.03250  0.69150  0.38830  Biso   1.000  F
  F43      1.0000 0.46750  0.19150  0.11170  Biso   1.000  F
  F44      1.0000 0.53250  0.19150  0.38830  Biso   1.000  F
  F45      1.0000 0.03250  0.30850  0.88830  Biso   1.000  F
  F46      1.0000 0.96750  0.30850  0.61170  Biso   1.000  F
  F47      1.0000 0.53250  0.80850  0.88830  Biso   1.000  F
  F48      1.0000 0.46750  0.80850  0.61170  Biso   1.000  F
  O9       1.0000 0.00772  0.90156  0.07377  Biso   1.000  O
  O10      1.0000 0.99228  0.90156  0.42623  Biso   1.000  O
  O11      1.0000 0.50772  0.40156  0.07377  Biso   1.000  O
  O12      1.0000 0.49228  0.40156  0.42623  Biso   1.000  O
  O13      1.0000 0.99228  0.09844  0.92623  Biso   1.000  O
  O14      1.0000 0.00772  0.09844  0.57377  Biso   1.000  O
  O15      1.0000 0.49228  0.59844  0.92623  Biso   1.000  O
  O16      1.0000 0.50772  0.59844  0.57377  Biso   1.000  O
  Cu5      1.0000 0.25000  0.75000  0.00000  Biso   1.000  Cu
  Cu6      1.0000 0.75000  0.75000  0.50000  Biso   1.000  Cu
  Cu7      1.0000 0.75000  0.25000  0.00000  Biso   1.000  Cu
  Cu8      1.0000 0.25000  0.25000  0.50000  Biso   1.000  Cu
  O17      1.0000 0.25694  0.90844  0.95739  Biso   1.000  O
  O18      1.0000 0.74306  0.90844  0.54261  Biso   1.000  O
  O19      1.0000 0.75694  0.40844  0.95739  Biso   1.000  O
  O20      1.0000 0.24306  0.40844  0.54261  Biso   1.000  O
  O21      1.0000 0.74306  0.09156  0.04261  Biso   1.000  O
  O22      1.0000 0.25694  0.09156  0.45739  Biso   1.000  O
  O23      1.0000 0.24306  0.59156  0.04261  Biso   1.000  O
  O24      1.0000 0.75694  0.59156  0.45739  Biso   1.000  O
  C41      1.0000 0.27955  0.13010  0.94225  Biso   1.000  C
  C42      1.0000 0.72045  0.13010  0.55775  Biso   1.000  C
  C43      1.0000 0.77955  0.63010  0.94225  Biso   1.000  C
  C44      1.0000 0.22045  0.63010  0.55775  Biso   1.000  C
  C45      1.0000 0.72045  0.86990  0.05775  Biso   1.000  C
  C46      1.0000 0.27955  0.86990  0.44225  Biso   1.000  C
  C47      1.0000 0.22045  0.36990  0.05775  Biso   1.000  C
  C48      1.0000 0.77955  0.36990  0.44225  Biso   1.000  C
  F49      1.0000 0.33597  0.16670  0.96470  Biso   1.000  F
  F50      1.0000 0.66403  0.16670  0.53530  Biso   1.000  F
  F51      1.0000 0.83597  0.66670  0.96470  Biso   1.000  F
  F52      1.0000 0.16403  0.66670  0.53530  Biso   1.000  F
  F53      1.0000 0.66403  0.83330  0.03530  Biso   1.000  F
  F54      1.0000 0.33597  0.83330  0.46470  Biso   1.000  F
  F55      1.0000 0.16403  0.33330  0.03530  Biso   1.000  F
  F56      1.0000 0.83597  0.33330  0.46470  Biso   1.000  F
  F57      1.0000 0.26840  0.24240  0.95470  Biso   1.000  F
  F58      1.0000 0.73160  0.24240  0.54530  Biso   1.000  F
  F59      1.0000 0.76840  0.74240  0.95470  Biso   1.000  F
  F60      1.0000 0.23160  0.74240  0.54530  Biso   1.000  F
  F61      1.0000 0.73160  0.75760  0.04530  Biso   1.000  F
  F62      1.0000 0.26840  0.75760  0.45470  Biso   1.000  F
  F63      1.0000 0.23160  0.25760  0.04530  Biso   1.000  F
  F64      1.0000 0.76840  0.25760  0.45470  Biso   1.000  F
  F65      1.0000 0.26140  0.09080  0.88900  Biso   1.000  F
  F66      1.0000 0.73860  0.09080  0.61100  Biso   1.000  F
  F67      1.0000 0.76140  0.59080  0.88900  Biso   1.000  F
  F68      1.0000 0.23860  0.59080  0.61100  Biso   1.000  F
  F69      1.0000 0.73860  0.90920  0.11100  Biso   1.000  F
  F70      1.0000 0.26140  0.90920  0.38900  Biso   1.000  F
  F71      1.0000 0.23860  0.40920  0.11100  Biso   1.000  F
  F72      1.0000 0.76140  0.40920  0.38900  Biso   1.000  F
  C49      1.0000 0.28628  0.01100  0.98577  Biso   1.000  C
  C50      1.0000 0.71372  0.01100  0.51423  Biso   1.000  C
  C51      1.0000 0.78628  0.51100  0.98577  Biso   1.000  C
  C52      1.0000 0.21372  0.51100  0.51423  Biso   1.000  C
  C53      1.0000 0.71372  0.98900  0.01423  Biso   1.000  C
  C54      1.0000 0.28628  0.98900  0.48577  Biso   1.000  C
  C55      1.0000 0.21372  0.48900  0.01423  Biso   1.000  C
  C56      1.0000 0.78628  0.48900  0.48577  Biso   1.000  C
  C57      1.0000 0.32268  0.03120  0.05033  Biso   1.000  C
  C58      1.0000 0.67732  0.03120  0.44967  Biso   1.000  C
  C59      1.0000 0.82268  0.53120  0.05033  Biso   1.000  C
  C60      1.0000 0.17732  0.53120  0.44967  Biso   1.000  C
  C61      1.0000 0.67732  0.96880  0.94967  Biso   1.000  C
  C62      1.0000 0.32268  0.96880  0.55033  Biso   1.000  C
  C63      1.0000 0.17732  0.46880  0.94967  Biso   1.000  C
  C64      1.0000 0.82268  0.46880  0.55033  Biso   1.000  C
  H9       1.0000 0.34210  0.11390  0.06470  Biso   1.000  H
  H10      1.0000 0.65790  0.11390  0.43530  Biso   1.000  H
  H11      1.0000 0.84210  0.61390  0.06470  Biso   1.000  H
  H12      1.0000 0.15790  0.61390  0.43530  Biso   1.000  H
  H13      1.0000 0.65790  0.88610  0.93530  Biso   1.000  H
  H14      1.0000 0.34210  0.88610  0.56470  Biso   1.000  H
  H15      1.0000 0.15790  0.38610  0.93530  Biso   1.000  H
  H16      1.0000 0.84210  0.38610  0.56470  Biso   1.000  H
  C65      1.0000 0.33117  0.93360  0.09407  Biso   1.000  C
  C66      1.0000 0.66883  0.93360  0.40593  Biso   1.000  C
  C67      1.0000 0.83117  0.43360  0.09407  Biso   1.000  C
  C68      1.0000 0.16883  0.43360  0.40593  Biso   1.000  C
  C69      1.0000 0.66883  0.06640  0.90593  Biso   1.000  C
  C70      1.0000 0.33117  0.06640  0.59407  Biso   1.000  C
  C71      1.0000 0.16883  0.56640  0.90593  Biso   1.000  C
  C72      1.0000 0.83117  0.56640  0.59407  Biso   1.000  C
  C73      1.0000 0.37233  0.96600  0.16481  Biso   1.000  C
  C74      1.0000 0.62767  0.96600  0.33519  Biso   1.000  C
  C75      1.0000 0.87233  0.46600  0.16481  Biso   1.000  C
  C76      1.0000 0.12767  0.46600  0.33519  Biso   1.000  C
  C77      1.0000 0.62767  0.03400  0.83519  Biso   1.000  C
  C78      1.0000 0.37233  0.03400  0.66481  Biso   1.000  C
  C79      1.0000 0.12767  0.53400  0.83519  Biso   1.000  C
  C80      1.0000 0.87233  0.53400  0.66481  Biso   1.000  C
  F73      1.0000 0.34690  0.00900  0.18810  Biso   1.000  F
  F74      1.0000 0.65310  0.00900  0.31190  Biso   1.000  F
  F75      1.0000 0.84690  0.50900  0.18810  Biso   1.000  F
  F76      1.0000 0.15310  0.50900  0.31190  Biso   1.000  F
  F77      1.0000 0.65310  0.99100  0.81190  Biso   1.000  F
  F78      1.0000 0.34690  0.99100  0.68810  Biso   1.000  F
  F79      1.0000 0.15310  0.49100  0.81190  Biso   1.000  F
  F80      1.0000 0.84690  0.49100  0.68810  Biso   1.000  F
  F81      1.0000 0.40080  0.85560  0.19710  Biso   1.000  F
  F82      1.0000 0.59920  0.85560  0.30290  Biso   1.000  F
  F83      1.0000 0.90080  0.35560  0.19710  Biso   1.000  F
  F84      1.0000 0.09920  0.35560  0.30290  Biso   1.000  F
  F85      1.0000 0.59920  0.14440  0.80290  Biso   1.000  F
  F86      1.0000 0.40080  0.14440  0.69710  Biso   1.000  F
  F87      1.0000 0.09920  0.64440  0.80290  Biso   1.000  F
  F88      1.0000 0.90080  0.64440  0.69710  Biso   1.000  F
  F89      1.0000 0.40790  0.05330  0.17680  Biso   1.000  F
  F90      1.0000 0.59210  0.05330  0.32320  Biso   1.000  F
  F91      1.0000 0.90790  0.55330  0.17680  Biso   1.000  F
  F92      1.0000 0.09210  0.55330  0.32320  Biso   1.000  F
  F93      1.0000 0.59210  0.94670  0.82320  Biso   1.000  F
  F94      1.0000 0.40790  0.94670  0.67680  Biso   1.000  F
  F95      1.0000 0.09210  0.44670  0.82320  Biso   1.000  F
  F96      1.0000 0.90790  0.44670  0.67680  Biso   1.000  F
  O25      1.0000 0.30880  0.81785  0.08413  Biso   1.000  O
  O26      1.0000 0.69120  0.81785  0.41587  Biso   1.000  O
  O27      1.0000 0.80880  0.31785  0.08413  Biso   1.000  O
  O28      1.0000 0.19120  0.31785  0.41587  Biso   1.000  O
  O29      1.0000 0.69120  0.18215  0.91587  Biso   1.000  O
  O30      1.0000 0.30880  0.18215  0.58413  Biso   1.000  O
  O31      1.0000 0.19120  0.68215  0.91587  Biso   1.000  O
  O32      1.0000 0.80880  0.68215  0.58413  Biso   1.000  O
  O33      1.0000 0.07315  0.13893  0.05585  Biso   1.000  O
  O34      1.0000 0.92685  0.13893  0.44415  Biso   1.000  O
  O35      1.0000 0.57315  0.63893  0.05585  Biso   1.000  O
  O36      1.0000 0.42685  0.63893  0.44415  Biso   1.000  O
  O37      1.0000 0.92685  0.86107  0.94415  Biso   1.000  O
  O38      1.0000 0.07315  0.86107  0.55585  Biso   1.000  O
  O39      1.0000 0.42685  0.36107  0.94415  Biso   1.000  O
  O40      1.0000 0.57315  0.36107  0.55585  Biso   1.000  O
  N1       1.0000 0.11794  0.11077  0.10976  Biso   1.000  N
  N2       1.0000 0.88206  0.11077  0.39024  Biso   1.000  N
  N3       1.0000 0.61794  0.61077  0.10976  Biso   1.000  N
  N4       1.0000 0.38206  0.61077  0.39024  Biso   1.000  N
  N5       1.0000 0.88206  0.88923  0.89024  Biso   1.000  N
  N6       1.0000 0.11794  0.88923  0.60976  Biso   1.000  N
  N7       1.0000 0.38206  0.38923  0.89024  Biso   1.000  N
  N8       1.0000 0.61794  0.38923  0.60976  Biso   1.000  N
  C81      1.0000 0.13155  0.17180  0.17065  Biso   1.000  C
  C82      1.0000 0.86845  0.17180  0.32935  Biso   1.000  C
  C83      1.0000 0.63155  0.67180  0.17065  Biso   1.000  C
  C84      1.0000 0.36845  0.67180  0.32935  Biso   1.000  C
  C85      1.0000 0.86845  0.82820  0.82935  Biso   1.000  C
  C86      1.0000 0.13155  0.82820  0.67065  Biso   1.000  C
  C87      1.0000 0.36845  0.32820  0.82935  Biso   1.000  C
  C88      1.0000 0.63155  0.32820  0.67065  Biso   1.000  C
  C89      1.0000 0.14624  0.32480  0.17049  Biso   1.000  C
  C90      1.0000 0.85376  0.32480  0.32951  Biso   1.000  C
  C91      1.0000 0.64624  0.82480  0.17049  Biso   1.000  C
  C92      1.0000 0.35376  0.82480  0.32951  Biso   1.000  C
  C93      1.0000 0.85376  0.67520  0.82951  Biso   1.000  C
  C94      1.0000 0.14624  0.67520  0.67049  Biso   1.000  C
  C95      1.0000 0.35376  0.17520  0.82951  Biso   1.000  C
  C96      1.0000 0.64624  0.17520  0.67049  Biso   1.000  C
  H17      1.0000 0.15540  0.36940  0.20870  Biso   1.000  H
  H18      1.0000 0.84460  0.36940  0.29130  Biso   1.000  H
  H19      1.0000 0.65540  0.86940  0.20870  Biso   1.000  H
  H20      1.0000 0.34460  0.86940  0.29130  Biso   1.000  H
  H21      1.0000 0.84460  0.63060  0.79130  Biso   1.000  H
  H22      1.0000 0.15540  0.63060  0.70870  Biso   1.000  H
  H23      1.0000 0.34460  0.13060  0.79130  Biso   1.000  H
  H24      1.0000 0.65540  0.13060  0.70870  Biso   1.000  H
  H25      1.0000 0.17630  0.32880  0.16820  Biso   1.000  H
  H26      1.0000 0.82370  0.32880  0.33180  Biso   1.000  H
  H27      1.0000 0.67630  0.82880  0.16820  Biso   1.000  H
  H28      1.0000 0.32370  0.82880  0.33180  Biso   1.000  H
  H29      1.0000 0.82370  0.67120  0.83180  Biso   1.000  H
  H30      1.0000 0.17630  0.67120  0.66820  Biso   1.000  H
  H31      1.0000 0.32370  0.17120  0.83180  Biso   1.000  H
  H32      1.0000 0.67630  0.17120  0.66820  Biso   1.000  H
  H33      1.0000 0.11620  0.37170  0.13450  Biso   1.000  H
  H34      1.0000 0.88380  0.37170  0.36550  Biso   1.000  H
  H35      1.0000 0.61620  0.87170  0.13450  Biso   1.000  H
  H36      1.0000 0.38380  0.87170  0.36550  Biso   1.000  H
  H37      1.0000 0.88380  0.62830  0.86550  Biso   1.000  H
  H38      1.0000 0.11620  0.62830  0.63450  Biso   1.000  H
  H39      1.0000 0.38380  0.12830  0.86550  Biso   1.000  H
  H40      1.0000 0.61620  0.12830  0.63450  Biso   1.000  H
  C97      1.0000 0.08359  0.16240  0.17351  Biso   1.000  C
  C98      1.0000 0.91641  0.16240  0.32649  Biso   1.000  C
  C99      1.0000 0.58359  0.66240  0.17351  Biso   1.000  C
  C100     1.0000 0.41641  0.66240  0.32649  Biso   1.000  C
  C101     1.0000 0.91641  0.83760  0.82649  Biso   1.000  C
  C102     1.0000 0.08359  0.83760  0.67351  Biso   1.000  C
  C103     1.0000 0.41641  0.33760  0.82649  Biso   1.000  C
  C104     1.0000 0.58359  0.33760  0.67351  Biso   1.000  C
  H41      1.0000 0.09280  0.20170  0.21270  Biso   1.000  H
  H42      1.0000 0.90720  0.20170  0.28730  Biso   1.000  H
  H43      1.0000 0.59280  0.70170  0.21270  Biso   1.000  H
  H44      1.0000 0.40720  0.70170  0.28730  Biso   1.000  H
  H45      1.0000 0.90720  0.79830  0.78730  Biso   1.000  H
  H46      1.0000 0.09280  0.79830  0.71270  Biso   1.000  H
  H47      1.0000 0.40720  0.29830  0.78730  Biso   1.000  H
  H48      1.0000 0.59280  0.29830  0.71270  Biso   1.000  H
  H49      1.0000 0.05400  0.21300  0.13860  Biso   1.000  H
  H50      1.0000 0.94600  0.21300  0.36140  Biso   1.000  H
  H51      1.0000 0.55400  0.71300  0.13860  Biso   1.000  H
  H52      1.0000 0.44600  0.71300  0.36140  Biso   1.000  H
  H53      1.0000 0.94600  0.78700  0.86140  Biso   1.000  H
  H54      1.0000 0.05400  0.78700  0.63860  Biso   1.000  H
  H55      1.0000 0.44600  0.28700  0.86140  Biso   1.000  H
  H56      1.0000 0.55400  0.28700  0.63860  Biso   1.000  H
  H57      1.0000 0.07360  0.06640  0.17100  Biso   1.000  H
  H58      1.0000 0.92640  0.06640  0.32900  Biso   1.000  H
  H59      1.0000 0.57360  0.56640  0.17100  Biso   1.000  H
  H60      1.0000 0.42640  0.56640  0.32900  Biso   1.000  H
  H61      1.0000 0.92640  0.93360  0.82900  Biso   1.000  H
  H62      1.0000 0.07360  0.93360  0.67100  Biso   1.000  H
  H63      1.0000 0.42640  0.43360  0.82900  Biso   1.000  H
  H64      1.0000 0.57360  0.43360  0.67100  Biso   1.000  H
  C105     1.0000 0.18020  0.07940  0.21852  Biso   1.000  C
  C106     1.0000 0.81980  0.07940  0.28148  Biso   1.000  C
  C107     1.0000 0.68020  0.57940  0.21852  Biso   1.000  C
  C108     1.0000 0.31980  0.57940  0.28148  Biso   1.000  C
  C109     1.0000 0.81980  0.92060  0.78148  Biso   1.000  C
  C110     1.0000 0.18020  0.92060  0.71852  Biso   1.000  C
  C111     1.0000 0.31980  0.42060  0.78148  Biso   1.000  C
  C112     1.0000 0.68020  0.42060  0.71852  Biso   1.000  C
  C113     1.0000 0.16437  0.94050  0.23255  Biso   1.000  C
  C114     1.0000 0.83563  0.94050  0.26745  Biso   1.000  C
  C115     1.0000 0.66437  0.44050  0.23255  Biso   1.000  C
  C116     1.0000 0.33563  0.44050  0.26745  Biso   1.000  C
  C117     1.0000 0.83563  0.05950  0.76745  Biso   1.000  C
  C118     1.0000 0.16437  0.05950  0.73255  Biso   1.000  C
  C119     1.0000 0.33563  0.55950  0.76745  Biso   1.000  C
  C120     1.0000 0.66437  0.55950  0.73255  Biso   1.000  C
  H65      1.0000 0.15120  0.95730  0.25770  Biso   1.000  H
  H66      1.0000 0.84880  0.95730  0.24230  Biso   1.000  H
  H67      1.0000 0.65120  0.45730  0.25770  Biso   1.000  H
  H68      1.0000 0.34880  0.45730  0.24230  Biso   1.000  H
  H69      1.0000 0.84880  0.04270  0.74230  Biso   1.000  H
  H70      1.0000 0.15120  0.04270  0.75770  Biso   1.000  H
  H71      1.0000 0.34880  0.54270  0.74230  Biso   1.000  H
  H72      1.0000 0.65120  0.54270  0.75770  Biso   1.000  H
  H73      1.0000 0.13680  0.89680  0.19340  Biso   1.000  H
  H74      1.0000 0.86320  0.89680  0.30660  Biso   1.000  H
  H75      1.0000 0.63680  0.39680  0.19340  Biso   1.000  H
  H76      1.0000 0.36320  0.39680  0.30660  Biso   1.000  H
  H77      1.0000 0.86320  0.10320  0.80660  Biso   1.000  H
  H78      1.0000 0.13680  0.10320  0.69340  Biso   1.000  H
  H79      1.0000 0.36320  0.60320  0.80660  Biso   1.000  H
  H80      1.0000 0.63680  0.60320  0.69340  Biso   1.000  H
  H81      1.0000 0.19510  0.88060  0.25530  Biso   1.000  H
  H82      1.0000 0.80490  0.88060  0.24470  Biso   1.000  H
  H83      1.0000 0.69510  0.38060  0.25530  Biso   1.000  H
  H84      1.0000 0.30490  0.38060  0.24470  Biso   1.000  H
  H85      1.0000 0.80490  0.11940  0.74470  Biso   1.000  H
  H86      1.0000 0.19510  0.11940  0.75530  Biso   1.000  H
  H87      1.0000 0.30490  0.61940  0.74470  Biso   1.000  H
  H88      1.0000 0.69510  0.61940  0.75530  Biso   1.000  H
  C121     1.0000 0.22420  0.15130  0.27966  Biso   1.000  C
  C122     1.0000 0.77580  0.15130  0.22034  Biso   1.000  C
  C123     1.0000 0.72420  0.65130  0.27966  Biso   1.000  C
  C124     1.0000 0.27580  0.65130  0.22034  Biso   1.000  C
  C125     1.0000 0.77580  0.84870  0.72034  Biso   1.000  C
  C126     1.0000 0.22420  0.84870  0.77966  Biso   1.000  C
  C127     1.0000 0.27580  0.34870  0.72034  Biso   1.000  C
  C128     1.0000 0.72420  0.34870  0.77966  Biso   1.000  C
  H89      1.0000 0.21090  0.17400  0.30420  Biso   1.000  H
  H90      1.0000 0.78910  0.17400  0.19580  Biso   1.000  H
  H91      1.0000 0.71090  0.67400  0.30420  Biso   1.000  H
  H92      1.0000 0.28910  0.67400  0.19580  Biso   1.000  H
  H93      1.0000 0.78910  0.82600  0.69580  Biso   1.000  H
  H94      1.0000 0.21090  0.82600  0.80420  Biso   1.000  H
  H95      1.0000 0.28910  0.32600  0.69580  Biso   1.000  H
  H96      1.0000 0.71090  0.32600  0.80420  Biso   1.000  H
  H97      1.0000 0.25450  0.08990  0.30360  Biso   1.000  H
  H98      1.0000 0.74550  0.08990  0.19640  Biso   1.000  H
  H99      1.0000 0.75450  0.58990  0.30360  Biso   1.000  H
  H100     1.0000 0.24550  0.58990  0.19640  Biso   1.000  H
  H101     1.0000 0.74550  0.91010  0.69640  Biso   1.000  H
  H102     1.0000 0.25450  0.91010  0.80360  Biso   1.000  H
  H103     1.0000 0.24550  0.41010  0.69640  Biso   1.000  H
  H104     1.0000 0.75450  0.41010  0.80360  Biso   1.000  H
  H105     1.0000 0.23500  0.23510  0.26970  Biso   1.000  H
  H106     1.0000 0.76500  0.23510  0.23030  Biso   1.000  H
  H107     1.0000 0.73500  0.73510  0.26970  Biso   1.000  H
  H108     1.0000 0.26500  0.73510  0.23030  Biso   1.000  H
  H109     1.0000 0.76500  0.76490  0.73030  Biso   1.000  H
  H110     1.0000 0.23500  0.76490  0.76970  Biso   1.000  H
  H111     1.0000 0.26500  0.26490  0.73030  Biso   1.000  H
  H112     1.0000 0.73500  0.26490  0.76970  Biso   1.000  H
  N9       1.0000 0.20006  0.04290  0.17952  Biso   1.000  N
  N10      1.0000 0.79994  0.04290  0.32048  Biso   1.000  N
  N11      1.0000 0.70006  0.54290  0.17952  Biso   1.000  N
  N12      1.0000 0.29994  0.54290  0.32048  Biso   1.000  N
  N13      1.0000 0.79994  0.95710  0.82048  Biso   1.000  N
  N14      1.0000 0.20006  0.95710  0.67952  Biso   1.000  N
  N15      1.0000 0.29994  0.45710  0.82048  Biso   1.000  N
  N16      1.0000 0.70006  0.45710  0.67952  Biso   1.000  N
  O41      1.0000 0.24678  0.99300  0.20361  Biso   1.000  O
  O42      1.0000 0.75322  0.99300  0.29639  Biso   1.000  O
  O43      1.0000 0.74678  0.49300  0.20361  Biso   1.000  O
  O44      1.0000 0.25322  0.49300  0.29639  Biso   1.000  O
  O45      1.0000 0.75322  0.00700  0.79639  Biso   1.000  O
  O46      1.0000 0.24678  0.00700  0.70361  Biso   1.000  O
  O47      1.0000 0.25322  0.50700  0.79639  Biso   1.000  O
  O48      1.0000 0.74678  0.50700  0.70361  Biso   1.000  O
  C129     1.0000 0.16034  0.05000  0.11696  Biso   1.000  C
  C130     1.0000 0.83966  0.05000  0.38304  Biso   1.000  C
  C131     1.0000 0.66034  0.55000  0.11696  Biso   1.000  C
  C132     1.0000 0.33966  0.55000  0.38304  Biso   1.000  C
  C133     1.0000 0.83966  0.95000  0.88304  Biso   1.000  C
  C134     1.0000 0.16034  0.95000  0.61696  Biso   1.000  C
  C135     1.0000 0.33966  0.45000  0.88304  Biso   1.000  C
  C136     1.0000 0.66034  0.45000  0.61696  Biso   1.000  C
  C137     1.0000 0.16308  0.00042  0.06687  Biso   1.000  C
  C138     1.0000 0.83692  0.00042  0.43313  Biso   1.000  C
  C139     1.0000 0.66308  0.50042  0.06687  Biso   1.000  C
  C140     1.0000 0.33692  0.50042  0.43313  Biso   1.000  C
  C141     1.0000 0.83692  0.99958  0.93313  Biso   1.000  C
  C142     1.0000 0.16308  0.99958  0.56687  Biso   1.000  C
  C143     1.0000 0.33692  0.49958  0.93313  Biso   1.000  C
  C144     1.0000 0.66308  0.49958  0.56687  Biso   1.000  C
  C145     1.0000 0.20354  0.92040  0.07096  Biso   1.000  C
  C146     1.0000 0.79646  0.92040  0.42904  Biso   1.000  C
  C147     1.0000 0.70354  0.42040  0.07096  Biso   1.000  C
  C148     1.0000 0.29646  0.42040  0.42904  Biso   1.000  C
  C149     1.0000 0.79646  0.07960  0.92904  Biso   1.000  C
  C150     1.0000 0.20354  0.07960  0.57096  Biso   1.000  C
  C151     1.0000 0.29646  0.57960  0.92904  Biso   1.000  C
  C152     1.0000 0.70354  0.57960  0.57096  Biso   1.000  C
  H113     1.0000 0.23450  0.89000  0.10880  Biso   1.000  H
  H114     1.0000 0.76550  0.89000  0.39120  Biso   1.000  H
  H115     1.0000 0.73450  0.39000  0.10880  Biso   1.000  H
  H116     1.0000 0.26550  0.39000  0.39120  Biso   1.000  H
  H117     1.0000 0.76550  0.11000  0.89120  Biso   1.000  H
  H118     1.0000 0.23450  0.11000  0.60880  Biso   1.000  H
  H119     1.0000 0.26550  0.61000  0.89120  Biso   1.000  H
  H120     1.0000 0.73450  0.61000  0.60880  Biso   1.000  H
  N17      1.0000 0.19201  0.89413  0.01454  Biso   1.000  N
  N18      1.0000 0.80799  0.89413  0.48546  Biso   1.000  N
  N19      1.0000 0.69201  0.39413  0.01454  Biso   1.000  N
  N20      1.0000 0.30799  0.39413  0.48546  Biso   1.000  N
  N21      1.0000 0.80799  0.10587  0.98546  Biso   1.000  N
  N22      1.0000 0.19201  0.10587  0.51454  Biso   1.000  N
  N23      1.0000 0.30799  0.60587  0.98546  Biso   1.000  N
  N24      1.0000 0.69201  0.60587  0.51454  Biso   1.000  N
  N25      1.0000 0.14394  0.95700  0.97364  Biso   1.000  N
  N26      1.0000 0.85606  0.95700  0.52636  Biso   1.000  N
  N27      1.0000 0.64394  0.45700  0.97364  Biso   1.000  N
  N28      1.0000 0.35606  0.45700  0.52636  Biso   1.000  N
  N29      1.0000 0.85606  0.04300  0.02636  Biso   1.000  N
  N30      1.0000 0.14394  0.04300  0.47364  Biso   1.000  N
  N31      1.0000 0.35606  0.54300  0.02636  Biso   1.000  N
  N32      1.0000 0.64394  0.54300  0.47364  Biso   1.000  N
  C153     1.0000 0.12310  0.97460  0.90500  Biso   1.000  C
  C154     1.0000 0.87690  0.97460  0.59500  Biso   1.000  C
  C155     1.0000 0.62310  0.47460  0.90500  Biso   1.000  C
  C156     1.0000 0.37690  0.47460  0.59500  Biso   1.000  C
  C157     1.0000 0.87690  0.02540  0.09500  Biso   1.000  C
  C158     1.0000 0.12310  0.02540  0.40500  Biso   1.000  C
  C159     1.0000 0.37690  0.52540  0.09500  Biso   1.000  C
  C160     1.0000 0.62310  0.52540  0.40500  Biso   1.000  C
  H121     1.0000 0.12030  0.07290  0.89460  Biso   1.000  H
  H122     1.0000 0.87970  0.07290  0.60540  Biso   1.000  H
  H123     1.0000 0.62030  0.57290  0.89460  Biso   1.000  H
  H124     1.0000 0.37970  0.57290  0.60540  Biso   1.000  H
  H125     1.0000 0.87970  0.92710  0.10540  Biso   1.000  H
  H126     1.0000 0.12030  0.92710  0.39460  Biso   1.000  H
  H127     1.0000 0.37970  0.42710  0.10540  Biso   1.000  H
  H128     1.0000 0.62030  0.42710  0.39460  Biso   1.000  H
  H129     1.0000 0.14730  0.93090  0.89730  Biso   1.000  H
  H130     1.0000 0.85270  0.93090  0.60270  Biso   1.000  H
  H131     1.0000 0.64730  0.43090  0.89730  Biso   1.000  H
  H132     1.0000 0.35270  0.43090  0.60270  Biso   1.000  H
  H133     1.0000 0.85270  0.06910  0.10270  Biso   1.000  H
  H134     1.0000 0.14730  0.06910  0.39730  Biso   1.000  H
  H135     1.0000 0.35270  0.56910  0.10270  Biso   1.000  H
  H136     1.0000 0.64730  0.56910  0.39730  Biso   1.000  H
  C161     1.0000 0.06940  0.90750  0.86560  Biso   1.000  C
  C162     1.0000 0.93060  0.90750  0.63440  Biso   1.000  C
  C163     1.0000 0.56940  0.40750  0.86560  Biso   1.000  C
  C164     1.0000 0.43060  0.40750  0.63440  Biso   1.000  C
  C165     1.0000 0.93060  0.09250  0.13440  Biso   1.000  C
  C166     1.0000 0.06940  0.09250  0.36560  Biso   1.000  C
  C167     1.0000 0.43060  0.59250  0.13440  Biso   1.000  C
  C168     1.0000 0.56940  0.59250  0.36560  Biso   1.000  C
  H137     1.0000 0.04580  0.94680  0.87530  Biso   1.000  H
  H138     1.0000 0.95420  0.94680  0.62470  Biso   1.000  H
  H139     1.0000 0.54580  0.44680  0.87530  Biso   1.000  H
  H140     1.0000 0.45420  0.44680  0.62470  Biso   1.000  H
  H141     1.0000 0.95420  0.05320  0.12470  Biso   1.000  H
  H142     1.0000 0.04580  0.05320  0.37530  Biso   1.000  H
  H143     1.0000 0.45420  0.55320  0.12470  Biso   1.000  H
  H144     1.0000 0.54580  0.55320  0.37530  Biso   1.000  H
  H145     1.0000 0.07250  0.80800  0.87380  Biso   1.000  H
  H146     1.0000 0.92750  0.80800  0.62620  Biso   1.000  H
  H147     1.0000 0.57250  0.30800  0.87380  Biso   1.000  H
  H148     1.0000 0.42750  0.30800  0.62620  Biso   1.000  H
  H149     1.0000 0.92750  0.19200  0.12620  Biso   1.000  H
  H150     1.0000 0.07250  0.19200  0.37380  Biso   1.000  H
  H151     1.0000 0.42750  0.69200  0.12620  Biso   1.000  H
  H152     1.0000 0.57250  0.69200  0.37380  Biso   1.000  H
  C169     1.0000 0.04670  0.93560  0.79530  Biso   1.000  C
  C170     1.0000 0.95330  0.93560  0.70470  Biso   1.000  C
  C171     1.0000 0.54670  0.43560  0.79530  Biso   1.000  C
  C172     1.0000 0.45330  0.43560  0.70470  Biso   1.000  C
  C173     1.0000 0.95330  0.06440  0.20470  Biso   1.000  C
  C174     1.0000 0.04670  0.06440  0.29530  Biso   1.000  C
  C175     1.0000 0.45330  0.56440  0.20470  Biso   1.000  C
  C176     1.0000 0.54670  0.56440  0.29530  Biso   1.000  C
  H153     1.0000 0.01190  0.89360  0.76830  Biso   1.000  H
  H154     1.0000 0.98810  0.89360  0.73170  Biso   1.000  H
  H155     1.0000 0.51190  0.39360  0.76830  Biso   1.000  H
  H156     1.0000 0.48810  0.39360  0.73170  Biso   1.000  H
  H157     1.0000 0.98810  0.10640  0.23170  Biso   1.000  H
  H158     1.0000 0.01190  0.10640  0.26830  Biso   1.000  H
  H159     1.0000 0.48810  0.60640  0.23170  Biso   1.000  H
  H160     1.0000 0.51190  0.60640  0.26830  Biso   1.000  H
  H161     1.0000 0.04380  0.03430  0.78790  Biso   1.000  H
  H162     1.0000 0.95620  0.03430  0.71210  Biso   1.000  H
  H163     1.0000 0.54380  0.53430  0.78790  Biso   1.000  H
  H164     1.0000 0.45620  0.53430  0.71210  Biso   1.000  H
  H165     1.0000 0.95620  0.96570  0.21210  Biso   1.000  H
  H166     1.0000 0.04380  0.96570  0.28790  Biso   1.000  H
  H167     1.0000 0.45620  0.46570  0.21210  Biso   1.000  H
  H168     1.0000 0.54380  0.46570  0.28790  Biso   1.000  H
  H169     1.0000 0.07030  0.89620  0.78630  Biso   1.000  H
  H170     1.0000 0.92970  0.89620  0.71370  Biso   1.000  H
  H171     1.0000 0.57030  0.39620  0.78630  Biso   1.000  H
  H172     1.0000 0.42970  0.39620  0.71370  Biso   1.000  H
  H173     1.0000 0.92970  0.10380  0.21370  Biso   1.000  H
  H174     1.0000 0.07030  0.10380  0.28630  Biso   1.000  H
  H175     1.0000 0.42970  0.60380  0.21370  Biso   1.000  H
  H176     1.0000 0.57030  0.60380  0.28630  Biso   1.000  H
  C177     1.0000 0.12584  0.02090  0.00303  Biso   1.000  C
  C178     1.0000 0.87416  0.02090  0.49697  Biso   1.000  C
  C179     1.0000 0.62584  0.52090  0.00303  Biso   1.000  C
  C180     1.0000 0.37416  0.52090  0.49697  Biso   1.000  C
  C181     1.0000 0.87416  0.97910  0.99697  Biso   1.000  C
  C182     1.0000 0.12584  0.97910  0.50303  Biso   1.000  C
  C183     1.0000 0.37416  0.47910  0.99697  Biso   1.000  C
  C184     1.0000 0.62584  0.47910  0.50303  Biso   1.000  C
  H177     1.0000 0.09390  0.07030  0.98400  Biso   1.000  H
  H178     1.0000 0.90610  0.07030  0.51600  Biso   1.000  H
  H179     1.0000 0.59390  0.57030  0.98400  Biso   1.000  H
  H180     1.0000 0.40610  0.57030  0.51600  Biso   1.000  H
  H181     1.0000 0.90610  0.92970  0.01600  Biso   1.000  H
  H182     1.0000 0.09390  0.92970  0.48400  Biso   1.000  H
  H183     1.0000 0.40610  0.42970  0.01600  Biso   1.000  H
  H184     1.0000 0.59390  0.42970  0.48400  Biso   1.000  H
  F97      1.0000 0.06700  0.50270  0.00410  Biso   1.000  F
  F98      1.0000 0.93300  0.50270  0.49590  Biso   1.000  F
  F99      1.0000 0.56700  0.00270  0.00410  Biso   1.000  F
  F100     1.0000 0.43300  0.00270  0.49590  Biso   1.000  F
  F101     1.0000 0.93300  0.49730  0.99590  Biso   1.000  F
  F102     1.0000 0.06700  0.49730  0.50410  Biso   1.000  F
  F103     1.0000 0.43300  0.99730  0.99590  Biso   1.000  F
  F104     1.0000 0.56700  0.99730  0.50410  Biso   1.000  F
  F105     1.0000 0.07380  0.66010  0.95510  Biso   1.000  F
  F106     1.0000 0.92620  0.66010  0.54490  Biso   1.000  F
  F107     1.0000 0.57380  0.16010  0.95510  Biso   1.000  F
  F108     1.0000 0.42620  0.16010  0.54490  Biso   1.000  F
  F109     1.0000 0.92620  0.33990  0.04490  Biso   1.000  F
  F110     1.0000 0.07380  0.33990  0.45510  Biso   1.000  F
  F111     1.0000 0.42620  0.83990  0.04490  Biso   1.000  F
  F112     1.0000 0.57380  0.83990  0.45510  Biso   1.000  F
  F113     1.0000 0.13340  0.63600  0.05140  Biso   1.000  F
  F114     1.0000 0.86660  0.63600  0.44860  Biso   1.000  F
  F115     1.0000 0.63340  0.13600  0.05140  Biso   1.000  F
  F116     1.0000 0.36660  0.13600  0.44860  Biso   1.000  F
  F117     1.0000 0.86660  0.36400  0.94860  Biso   1.000  F
  F118     1.0000 0.13340  0.36400  0.55140  Biso   1.000  F
  F119     1.0000 0.36660  0.86400  0.94860  Biso   1.000  F
  F120     1.0000 0.63340  0.86400  0.55140  Biso   1.000  F
  F121     1.0000 0.04050  0.80320  0.18650  Biso   1.000  F
  F122     1.0000 0.95950  0.80320  0.31350  Biso   1.000  F
  F123     1.0000 0.54050  0.30320  0.18650  Biso   1.000  F
  F124     1.0000 0.45950  0.30320  0.31350  Biso   1.000  F
  F125     1.0000 0.95950  0.19680  0.81350  Biso   1.000  F
  F126     1.0000 0.04050  0.19680  0.68650  Biso   1.000  F
  F127     1.0000 0.45950  0.69680  0.81350  Biso   1.000  F
  F128     1.0000 0.54050  0.69680  0.68650  Biso   1.000  F
  F129     1.0000 0.96330  0.71620  0.11780  Biso   1.000  F
  F130     1.0000 0.03670  0.71620  0.38220  Biso   1.000  F
  F131     1.0000 0.46330  0.21620  0.11780  Biso   1.000  F
  F132     1.0000 0.53670  0.21620  0.38220  Biso   1.000  F
  F133     1.0000 0.03670  0.28380  0.88220  Biso   1.000  F
  F134     1.0000 0.96330  0.28380  0.61780  Biso   1.000  F
  F135     1.0000 0.53670  0.78380  0.88220  Biso   1.000  F
  F136     1.0000 0.46330  0.78380  0.61780  Biso   1.000  F
  F137     1.0000 0.03320  0.59200  0.15700  Biso   1.000  F
  F138     1.0000 0.96680  0.59200  0.34300  Biso   1.000  F
  F139     1.0000 0.53320  0.09200  0.15700  Biso   1.000  F
  F140     1.0000 0.46680  0.09200  0.34300  Biso   1.000  F
  F141     1.0000 0.96680  0.40800  0.84300  Biso   1.000  F
  F142     1.0000 0.03320  0.40800  0.65700  Biso   1.000  F
  F143     1.0000 0.46680  0.90800  0.84300  Biso   1.000  F
  F144     1.0000 0.53320  0.90800  0.65700  Biso   1.000  F
  F145     1.0000 0.28420  0.25170  0.96450  Biso   1.000  F
  F146     1.0000 0.71580  0.25170  0.53550  Biso   1.000  F
  F147     1.0000 0.78420  0.75170  0.96450  Biso   1.000  F
  F148     1.0000 0.21580  0.75170  0.53550  Biso   1.000  F
  F149     1.0000 0.71580  0.74830  0.03550  Biso   1.000  F
  F150     1.0000 0.28420  0.74830  0.46450  Biso   1.000  F
  F151     1.0000 0.21580  0.24830  0.03550  Biso   1.000  F
  F152     1.0000 0.78420  0.24830  0.46450  Biso   1.000  F
  F153     1.0000 0.22170  0.14600  0.89340  Biso   1.000  F
  F154     1.0000 0.77830  0.14600  0.60660  Biso   1.000  F
  F155     1.0000 0.72170  0.64600  0.89340  Biso   1.000  F
  F156     1.0000 0.27830  0.64600  0.60660  Biso   1.000  F
  F157     1.0000 0.77830  0.85400  0.10660  Biso   1.000  F
  F158     1.0000 0.22170  0.85400  0.39340  Biso   1.000  F
  F159     1.0000 0.27830  0.35400  0.10660  Biso   1.000  F
  F160     1.0000 0.72170  0.35400  0.39340  Biso   1.000  F
  F161     1.0000 0.29520  0.11620  0.91100  Biso   1.000  F
  F162     1.0000 0.70480  0.11620  0.58900  Biso   1.000  F
  F163     1.0000 0.79520  0.61620  0.91100  Biso   1.000  F
  F164     1.0000 0.20480  0.61620  0.58900  Biso   1.000  F
  F165     1.0000 0.70480  0.88380  0.08900  Biso   1.000  F
  F166     1.0000 0.29520  0.88380  0.41100  Biso   1.000  F
  F167     1.0000 0.20480  0.38380  0.08900  Biso   1.000  F
  F168     1.0000 0.79520  0.38380  0.41100  Biso   1.000  F
  F169     1.0000 0.35930  0.92440  0.19820  Biso   1.000  F
  F170     1.0000 0.64070  0.92440  0.30180  Biso   1.000  F
  F171     1.0000 0.85930  0.42440  0.19820  Biso   1.000  F
  F172     1.0000 0.14070  0.42440  0.30180  Biso   1.000  F
  F173     1.0000 0.64070  0.07560  0.80180  Biso   1.000  F
  F174     1.0000 0.35930  0.07560  0.69820  Biso   1.000  F
  F175     1.0000 0.14070  0.57560  0.80180  Biso   1.000  F
  F176     1.0000 0.85930  0.57560  0.69820  Biso   1.000  F
  F177     1.0000 0.41690  0.91400  0.18350  Biso   1.000  F
  F178     1.0000 0.58310  0.91400  0.31650  Biso   1.000  F
  F179     1.0000 0.91690  0.41400  0.18350  Biso   1.000  F
  F180     1.0000 0.08310  0.41400  0.31650  Biso   1.000  F
  F181     1.0000 0.58310  0.08600  0.81650  Biso   1.000  F
  F182     1.0000 0.41690  0.08600  0.68350  Biso   1.000  F
  F183     1.0000 0.08310  0.58600  0.81650  Biso   1.000  F
  F184     1.0000 0.91690  0.58600  0.68350  Biso   1.000  F
  F185     1.0000 0.38260  0.10230  0.17500  Biso   1.000  F
  F186     1.0000 0.61740  0.10230  0.32500  Biso   1.000  F
  F187     1.0000 0.88260  0.60230  0.17500  Biso   1.000  F
  F188     1.0000 0.11740  0.60230  0.32500  Biso   1.000  F
  F189     1.0000 0.61740  0.89770  0.82500  Biso   1.000  F
  F190     1.0000 0.38260  0.89770  0.67500  Biso   1.000  F
  F191     1.0000 0.11740  0.39770  0.82500  Biso   1.000  F
  F192     1.0000 0.88260  0.39770  0.67500  Biso   1.000  F
  C185     1.0000 0.11100  0.92430  0.90560  Biso   1.000  C
  C186     1.0000 0.88900  0.92430  0.59440  Biso   1.000  C
  C187     1.0000 0.61100  0.42430  0.90560  Biso   1.000  C
  C188     1.0000 0.38900  0.42430  0.59440  Biso   1.000  C
  C189     1.0000 0.88900  0.07570  0.09440  Biso   1.000  C
  C190     1.0000 0.11100  0.07570  0.40560  Biso   1.000  C
  C191     1.0000 0.38900  0.57570  0.09440  Biso   1.000  C
  C192     1.0000 0.61100  0.57570  0.40560  Biso   1.000  C
  H185     1.0000 0.11770  0.82920  0.89920  Biso   1.000  H
  H186     1.0000 0.88230  0.82920  0.60080  Biso   1.000  H
  H187     1.0000 0.61770  0.32920  0.89920  Biso   1.000  H
  H188     1.0000 0.38230  0.32920  0.60080  Biso   1.000  H
  H189     1.0000 0.88230  0.17080  0.10080  Biso   1.000  H
  H190     1.0000 0.11770  0.17080  0.39920  Biso   1.000  H
  H191     1.0000 0.38230  0.67080  0.10080  Biso   1.000  H
  H192     1.0000 0.61770  0.67080  0.39920  Biso   1.000  H
  H193     1.0000 0.07330  0.93310  0.88810  Biso   1.000  H
  H194     1.0000 0.92670  0.93310  0.61190  Biso   1.000  H
  H195     1.0000 0.57330  0.43310  0.88810  Biso   1.000  H
  H196     1.0000 0.42670  0.43310  0.61190  Biso   1.000  H
  H197     1.0000 0.92670  0.06690  0.11190  Biso   1.000  H
  H198     1.0000 0.07330  0.06690  0.38810  Biso   1.000  H
  H199     1.0000 0.42670  0.56690  0.11190  Biso   1.000  H
  H200     1.0000 0.57330  0.56690  0.38810  Biso   1.000  H
  C193     1.0000 0.12490  0.02100  0.87410  Biso   1.000  C
  C194     1.0000 0.87510  0.02100  0.62590  Biso   1.000  C
  C195     1.0000 0.62490  0.52100  0.87410  Biso   1.000  C
  C196     1.0000 0.37510  0.52100  0.62590  Biso   1.000  C
  C197     1.0000 0.87510  0.97900  0.12590  Biso   1.000  C
  C198     1.0000 0.12490  0.97900  0.37410  Biso   1.000  C
  C199     1.0000 0.37510  0.47900  0.12590  Biso   1.000  C
  C200     1.0000 0.62490  0.47900  0.37410  Biso   1.000  C
  H201     1.0000 0.16160  0.04390  0.90840  Biso   1.000  H
  H202     1.0000 0.83840  0.04390  0.59160  Biso   1.000  H
  H203     1.0000 0.66160  0.54390  0.90840  Biso   1.000  H
  H204     1.0000 0.33840  0.54390  0.59160  Biso   1.000  H
  H205     1.0000 0.83840  0.95610  0.09160  Biso   1.000  H
  H206     1.0000 0.16160  0.95610  0.40840  Biso   1.000  H
  H207     1.0000 0.33840  0.45610  0.09160  Biso   1.000  H
  H208     1.0000 0.66160  0.45610  0.40840  Biso   1.000  H
  H209     1.0000 0.12830  0.95760  0.84750  Biso   1.000  H
  H210     1.0000 0.87170  0.95760  0.65250  Biso   1.000  H
  H211     1.0000 0.62830  0.45760  0.84750  Biso   1.000  H
  H212     1.0000 0.37170  0.45760  0.65250  Biso   1.000  H
  H213     1.0000 0.87170  0.04240  0.15250  Biso   1.000  H
  H214     1.0000 0.12830  0.04240  0.34750  Biso   1.000  H
  H215     1.0000 0.37170  0.54240  0.15250  Biso   1.000  H
  H216     1.0000 0.62830  0.54240  0.34750  Biso   1.000  H
  C201     1.0000 0.11340  0.10970  0.84800  Biso   1.000  C
  C202     1.0000 0.88660  0.10970  0.65200  Biso   1.000  C
  C203     1.0000 0.61340  0.60970  0.84800  Biso   1.000  C
  C204     1.0000 0.38660  0.60970  0.65200  Biso   1.000  C
  C205     1.0000 0.88660  0.89030  0.15200  Biso   1.000  C
  C206     1.0000 0.11340  0.89030  0.34800  Biso   1.000  C
  C207     1.0000 0.38660  0.39030  0.15200  Biso   1.000  C
  C208     1.0000 0.61340  0.39030  0.34800  Biso   1.000  C
  H217     1.0000 0.13850  0.13110  0.83840  Biso   1.000  H
  H218     1.0000 0.86150  0.13110  0.66160  Biso   1.000  H
  H219     1.0000 0.63850  0.63110  0.83840  Biso   1.000  H
  H220     1.0000 0.36150  0.63110  0.66160  Biso   1.000  H
  H221     1.0000 0.86150  0.86890  0.16160  Biso   1.000  H
  H222     1.0000 0.13850  0.86890  0.33840  Biso   1.000  H
  H223     1.0000 0.36150  0.36890  0.16160  Biso   1.000  H
  H224     1.0000 0.63850  0.36890  0.33840  Biso   1.000  H
  H225     1.0000 0.07840  0.09680  0.80930  Biso   1.000  H
  H226     1.0000 0.92160  0.09680  0.69070  Biso   1.000  H
  H227     1.0000 0.57840  0.59680  0.80930  Biso   1.000  H
  H228     1.0000 0.42160  0.59680  0.69070  Biso   1.000  H
  H229     1.0000 0.92160  0.90320  0.19070  Biso   1.000  H
  H230     1.0000 0.07840  0.90320  0.30930  Biso   1.000  H
  H231     1.0000 0.42160  0.40320  0.19070  Biso   1.000  H
  H232     1.0000 0.57840  0.40320  0.30930  Biso   1.000  H
  H233     1.0000 0.11240  0.18510  0.87160  Biso   1.000  H
  H234     1.0000 0.88760  0.18510  0.62840  Biso   1.000  H
  H235     1.0000 0.61240  0.68510  0.87160  Biso   1.000  H
  H236     1.0000 0.38760  0.68510  0.62840  Biso   1.000  H
  H237     1.0000 0.88760  0.81490  0.12840  Biso   1.000  H
  H238     1.0000 0.11240  0.81490  0.37160  Biso   1.000  H
  H239     1.0000 0.38760  0.31490  0.12840  Biso   1.000  H
  H240     1.0000 0.61240  0.31490  0.37160  Biso   1.000  H
