data_image0
_cell_length_a       30.4776
_cell_length_b       9.6557
_cell_length_c       25.8393
_cell_angle_alpha    90
_cell_angle_beta     126.221
_cell_angle_gamma    90

_symmetry_space_group_name_H-M    "P 1"
_symmetry_int_tables_number       1

loop_
  _symmetry_equiv_pos_as_xyz
  'x, y, z'

loop_
  _atom_site_label
  _atom_site_occupancy
  _atom_site_fract_x
  _atom_site_fract_y
  _atom_site_fract_z
  _atom_site_thermal_displace_type
  _atom_site_B_iso_or_equiv
  _atom_site_type_symbol
  Cu1      1.0000 0.75204  0.25158  0.00089  Biso   1.000  Cu
  Cu2      1.0000 0.74796  0.75158  0.49911  Biso   1.000  Cu
  Cu3      1.0000 0.24796  0.74842  0.99911  Biso   1.000  Cu
  Cu4      1.0000 0.25204  0.24842  0.50089  Biso   1.000  Cu
  O1       1.0000 0.70683  0.09972  0.99593  Biso   1.000  O
  O2       1.0000 0.79317  0.59972  0.50407  Biso   1.000  O
  O3       1.0000 0.29317  0.90028  0.00407  Biso   1.000  O
  O4       1.0000 0.20683  0.40028  0.49593  Biso   1.000  O
  O5       1.0000 0.82021  0.15174  0.07829  Biso   1.000  O
  O6       1.0000 0.67979  0.65174  0.42171  Biso   1.000  O
  O7       1.0000 0.17979  0.84826  0.92171  Biso   1.000  O
  O8       1.0000 0.32021  0.34826  0.57829  Biso   1.000  O
  O9       1.0000 0.68433  0.35134  0.92310  Biso   1.000  O
  O10      1.0000 0.81567  0.85134  0.57690  Biso   1.000  O
  O11      1.0000 0.31567  0.64866  0.07690  Biso   1.000  O
  O12      1.0000 0.18433  0.14866  0.42310  Biso   1.000  O
  O13      1.0000 0.79761  0.40372  0.00628  Biso   1.000  O
  O14      1.0000 0.70239  0.90372  0.49372  Biso   1.000  O
  O15      1.0000 0.20239  0.59628  0.99372  Biso   1.000  O
  O16      1.0000 0.29761  0.09628  0.50628  Biso   1.000  O
  O17      1.0000 0.73290  0.38814  0.05303  Biso   1.000  O
  O18      1.0000 0.76710  0.88814  0.44697  Biso   1.000  O
  O19      1.0000 0.26710  0.61186  0.94697  Biso   1.000  O
  O20      1.0000 0.23290  0.11186  0.55303  Biso   1.000  O
  O21      1.0000 0.76859  0.11331  0.94692  Biso   1.000  O
  O22      1.0000 0.73141  0.61331  0.55308  Biso   1.000  O
  O23      1.0000 0.23141  0.88669  0.05308  Biso   1.000  O
  O24      1.0000 0.26859  0.38669  0.44692  Biso   1.000  O
  C1       1.0000 0.72332  0.98480  0.02389  Biso   1.000  C
  C2       1.0000 0.77668  0.48480  0.47611  Biso   1.000  C
  C3       1.0000 0.27668  0.01520  0.97611  Biso   1.000  C
  C4       1.0000 0.22332  0.51520  0.52389  Biso   1.000  C
  C5       1.0000 0.82030  0.02840  0.09332  Biso   1.000  C
  C6       1.0000 0.67970  0.52840  0.40668  Biso   1.000  C
  C7       1.0000 0.17970  0.97160  0.90668  Biso   1.000  C
  C8       1.0000 0.32030  0.47160  0.59332  Biso   1.000  C
  C9       1.0000 0.68429  0.47470  0.90870  Biso   1.000  C
  C10      1.0000 0.81571  0.97470  0.59130  Biso   1.000  C
  C11      1.0000 0.31571  0.52530  0.09130  Biso   1.000  C
  C12      1.0000 0.18429  0.02530  0.40870  Biso   1.000  C
  C13      1.0000 0.78106  0.51880  0.97834  Biso   1.000  C
  C14      1.0000 0.71894  0.01880  0.52166  Biso   1.000  C
  C15      1.0000 0.21894  0.48120  0.02166  Biso   1.000  C
  C16      1.0000 0.28106  0.98120  0.47834  Biso   1.000  C
  N1       1.0000 0.74112  0.36230  0.10765  Biso   1.000  N
  N2       1.0000 0.75888  0.86230  0.39235  Biso   1.000  N
  N3       1.0000 0.25888  0.63770  0.89235  Biso   1.000  N
  N4       1.0000 0.24112  0.13770  0.60765  Biso   1.000  N
  N5       1.0000 0.75873  0.14190  0.89170  Biso   1.000  N
  N6       1.0000 0.74127  0.64190  0.60830  Biso   1.000  N
  N7       1.0000 0.24127  0.85810  0.10830  Biso   1.000  N
  N8       1.0000 0.25873  0.35810  0.39170  Biso   1.000  N
  C17      1.0000 0.67747  0.88240  0.00300  Biso   1.000  C
  C18      1.0000 0.82253  0.38240  0.49700  Biso   1.000  C
  C19      1.0000 0.32253  0.11760  0.99700  Biso   1.000  C
  C20      1.0000 0.17747  0.61760  0.50300  Biso   1.000  C
  C21      1.0000 0.77592  0.94240  0.07027  Biso   1.000  C
  C22      1.0000 0.72408  0.44240  0.42973  Biso   1.000  C
  C23      1.0000 0.22408  0.05760  0.92973  Biso   1.000  C
  C24      1.0000 0.27592  0.55760  0.57027  Biso   1.000  C
  C25      1.0000 0.87655  0.97060  0.14273  Biso   1.000  C
  C26      1.0000 0.62345  0.47060  0.35727  Biso   1.000  C
  C27      1.0000 0.12345  0.02940  0.85727  Biso   1.000  C
  C28      1.0000 0.37655  0.52940  0.64273  Biso   1.000  C
  C29      1.0000 0.62787  0.53360  0.85980  Biso   1.000  C
  C30      1.0000 0.87213  0.03360  0.64020  Biso   1.000  C
  C31      1.0000 0.37213  0.46640  0.14020  Biso   1.000  C
  C32      1.0000 0.12787  0.96640  0.35980  Biso   1.000  C
  C33      1.0000 0.72862  0.56110  0.93194  Biso   1.000  C
  C34      1.0000 0.77138  0.06110  0.56806  Biso   1.000  C
  C35      1.0000 0.27138  0.43890  0.06806  Biso   1.000  C
  C36      1.0000 0.22862  0.93890  0.43194  Biso   1.000  C
  C37      1.0000 0.82720  0.62180  0.00110  Biso   1.000  C
  C38      1.0000 0.67280  0.12180  0.49890  Biso   1.000  C
  C39      1.0000 0.17280  0.37820  0.99890  Biso   1.000  C
  C40      1.0000 0.32720  0.87820  0.50110  Biso   1.000  C
  C41      1.0000 0.78835  0.42440  0.16916  Biso   1.000  C
  C42      1.0000 0.71165  0.92440  0.33084  Biso   1.000  C
  C43      1.0000 0.21165  0.57560  0.83084  Biso   1.000  C
  C44      1.0000 0.28835  0.07560  0.66916  Biso   1.000  C
  C45      1.0000 0.70530  0.30420  0.11436  Biso   1.000  C
  C46      1.0000 0.79470  0.80420  0.38564  Biso   1.000  C
  C47      1.0000 0.29470  0.69580  0.88564  Biso   1.000  C
  C48      1.0000 0.20530  0.19580  0.61436  Biso   1.000  C
  C49      1.0000 0.71101  0.07950  0.83043  Biso   1.000  C
  C50      1.0000 0.78899  0.57950  0.66957  Biso   1.000  C
  C51      1.0000 0.28899  0.92050  0.16957  Biso   1.000  C
  C52      1.0000 0.21101  0.42050  0.33043  Biso   1.000  C
  C53      1.0000 0.79336  0.20230  0.88368  Biso   1.000  C
  C54      1.0000 0.70664  0.70230  0.61632  Biso   1.000  C
  C55      1.0000 0.20664  0.79770  0.11632  Biso   1.000  C
  C56      1.0000 0.29336  0.29770  0.38368  Biso   1.000  C
  F1       1.0000 0.64480  0.87430  0.93490  Biso   1.000  F
  F2       1.0000 0.85520  0.37430  0.56510  Biso   1.000  F
  F3       1.0000 0.35520  0.12570  0.06510  Biso   1.000  F
  F4       1.0000 0.14480  0.62570  0.43490  Biso   1.000  F
  F5       1.0000 0.64650  0.91250  0.01630  Biso   1.000  F
  F6       1.0000 0.85350  0.41250  0.48370  Biso   1.000  F
  F7       1.0000 0.35350  0.08750  0.98370  Biso   1.000  F
  F8       1.0000 0.14650  0.58750  0.51630  Biso   1.000  F
  F9       1.0000 0.69440  0.74110  0.01200  Biso   1.000  F
  F10      1.0000 0.80560  0.24110  0.48800  Biso   1.000  F
  F11      1.0000 0.30560  0.25890  0.98800  Biso   1.000  F
  F12      1.0000 0.19440  0.75890  0.51200  Biso   1.000  F
  H1       1.0000 0.78190  0.85210  0.08680  Biso   1.000  H
  H2       1.0000 0.71810  0.35210  0.41320  Biso   1.000  H
  H3       1.0000 0.21810  0.14790  0.91320  Biso   1.000  H
  H4       1.0000 0.28190  0.64790  0.58680  Biso   1.000  H
  F13      1.0000 0.87741  0.84850  0.16421  Biso   1.000  F
  F14      1.0000 0.62259  0.34850  0.33579  Biso   1.000  F
  F15      1.0000 0.12259  0.15150  0.83579  Biso   1.000  F
  F16      1.0000 0.37741  0.65150  0.66421  Biso   1.000  F
  F17      1.0000 0.90439  0.05440  0.19287  Biso   1.000  F
  F18      1.0000 0.59561  0.55440  0.30713  Biso   1.000  F
  F19      1.0000 0.09561  0.94560  0.80713  Biso   1.000  F
  F20      1.0000 0.40439  0.44560  0.69287  Biso   1.000  F
  F21      1.0000 0.90384  0.96000  0.11772  Biso   1.000  F
  F22      1.0000 0.59616  0.46000  0.38228  Biso   1.000  F
  F23      1.0000 0.09616  0.04000  0.88228  Biso   1.000  F
  F24      1.0000 0.40384  0.54000  0.61772  Biso   1.000  F
  F25      1.0000 0.60350  0.55650  0.89220  Biso   1.000  F
  F26      1.0000 0.89650  0.05650  0.60780  Biso   1.000  F
  F27      1.0000 0.39650  0.44350  0.10780  Biso   1.000  F
  F28      1.0000 0.10350  0.94350  0.39220  Biso   1.000  F
  F29      1.0000 0.59780  0.43720  0.81780  Biso   1.000  F
  F30      1.0000 0.90220  0.93720  0.68220  Biso   1.000  F
  F31      1.0000 0.40220  0.56280  0.18220  Biso   1.000  F
  F32      1.0000 0.09780  0.06280  0.31780  Biso   1.000  F
  F33      1.0000 0.62580  0.66900  0.83610  Biso   1.000  F
  F34      1.0000 0.87420  0.16900  0.66390  Biso   1.000  F
  F35      1.0000 0.37420  0.33100  0.16390  Biso   1.000  F
  F36      1.0000 0.12580  0.83100  0.33610  Biso   1.000  F
  H5       1.0000 0.72270  0.65140  0.91550  Biso   1.000  H
  H6       1.0000 0.77730  0.15140  0.58450  Biso   1.000  H
  H7       1.0000 0.27730  0.34860  0.08450  Biso   1.000  H
  H8       1.0000 0.22270  0.84860  0.41550  Biso   1.000  H
  F37      1.0000 0.80940  0.76320  0.98570  Biso   1.000  F
  F38      1.0000 0.69060  0.26320  0.51430  Biso   1.000  F
  F39      1.0000 0.19060  0.23680  0.01430  Biso   1.000  F
  F40      1.0000 0.30940  0.73680  0.48570  Biso   1.000  F
  F41      1.0000 0.85440  0.64140  0.06820  Biso   1.000  F
  F42      1.0000 0.64560  0.14140  0.43180  Biso   1.000  F
  F43      1.0000 0.14560  0.35860  0.93180  Biso   1.000  F
  F44      1.0000 0.35440  0.85860  0.56820  Biso   1.000  F
  F45      1.0000 0.86340  0.58160  0.99670  Biso   1.000  F
  F46      1.0000 0.63660  0.08160  0.50330  Biso   1.000  F
  F47      1.0000 0.13660  0.41840  0.00330  Biso   1.000  F
  F48      1.0000 0.36340  0.91840  0.49670  Biso   1.000  F
  C57      1.0000 0.84013  0.41210  0.17356  Biso   1.000  C
  C58      1.0000 0.65987  0.91210  0.32644  Biso   1.000  C
  C59      1.0000 0.15987  0.58790  0.82644  Biso   1.000  C
  C60      1.0000 0.34013  0.08790  0.67356  Biso   1.000  C
  C61      1.0000 0.77336  0.57640  0.16773  Biso   1.000  C
  C62      1.0000 0.72664  0.07640  0.33227  Biso   1.000  C
  C63      1.0000 0.22664  0.42360  0.83227  Biso   1.000  C
  C64      1.0000 0.27336  0.92360  0.66773  Biso   1.000  C
  C65      1.0000 0.78659  0.33500  0.21771  Biso   1.000  C
  C66      1.0000 0.71341  0.83500  0.28229  Biso   1.000  C
  C67      1.0000 0.21341  0.66500  0.78229  Biso   1.000  C
  C68      1.0000 0.28659  0.16500  0.71771  Biso   1.000  C
  N9       1.0000 0.72711  0.29950  0.17754  Biso   1.000  N
  N10      1.0000 0.77289  0.79950  0.32246  Biso   1.000  N
  N11      1.0000 0.27289  0.70050  0.82246  Biso   1.000  N
  N12      1.0000 0.22711  0.20050  0.67754  Biso   1.000  N
  C69      1.0000 0.65234  0.25340  0.06339  Biso   1.000  C
  C70      1.0000 0.84766  0.75340  0.43661  Biso   1.000  C
  C71      1.0000 0.34766  0.74660  0.93661  Biso   1.000  C
  C72      1.0000 0.15234  0.24660  0.56339  Biso   1.000  C
  C73      1.0000 0.65999  0.08770  0.82787  Biso   1.000  C
  C74      1.0000 0.84001  0.58770  0.67213  Biso   1.000  C
  C75      1.0000 0.34001  0.91230  0.17213  Biso   1.000  C
  C76      1.0000 0.15999  0.41230  0.32787  Biso   1.000  C
  C77      1.0000 0.72686  0.92890  0.83086  Biso   1.000  C
  C78      1.0000 0.77314  0.42890  0.66914  Biso   1.000  C
  C79      1.0000 0.27314  0.07110  0.16914  Biso   1.000  C
  C80      1.0000 0.22686  0.57110  0.33086  Biso   1.000  C
  C81      1.0000 0.71086  0.17220  0.78126  Biso   1.000  C
  C82      1.0000 0.78914  0.67220  0.71874  Biso   1.000  C
  C83      1.0000 0.28914  0.82780  0.21874  Biso   1.000  C
  C84      1.0000 0.21086  0.32780  0.28126  Biso   1.000  C
  N13      1.0000 0.76993  0.20990  0.81992  Biso   1.000  N
  N14      1.0000 0.73007  0.70990  0.68008  Biso   1.000  N
  N15      1.0000 0.23007  0.79010  0.18008  Biso   1.000  N
  N16      1.0000 0.26993  0.29010  0.31992  Biso   1.000  N
  C85      1.0000 0.84702  0.25010  0.93383  Biso   1.000  C
  C86      1.0000 0.65298  0.75010  0.56617  Biso   1.000  C
  C87      1.0000 0.15298  0.74990  0.06617  Biso   1.000  C
  C88      1.0000 0.34702  0.24990  0.43383  Biso   1.000  C
  H9       1.0000 0.87020  0.45270  0.21350  Biso   1.000  H
  H10      1.0000 0.62980  0.95270  0.28650  Biso   1.000  H
  H11      1.0000 0.12980  0.54730  0.78650  Biso   1.000  H
  H12      1.0000 0.37020  0.04730  0.71350  Biso   1.000  H
  H13      1.0000 0.84780  0.31520  0.17220  Biso   1.000  H
  H14      1.0000 0.65220  0.81520  0.32780  Biso   1.000  H
  H15      1.0000 0.15220  0.68480  0.82780  Biso   1.000  H
  H16      1.0000 0.34780  0.18480  0.67220  Biso   1.000  H
  H17      1.0000 0.83560  0.46060  0.13780  Biso   1.000  H
  H18      1.0000 0.66440  0.96060  0.36220  Biso   1.000  H
  H19      1.0000 0.16440  0.53940  0.86220  Biso   1.000  H
  H20      1.0000 0.33560  0.03940  0.63780  Biso   1.000  H
  H21      1.0000 0.80260  0.62220  0.20660  Biso   1.000  H
  H22      1.0000 0.69740  0.12220  0.29340  Biso   1.000  H
  H23      1.0000 0.19740  0.37780  0.79340  Biso   1.000  H
  H24      1.0000 0.30260  0.87780  0.70660  Biso   1.000  H
  H25      1.0000 0.76770  0.62180  0.13070  Biso   1.000  H
  H26      1.0000 0.73230  0.12180  0.36930  Biso   1.000  H
  H27      1.0000 0.23230  0.37820  0.86930  Biso   1.000  H
  H28      1.0000 0.26770  0.87820  0.63070  Biso   1.000  H
  H29      1.0000 0.74020  0.58150  0.16490  Biso   1.000  H
  H30      1.0000 0.75980  0.08150  0.33510  Biso   1.000  H
  H31      1.0000 0.25980  0.41850  0.83510  Biso   1.000  H
  H32      1.0000 0.24020  0.91850  0.66490  Biso   1.000  H
  C89      1.0000 0.80310  0.40860  0.27897  Biso   1.000  C
  C90      1.0000 0.69690  0.90860  0.22103  Biso   1.000  C
  C91      1.0000 0.19690  0.59140  0.72103  Biso   1.000  C
  C92      1.0000 0.30310  0.09140  0.77897  Biso   1.000  C
  C93      1.0000 0.81652  0.19680  0.23334  Biso   1.000  C
  C94      1.0000 0.68348  0.69680  0.26666  Biso   1.000  C
  C95      1.0000 0.18348  0.80320  0.76666  Biso   1.000  C
  C96      1.0000 0.31652  0.30320  0.73334  Biso   1.000  C
  O25      1.0000 0.70365  0.25260  0.20139  Biso   1.000  O
  O26      1.0000 0.79635  0.75260  0.29861  Biso   1.000  O
  O27      1.0000 0.29635  0.74740  0.79861  Biso   1.000  O
  O28      1.0000 0.20365  0.24740  0.70139  Biso   1.000  O
  C97      1.0000 0.61535  0.17520  0.06756  Biso   1.000  C
  C98      1.0000 0.88465  0.67520  0.43244  Biso   1.000  C
  C99      1.0000 0.38465  0.82480  0.93244  Biso   1.000  C
  C100     1.0000 0.11535  0.32480  0.56756  Biso   1.000  C
  C101     1.0000 0.62696  0.26720  0.99850  Biso   1.000  C
  C102     1.0000 0.87304  0.76720  0.50150  Biso   1.000  C
  C103     1.0000 0.37304  0.73280  0.00150  Biso   1.000  C
  C104     1.0000 0.12696  0.23280  0.49850  Biso   1.000  C
  H33      1.0000 0.62970  0.04710  0.78810  Biso   1.000  H
  H34      1.0000 0.87030  0.54710  0.71190  Biso   1.000  H
  H35      1.0000 0.37030  0.95290  0.21190  Biso   1.000  H
  H36      1.0000 0.12970  0.45290  0.28810  Biso   1.000  H
  H37      1.0000 0.66570  0.03740  0.86390  Biso   1.000  H
  H38      1.0000 0.83430  0.53740  0.63610  Biso   1.000  H
  H39      1.0000 0.33430  0.96260  0.13610  Biso   1.000  H
  H40      1.0000 0.16570  0.46260  0.36390  Biso   1.000  H
  H41      1.0000 0.65200  0.18390  0.83000  Biso   1.000  H
  H42      1.0000 0.84800  0.68390  0.67000  Biso   1.000  H
  H43      1.0000 0.34800  0.81610  0.17000  Biso   1.000  H
  H44      1.0000 0.15200  0.31610  0.33000  Biso   1.000  H
  H45      1.0000 0.69750  0.88270  0.79220  Biso   1.000  H
  H46      1.0000 0.80250  0.38270  0.70780  Biso   1.000  H
  H47      1.0000 0.30250  0.11730  0.20780  Biso   1.000  H
  H48      1.0000 0.19750  0.61730  0.29220  Biso   1.000  H
  H49      1.0000 0.75950  0.92650  0.83250  Biso   1.000  H
  H50      1.0000 0.74050  0.42650  0.66750  Biso   1.000  H
  H51      1.0000 0.24050  0.07350  0.16750  Biso   1.000  H
  H52      1.0000 0.25950  0.57350  0.33250  Biso   1.000  H
  H53      1.0000 0.73370  0.88190  0.86820  Biso   1.000  H
  H54      1.0000 0.76630  0.38190  0.63180  Biso   1.000  H
  H55      1.0000 0.26630  0.11810  0.13180  Biso   1.000  H
  H56      1.0000 0.23370  0.61810  0.36820  Biso   1.000  H
  C105     1.0000 0.69365  0.10040  0.71923  Biso   1.000  C
  C106     1.0000 0.80635  0.60040  0.78077  Biso   1.000  C
  C107     1.0000 0.30635  0.89960  0.28077  Biso   1.000  C
  C108     1.0000 0.19365  0.39960  0.21923  Biso   1.000  C
  C109     1.0000 0.68043  0.30870  0.76709  Biso   1.000  C
  C110     1.0000 0.81957  0.80870  0.73291  Biso   1.000  C
  C111     1.0000 0.31957  0.69130  0.23291  Biso   1.000  C
  C112     1.0000 0.18043  0.19130  0.26709  Biso   1.000  C
  O29      1.0000 0.79224  0.25950  0.79530  Biso   1.000  O
  O30      1.0000 0.70776  0.75950  0.70470  Biso   1.000  O
  O31      1.0000 0.20776  0.74050  0.20470  Biso   1.000  O
  O32      1.0000 0.29224  0.24050  0.29530  Biso   1.000  O
  C113     1.0000 0.88283  0.33140  0.92896  Biso   1.000  C
  C114     1.0000 0.61717  0.83140  0.57104  Biso   1.000  C
  C115     1.0000 0.11717  0.66860  0.07104  Biso   1.000  C
  C116     1.0000 0.38283  0.16860  0.42896  Biso   1.000  C
  C117     1.0000 0.87504  0.22520  0.99855  Biso   1.000  C
  C118     1.0000 0.62496  0.72520  0.50145  Biso   1.000  C
  C119     1.0000 0.12496  0.77480  0.00145  Biso   1.000  C
  C120     1.0000 0.37504  0.27480  0.49855  Biso   1.000  C
  H57      1.0000 0.84150  0.43090  0.30440  Biso   1.000  H
  H58      1.0000 0.65850  0.93090  0.19560  Biso   1.000  H
  H59      1.0000 0.15850  0.56910  0.69560  Biso   1.000  H
  H60      1.0000 0.34150  0.06910  0.80440  Biso   1.000  H
  H61      1.0000 0.78220  0.49330  0.26800  Biso   1.000  H
  H62      1.0000 0.71780  0.99330  0.23200  Biso   1.000  H
  H63      1.0000 0.21780  0.50670  0.73200  Biso   1.000  H
  H64      1.0000 0.28220  0.00670  0.76800  Biso   1.000  H
  H65      1.0000 0.79610  0.34860  0.30340  Biso   1.000  H
  H66      1.0000 0.70390  0.84860  0.19660  Biso   1.000  H
  H67      1.0000 0.20390  0.65140  0.69660  Biso   1.000  H
  H68      1.0000 0.29610  0.15140  0.80340  Biso   1.000  H
  H69      1.0000 0.85540  0.21330  0.25940  Biso   1.000  H
  H70      1.0000 0.64460  0.71330  0.24060  Biso   1.000  H
  H71      1.0000 0.14460  0.78670  0.74060  Biso   1.000  H
  H72      1.0000 0.35540  0.28670  0.75940  Biso   1.000  H
  H73      1.0000 0.80790  0.13830  0.25670  Biso   1.000  H
  H74      1.0000 0.69210  0.63830  0.24330  Biso   1.000  H
  H75      1.0000 0.19210  0.86170  0.74330  Biso   1.000  H
  H76      1.0000 0.30790  0.36170  0.75670  Biso   1.000  H
  H77      1.0000 0.80520  0.15120  0.19380  Biso   1.000  H
  H78      1.0000 0.69480  0.65120  0.30620  Biso   1.000  H
  H79      1.0000 0.19480  0.84880  0.80620  Biso   1.000  H
  H80      1.0000 0.30520  0.34880  0.69380  Biso   1.000  H
  H81      1.0000 0.62140  0.14910  0.10630  Biso   1.000  H
  H82      1.0000 0.87860  0.64910  0.39370  Biso   1.000  H
  H83      1.0000 0.37860  0.85090  0.89370  Biso   1.000  H
  H84      1.0000 0.12140  0.35090  0.60630  Biso   1.000  H
  N17      1.0000 0.57137  0.14320  0.01037  Biso   1.000  N
  N18      1.0000 0.92863  0.64320  0.48963  Biso   1.000  N
  N19      1.0000 0.42863  0.85680  0.98963  Biso   1.000  N
  N20      1.0000 0.07137  0.35680  0.51037  Biso   1.000  N
  N21      1.0000 0.57971  0.20030  0.96844  Biso   1.000  N
  N22      1.0000 0.92029  0.70030  0.53156  Biso   1.000  N
  N23      1.0000 0.42029  0.79970  0.03156  Biso   1.000  N
  N24      1.0000 0.07971  0.29970  0.46844  Biso   1.000  N
  H85      1.0000 0.64050  0.31500  0.97900  Biso   1.000  H
  H86      1.0000 0.85950  0.81500  0.52100  Biso   1.000  H
  H87      1.0000 0.35950  0.68500  0.02100  Biso   1.000  H
  H88      1.0000 0.14050  0.18500  0.47900  Biso   1.000  H
  H89      1.0000 0.65540  0.07650  0.69450  Biso   1.000  H
  H90      1.0000 0.84460  0.57650  0.80550  Biso   1.000  H
  H91      1.0000 0.34460  0.92350  0.30550  Biso   1.000  H
  H92      1.0000 0.15540  0.42350  0.19450  Biso   1.000  H
  H93      1.0000 0.69960  0.16230  0.69430  Biso   1.000  H
  H94      1.0000 0.80040  0.66230  0.80570  Biso   1.000  H
  H95      1.0000 0.30040  0.83770  0.30570  Biso   1.000  H
  H96      1.0000 0.19960  0.33770  0.19430  Biso   1.000  H
  H97      1.0000 0.71500  0.01690  0.72940  Biso   1.000  H
  H98      1.0000 0.78500  0.51690  0.77060  Biso   1.000  H
  H99      1.0000 0.28500  0.98310  0.27060  Biso   1.000  H
  H100     1.0000 0.21500  0.48310  0.22940  Biso   1.000  H
  H101     1.0000 0.64170  0.29070  0.74200  Biso   1.000  H
  H102     1.0000 0.85830  0.79070  0.75800  Biso   1.000  H
  H103     1.0000 0.35830  0.70930  0.25800  Biso   1.000  H
  H104     1.0000 0.14170  0.20930  0.24200  Biso   1.000  H
  H105     1.0000 0.69240  0.35300  0.80710  Biso   1.000  H
  H106     1.0000 0.80760  0.85300  0.69290  Biso   1.000  H
  H107     1.0000 0.30760  0.64700  0.19290  Biso   1.000  H
  H108     1.0000 0.19240  0.14700  0.30710  Biso   1.000  H
  H109     1.0000 0.68790  0.36910  0.74320  Biso   1.000  H
  H110     1.0000 0.81210  0.86910  0.75680  Biso   1.000  H
  H111     1.0000 0.31210  0.63090  0.25680  Biso   1.000  H
  H112     1.0000 0.18790  0.13090  0.24320  Biso   1.000  H
  H113     1.0000 0.87490  0.36500  0.89010  Biso   1.000  H
  H114     1.0000 0.62510  0.86500  0.60990  Biso   1.000  H
  H115     1.0000 0.12510  0.63500  0.10990  Biso   1.000  H
  H116     1.0000 0.37490  0.13500  0.39010  Biso   1.000  H
  N25      1.0000 0.92887  0.35440  0.98585  Biso   1.000  N
  N26      1.0000 0.57113  0.85440  0.51415  Biso   1.000  N
  N27      1.0000 0.07113  0.64560  0.01415  Biso   1.000  N
  N28      1.0000 0.42887  0.14560  0.48585  Biso   1.000  N
  N29      1.0000 0.92306  0.28770  0.02788  Biso   1.000  N
  N30      1.0000 0.57694  0.78770  0.47212  Biso   1.000  N
  N31      1.0000 0.07694  0.71230  0.97212  Biso   1.000  N
  N32      1.0000 0.42306  0.21230  0.52788  Biso   1.000  N
  H117     1.0000 0.86260  0.17360  0.01830  Biso   1.000  H
  H118     1.0000 0.63740  0.67360  0.48170  Biso   1.000  H
  H119     1.0000 0.13740  0.82640  0.98170  Biso   1.000  H
  H120     1.0000 0.36260  0.32640  0.51830  Biso   1.000  H
  Cu5      1.0000 0.50000  0.00000  0.00000  Biso   1.000  Cu
  Cu6      1.0000 0.00000  0.50000  0.50000  Biso   1.000  Cu
  C121     1.0000 0.54320  0.16440  0.89740  Biso   1.000  C
  C122     1.0000 0.95680  0.66440  0.60260  Biso   1.000  C
  C123     1.0000 0.45680  0.83560  0.10260  Biso   1.000  C
  C124     1.0000 0.04320  0.33560  0.39740  Biso   1.000  C
  Cu7      1.0000 0.00000  0.50000  0.00000  Biso   1.000  Cu
  Cu8      1.0000 0.50000  0.00000  0.50000  Biso   1.000  Cu
  C125     1.0000 0.96846  0.27670  0.09590  Biso   1.000  C
  C126     1.0000 0.53154  0.77670  0.40410  Biso   1.000  C
  C127     1.0000 0.03154  0.72330  0.90410  Biso   1.000  C
  C128     1.0000 0.46846  0.22330  0.59590  Biso   1.000  C
  O33      1.0000 0.44949  0.15706  0.95875  Biso   1.000  O
  O34      1.0000 0.05051  0.65706  0.54125  Biso   1.000  O
  O35      1.0000 0.55051  0.84294  0.04125  Biso   1.000  O
  O36      1.0000 0.94949  0.34294  0.45875  Biso   1.000  O
  O37      1.0000 0.52769  0.06544  0.08606  Biso   1.000  O
  O38      1.0000 0.97231  0.56544  0.41394  Biso   1.000  O
  O39      1.0000 0.47231  0.93456  0.91394  Biso   1.000  O
  O40      1.0000 0.02769  0.43456  0.58606  Biso   1.000  O
  H121     1.0000 0.56110  0.19380  0.87780  Biso   1.000  H
  H122     1.0000 0.93890  0.69380  0.62220  Biso   1.000  H
  H123     1.0000 0.43890  0.80620  0.12220  Biso   1.000  H
  H124     1.0000 0.06110  0.30620  0.37780  Biso   1.000  H
  H125     1.0000 0.53870  0.06360  0.89280  Biso   1.000  H
  H126     1.0000 0.96130  0.56360  0.60720  Biso   1.000  H
  H127     1.0000 0.46130  0.93640  0.10720  Biso   1.000  H
  H128     1.0000 0.03870  0.43640  0.39280  Biso   1.000  H
  C129     1.0000 0.48773  0.23090  0.86160  Biso   1.000  C
  C130     1.0000 0.01227  0.73090  0.63840  Biso   1.000  C
  C131     1.0000 0.51227  0.76910  0.13840  Biso   1.000  C
  C132     1.0000 0.98773  0.26910  0.36160  Biso   1.000  C
  O41      1.0000 0.02447  0.56854  0.08515  Biso   1.000  O
  O42      1.0000 0.47553  0.06854  0.41485  Biso   1.000  O
  O43      1.0000 0.97553  0.43146  0.91485  Biso   1.000  O
  O44      1.0000 0.52447  0.93146  0.58515  Biso   1.000  O
  O45      1.0000 0.95008  0.65699  0.95605  Biso   1.000  O
  O46      1.0000 0.54992  0.15699  0.54395  Biso   1.000  O
  O47      1.0000 0.04992  0.34301  0.04395  Biso   1.000  O
  O48      1.0000 0.45008  0.84301  0.45605  Biso   1.000  O
  H129     1.0000 0.00090  0.31990  0.10340  Biso   1.000  H
  H130     1.0000 0.49910  0.81990  0.39660  Biso   1.000  H
  H131     1.0000 0.99910  0.68010  0.89660  Biso   1.000  H
  H132     1.0000 0.50090  0.18010  0.60340  Biso   1.000  H
  H133     1.0000 0.97660  0.17880  0.10800  Biso   1.000  H
  H134     1.0000 0.52340  0.67880  0.39200  Biso   1.000  H
  H135     1.0000 0.02340  0.82120  0.89200  Biso   1.000  H
  H136     1.0000 0.47660  0.32120  0.60800  Biso   1.000  H
  C133     1.0000 0.95455  0.34690  0.13637  Biso   1.000  C
  C134     1.0000 0.54545  0.84690  0.36363  Biso   1.000  C
  C135     1.0000 0.04545  0.65310  0.86363  Biso   1.000  C
  C136     1.0000 0.45455  0.15310  0.63637  Biso   1.000  C
  C137     1.0000 0.44741  0.25520  0.98891  Biso   1.000  C
  C138     1.0000 0.05259  0.75520  0.51109  Biso   1.000  C
  C139     1.0000 0.55259  0.74480  0.01109  Biso   1.000  C
  C140     1.0000 0.94741  0.24480  0.48891  Biso   1.000  C
  C141     1.0000 0.51340  0.17520  0.09776  Biso   1.000  C
  C142     1.0000 0.98660  0.67520  0.40224  Biso   1.000  C
  C143     1.0000 0.48660  0.82480  0.90224  Biso   1.000  C
  C144     1.0000 0.01340  0.32480  0.59776  Biso   1.000  C
  H137     1.0000 0.46680  0.20520  0.81620  Biso   1.000  H
  H138     1.0000 0.03320  0.70520  0.68380  Biso   1.000  H
  H139     1.0000 0.53320  0.79480  0.18380  Biso   1.000  H
  H140     1.0000 0.96680  0.29480  0.31620  Biso   1.000  H
  H141     1.0000 0.46840  0.19500  0.87850  Biso   1.000  H
  H142     1.0000 0.03160  0.69500  0.62150  Biso   1.000  H
  H143     1.0000 0.53160  0.80500  0.12150  Biso   1.000  H
  H144     1.0000 0.96840  0.30500  0.37850  Biso   1.000  H
  C145     1.0000 0.49040  0.38090  0.86690  Biso   1.000  C
  C146     1.0000 0.00960  0.88090  0.63310  Biso   1.000  C
  C147     1.0000 0.50960  0.61910  0.13310  Biso   1.000  C
  C148     1.0000 0.99040  0.11910  0.36690  Biso   1.000  C
  C149     1.0000 0.01335  0.68580  0.09459  Biso   1.000  C
  C150     1.0000 0.48665  0.18580  0.40541  Biso   1.000  C
  C151     1.0000 0.98665  0.31420  0.90541  Biso   1.000  C
  C152     1.0000 0.51335  0.81420  0.59459  Biso   1.000  C
  C153     1.0000 0.95078  0.76300  0.98438  Biso   1.000  C
  C154     1.0000 0.54922  0.26300  0.51562  Biso   1.000  C
  C155     1.0000 0.04922  0.23700  0.01562  Biso   1.000  C
  C156     1.0000 0.45078  0.73700  0.48438  Biso   1.000  C
  H145     1.0000 0.92040  0.30900  0.12600  Biso   1.000  H
  H146     1.0000 0.57960  0.80900  0.37400  Biso   1.000  H
  H147     1.0000 0.07960  0.69100  0.87400  Biso   1.000  H
  H148     1.0000 0.42040  0.19100  0.62600  Biso   1.000  H
  H149     1.0000 0.94930  0.44620  0.12670  Biso   1.000  H
  H150     1.0000 0.55070  0.94620  0.37330  Biso   1.000  H
  H151     1.0000 0.05070  0.55380  0.87330  Biso   1.000  H
  H152     1.0000 0.44930  0.05380  0.62670  Biso   1.000  H
  C157     1.0000 0.00020  0.32550  0.20840  Biso   1.000  C
  C158     1.0000 0.49980  0.82550  0.29160  Biso   1.000  C
  C159     1.0000 0.99980  0.67450  0.79160  Biso   1.000  C
  C160     1.0000 0.50020  0.17450  0.70840  Biso   1.000  C
  C161     1.0000 0.40901  0.37290  0.94678  Biso   1.000  C
  C162     1.0000 0.09099  0.87290  0.55322  Biso   1.000  C
  C163     1.0000 0.59099  0.62710  0.05322  Biso   1.000  C
  C164     1.0000 0.90901  0.12710  0.44678  Biso   1.000  C
  C165     1.0000 0.47545  0.27030  0.05473  Biso   1.000  C
  C166     1.0000 0.02455  0.77030  0.44527  Biso   1.000  C
  C167     1.0000 0.52455  0.72970  0.94527  Biso   1.000  C
  C168     1.0000 0.97545  0.22970  0.55473  Biso   1.000  C
  C169     1.0000 0.54314  0.20270  0.16970  Biso   1.000  C
  C170     1.0000 0.95686  0.70270  0.33030  Biso   1.000  C
  C171     1.0000 0.45686  0.79730  0.83030  Biso   1.000  C
  C172     1.0000 0.04314  0.29730  0.66970  Biso   1.000  C
  H153     1.0000 0.45390  0.41840  0.84320  Biso   1.000  H
  H154     1.0000 0.04610  0.91840  0.65680  Biso   1.000  H
  H155     1.0000 0.54610  0.58160  0.15680  Biso   1.000  H
  H156     1.0000 0.95390  0.08160  0.34320  Biso   1.000  H
  H157     1.0000 0.51040  0.40700  0.91170  Biso   1.000  H
  H158     1.0000 0.98960  0.90700  0.58830  Biso   1.000  H
  H159     1.0000 0.48960  0.59300  0.08830  Biso   1.000  H
  H160     1.0000 0.01040  0.09300  0.41170  Biso   1.000  H
  H161     1.0000 0.50880  0.41720  0.84940  Biso   1.000  H
  H162     1.0000 0.99120  0.91720  0.65060  Biso   1.000  H
  H163     1.0000 0.49120  0.58280  0.15060  Biso   1.000  H
  H164     1.0000 0.00880  0.08280  0.34940  Biso   1.000  H
  C173     1.0000 0.04299  0.72200  0.16569  Biso   1.000  C
  C174     1.0000 0.45701  0.22200  0.33431  Biso   1.000  C
  C175     1.0000 0.95701  0.27800  0.83431  Biso   1.000  C
  C176     1.0000 0.54299  0.77800  0.66569  Biso   1.000  C
  C177     1.0000 0.97913  0.78520  0.04948  Biso   1.000  C
  C178     1.0000 0.52087  0.28520  0.45052  Biso   1.000  C
  C179     1.0000 0.02087  0.21480  0.95052  Biso   1.000  C
  C180     1.0000 0.47913  0.71480  0.54948  Biso   1.000  C
  C181     1.0000 0.91556  0.88190  0.93900  Biso   1.000  C
  C182     1.0000 0.58444  0.38190  0.56100  Biso   1.000  C
  C183     1.0000 0.08444  0.11810  0.06100  Biso   1.000  C
  C184     1.0000 0.41556  0.61810  0.43900  Biso   1.000  C
  H165     1.0000 0.99040  0.37150  0.23360  Biso   1.000  H
  H166     1.0000 0.50960  0.87150  0.26640  Biso   1.000  H
  H167     1.0000 0.00960  0.62850  0.76640  Biso   1.000  H
  H168     1.0000 0.49040  0.12850  0.73360  Biso   1.000  H
  H169     1.0000 0.00500  0.22720  0.21810  Biso   1.000  H
  H170     1.0000 0.49500  0.72720  0.28190  Biso   1.000  H
  H171     1.0000 0.99500  0.77280  0.78190  Biso   1.000  H
  H172     1.0000 0.50500  0.27280  0.71810  Biso   1.000  H
  H173     1.0000 0.03390  0.36420  0.21880  Biso   1.000  H
  H174     1.0000 0.46610  0.86420  0.28120  Biso   1.000  H
  H175     1.0000 0.96610  0.63580  0.78120  Biso   1.000  H
  H176     1.0000 0.53390  0.13580  0.71880  Biso   1.000  H
  F49      1.0000 0.43320  0.47350  0.94660  Biso   1.000  F
  F50      1.0000 0.06680  0.97350  0.55340  Biso   1.000  F
  F51      1.0000 0.56680  0.52650  0.05340  Biso   1.000  F
  F52      1.0000 0.93320  0.02650  0.44660  Biso   1.000  F
  F53      1.0000 0.37110  0.33420  0.89050  Biso   1.000  F
  F54      1.0000 0.12890  0.83420  0.60950  Biso   1.000  F
  F55      1.0000 0.62890  0.66580  0.10950  Biso   1.000  F
  F56      1.0000 0.87110  0.16580  0.39050  Biso   1.000  F
  F57      1.0000 0.38060  0.41640  0.97110  Biso   1.000  F
  F58      1.0000 0.11940  0.91640  0.52890  Biso   1.000  F
  F59      1.0000 0.61940  0.58360  0.02890  Biso   1.000  F
  F60      1.0000 0.88060  0.08360  0.47110  Biso   1.000  F
  H177     1.0000 0.46830  0.34820  0.07050  Biso   1.000  H
  H178     1.0000 0.03170  0.84820  0.42950  Biso   1.000  H
  H179     1.0000 0.53170  0.65180  0.92950  Biso   1.000  H
  H180     1.0000 0.96830  0.15180  0.57050  Biso   1.000  H
  F61      1.0000 0.59080  0.25100  0.19270  Biso   1.000  F
  F62      1.0000 0.90920  0.75100  0.30730  Biso   1.000  F
  F63      1.0000 0.40920  0.74900  0.80730  Biso   1.000  F
  F64      1.0000 0.09080  0.24900  0.69270  Biso   1.000  F
  F65      1.0000 0.54650  0.09080  0.20080  Biso   1.000  F
  F66      1.0000 0.95350  0.59080  0.29920  Biso   1.000  F
  F67      1.0000 0.45350  0.90920  0.79920  Biso   1.000  F
  F68      1.0000 0.04650  0.40920  0.70080  Biso   1.000  F
  F69      1.0000 0.51790  0.29040  0.18140  Biso   1.000  F
  F70      1.0000 0.98210  0.79040  0.31860  Biso   1.000  F
  F71      1.0000 0.48210  0.70960  0.81860  Biso   1.000  F
  F72      1.0000 0.01790  0.20960  0.68140  Biso   1.000  F
  F73      1.0000 0.04570  0.85680  0.17480  Biso   1.000  F
  F74      1.0000 0.45430  0.35680  0.32520  Biso   1.000  F
  F75      1.0000 0.95430  0.14320  0.82520  Biso   1.000  F
  F76      1.0000 0.54570  0.64320  0.67480  Biso   1.000  F
  F77      1.0000 0.01360  0.67800  0.18410  Biso   1.000  F
  F78      1.0000 0.48640  0.17800  0.31590  Biso   1.000  F
  F79      1.0000 0.98640  0.32200  0.81590  Biso   1.000  F
  F80      1.0000 0.51360  0.82200  0.68410  Biso   1.000  F
  F81      1.0000 0.08720  0.66650  0.20130  Biso   1.000  F
  F82      1.0000 0.41280  0.16650  0.29870  Biso   1.000  F
  F83      1.0000 0.91280  0.33350  0.79870  Biso   1.000  F
  F84      1.0000 0.58720  0.83350  0.70130  Biso   1.000  F
  H181     1.0000 0.97520  0.87050  0.06380  Biso   1.000  H
  H182     1.0000 0.52480  0.37050  0.43620  Biso   1.000  H
  H183     1.0000 0.02480  0.12950  0.93620  Biso   1.000  H
  H184     1.0000 0.47520  0.62950  0.56380  Biso   1.000  H
  F85      1.0000 0.93730  0.99720  0.95880  Biso   1.000  F
  F86      1.0000 0.56270  0.49720  0.54120  Biso   1.000  F
  F87      1.0000 0.06270  0.00280  0.04120  Biso   1.000  F
  F88      1.0000 0.43730  0.50280  0.45880  Biso   1.000  F
  F89      1.0000 0.88510  0.85360  0.88590  Biso   1.000  F
  F90      1.0000 0.61490  0.35360  0.61410  Biso   1.000  F
  F91      1.0000 0.11490  0.14640  0.11410  Biso   1.000  F
  F92      1.0000 0.38510  0.64640  0.38590  Biso   1.000  F
  F93      1.0000 0.87460  0.90660  0.95340  Biso   1.000  F
  F94      1.0000 0.62540  0.40660  0.54660  Biso   1.000  F
  F95      1.0000 0.12540  0.09340  0.04660  Biso   1.000  F
  F96      1.0000 0.37460  0.59340  0.45340  Biso   1.000  F
  F97      1.0000 0.63360  0.91370  0.95460  Biso   1.000  F
  F98      1.0000 0.86640  0.41370  0.54540  Biso   1.000  F
  F99      1.0000 0.36640  0.08630  0.04540  Biso   1.000  F
  F100     1.0000 0.13360  0.58630  0.45460  Biso   1.000  F
  F101     1.0000 0.66990  0.88890  0.05280  Biso   1.000  F
  F102     1.0000 0.83010  0.38890  0.44720  Biso   1.000  F
  F103     1.0000 0.33010  0.11110  0.94720  Biso   1.000  F
  F104     1.0000 0.16990  0.61110  0.55280  Biso   1.000  F
  F105     1.0000 0.68910  0.76940  0.00910  Biso   1.000  F
  F106     1.0000 0.81090  0.26940  0.49090  Biso   1.000  F
  F107     1.0000 0.31090  0.23060  0.99090  Biso   1.000  F
  F108     1.0000 0.18910  0.73060  0.50910  Biso   1.000  F
  F109     1.0000 0.62930  0.63670  0.83710  Biso   1.000  F
  F110     1.0000 0.87070  0.13670  0.66290  Biso   1.000  F
  F111     1.0000 0.37070  0.36330  0.16290  Biso   1.000  F
  F112     1.0000 0.12930  0.86330  0.33710  Biso   1.000  F
  F113     1.0000 0.60040  0.54490  0.87900  Biso   1.000  F
  F114     1.0000 0.89960  0.04490  0.62100  Biso   1.000  F
  F115     1.0000 0.39960  0.45510  0.12100  Biso   1.000  F
  F116     1.0000 0.10040  0.95510  0.37900  Biso   1.000  F
  F117     1.0000 0.59850  0.46600  0.80420  Biso   1.000  F
  F118     1.0000 0.90150  0.96600  0.69580  Biso   1.000  F
  F119     1.0000 0.40150  0.53400  0.19580  Biso   1.000  F
  F120     1.0000 0.09850  0.03400  0.30420  Biso   1.000  F
  F121     1.0000 0.83610  0.61290  0.95120  Biso   1.000  F
  F122     1.0000 0.66390  0.11290  0.54880  Biso   1.000  F
  F123     1.0000 0.16390  0.38710  0.04880  Biso   1.000  F
  F124     1.0000 0.33610  0.88710  0.45120  Biso   1.000  F
  F125     1.0000 0.81540  0.73100  0.98850  Biso   1.000  F
  F126     1.0000 0.68460  0.23100  0.51150  Biso   1.000  F
  F127     1.0000 0.18460  0.26900  0.01150  Biso   1.000  F
  F128     1.0000 0.31540  0.76900  0.48850  Biso   1.000  F
  F129     1.0000 0.87010  0.59350  0.04880  Biso   1.000  F
  F130     1.0000 0.62990  0.09350  0.45120  Biso   1.000  F
  F131     1.0000 0.12990  0.40650  0.95120  Biso   1.000  F
  F132     1.0000 0.37010  0.90650  0.54880  Biso   1.000  F
  F133     1.0000 0.39480  0.36400  0.88950  Biso   1.000  F
  F134     1.0000 0.10520  0.86400  0.61050  Biso   1.000  F
  F135     1.0000 0.60520  0.63600  0.11050  Biso   1.000  F
  F136     1.0000 0.89480  0.13600  0.38950  Biso   1.000  F
  F137     1.0000 0.37020  0.39260  0.94450  Biso   1.000  F
  F138     1.0000 0.12980  0.89260  0.55550  Biso   1.000  F
  F139     1.0000 0.62980  0.60740  0.05550  Biso   1.000  F
  F140     1.0000 0.87020  0.10740  0.44450  Biso   1.000  F
  F141     1.0000 0.43520  0.49300  0.96160  Biso   1.000  F
  F142     1.0000 0.06480  0.99300  0.53840  Biso   1.000  F
  F143     1.0000 0.56480  0.50700  0.03840  Biso   1.000  F
  F144     1.0000 0.93520  0.00700  0.46160  Biso   1.000  F
  F145     1.0000 0.53400  0.32210  0.18270  Biso   1.000  F
  F146     1.0000 0.96600  0.82210  0.31730  Biso   1.000  F
  F147     1.0000 0.46600  0.67790  0.81730  Biso   1.000  F
  F148     1.0000 0.03400  0.17790  0.68270  Biso   1.000  F
  F149     1.0000 0.59390  0.18870  0.20090  Biso   1.000  F
  F150     1.0000 0.90610  0.68870  0.29910  Biso   1.000  F
  F151     1.0000 0.40610  0.81130  0.79910  Biso   1.000  F
  F152     1.0000 0.09390  0.31130  0.70090  Biso   1.000  F
  F153     1.0000 0.52850  0.11650  0.19380  Biso   1.000  F
  F154     1.0000 0.97150  0.61650  0.30620  Biso   1.000  F
  F155     1.0000 0.47150  0.88350  0.80620  Biso   1.000  F
  F156     1.0000 0.02850  0.38350  0.69380  Biso   1.000  F
  C185     1.0000 0.53480  0.22120  0.90590  Biso   1.000  C
  C186     1.0000 0.96520  0.72120  0.59410  Biso   1.000  C
  C187     1.0000 0.46520  0.77880  0.09410  Biso   1.000  C
  C188     1.0000 0.03480  0.27880  0.40590  Biso   1.000  C
  H185     1.0000 0.52800  0.32050  0.89670  Biso   1.000  H
  H186     1.0000 0.97200  0.82050  0.60330  Biso   1.000  H
  H187     1.0000 0.47200  0.67950  0.10330  Biso   1.000  H
  H188     1.0000 0.02800  0.17950  0.39670  Biso   1.000  H
  H189     1.0000 0.50250  0.17870  0.89880  Biso   1.000  H
  H190     1.0000 0.99750  0.67870  0.60120  Biso   1.000  H
  H191     1.0000 0.49750  0.82130  0.10120  Biso   1.000  H
  H192     1.0000 0.00250  0.32130  0.39880  Biso   1.000  H
  C189     1.0000 0.54760  0.15400  0.86250  Biso   1.000  C
  C190     1.0000 0.95240  0.65400  0.63750  Biso   1.000  C
  C191     1.0000 0.45240  0.84600  0.13750  Biso   1.000  C
  C192     1.0000 0.04760  0.34600  0.36250  Biso   1.000  C
  H193     1.0000 0.55200  0.05370  0.86990  Biso   1.000  H
  H194     1.0000 0.94800  0.55370  0.63010  Biso   1.000  H
  H195     1.0000 0.44800  0.94630  0.13010  Biso   1.000  H
  H196     1.0000 0.05200  0.44630  0.36990  Biso   1.000  H
  H197     1.0000 0.58150  0.19170  0.87220  Biso   1.000  H
  H198     1.0000 0.91850  0.69170  0.62780  Biso   1.000  H
  H199     1.0000 0.41850  0.80830  0.12780  Biso   1.000  H
  H200     1.0000 0.08150  0.30830  0.37220  Biso   1.000  H
  C193     1.0000 0.49950  0.18500  0.79110  Biso   1.000  C
  C194     1.0000 0.00050  0.68500  0.70890  Biso   1.000  C
  C195     1.0000 0.50050  0.81500  0.20890  Biso   1.000  C
  C196     1.0000 0.99950  0.31500  0.29110  Biso   1.000  C
  H201     1.0000 0.50700  0.14270  0.76300  Biso   1.000  H
  H202     1.0000 0.99300  0.64270  0.73700  Biso   1.000  H
  H203     1.0000 0.49300  0.85730  0.23700  Biso   1.000  H
  H204     1.0000 0.00700  0.35730  0.26300  Biso   1.000  H
  H205     1.0000 0.46610  0.14650  0.78180  Biso   1.000  H
  H206     1.0000 0.03390  0.64650  0.71820  Biso   1.000  H
  H207     1.0000 0.53390  0.85350  0.21820  Biso   1.000  H
  H208     1.0000 0.96610  0.35350  0.28180  Biso   1.000  H
  H209     1.0000 0.49560  0.28410  0.78410  Biso   1.000  H
  H210     1.0000 0.00440  0.78410  0.71590  Biso   1.000  H
  H211     1.0000 0.50440  0.71590  0.21590  Biso   1.000  H
  H212     1.0000 0.99560  0.21590  0.28410  Biso   1.000  H
  C197     1.0000 0.45720  0.16100  0.59860  Biso   1.000  C
  C198     1.0000 0.04280  0.66100  0.90140  Biso   1.000  C
  C199     1.0000 0.54280  0.83900  0.40140  Biso   1.000  C
  C200     1.0000 0.95720  0.33900  0.09860  Biso   1.000  C
  H213     1.0000 0.46130  0.06020  0.59940  Biso   1.000  H
  H214     1.0000 0.03870  0.56020  0.90060  Biso   1.000  H
  H215     1.0000 0.53870  0.93980  0.40060  Biso   1.000  H
  H216     1.0000 0.96130  0.43980  0.09940  Biso   1.000  H
  H217     1.0000 0.43790  0.18280  0.61730  Biso   1.000  H
  H218     1.0000 0.06210  0.68280  0.88270  Biso   1.000  H
  H219     1.0000 0.56210  0.81720  0.38270  Biso   1.000  H
  H220     1.0000 0.93790  0.31720  0.11730  Biso   1.000  H
  C201     1.0000 0.51280  0.22800  0.63820  Biso   1.000  C
  C202     1.0000 0.98720  0.72800  0.86180  Biso   1.000  C
  C203     1.0000 0.48720  0.77200  0.36180  Biso   1.000  C
  C204     1.0000 0.01280  0.27200  0.13820  Biso   1.000  C
  H221     1.0000 0.53170  0.19960  0.68310  Biso   1.000  H
  H222     1.0000 0.96830  0.69960  0.81690  Biso   1.000  H
  H223     1.0000 0.46830  0.80040  0.31690  Biso   1.000  H
  H224     1.0000 0.03170  0.30040  0.18310  Biso   1.000  H
  H225     1.0000 0.53390  0.19350  0.62350  Biso   1.000  H
  H226     1.0000 0.96610  0.69350  0.87650  Biso   1.000  H
  H227     1.0000 0.46610  0.80650  0.37650  Biso   1.000  H
  H228     1.0000 0.03390  0.30650  0.12350  Biso   1.000  H
  C205     1.0000 0.51150  0.38610  0.63510  Biso   1.000  C
  C206     1.0000 0.98850  0.88610  0.86490  Biso   1.000  C
  C207     1.0000 0.48850  0.61390  0.36490  Biso   1.000  C
  C208     1.0000 0.01150  0.11390  0.13510  Biso   1.000  C
  H229     1.0000 0.54840  0.42170  0.66150  Biso   1.000  H
  H230     1.0000 0.95160  0.92170  0.83850  Biso   1.000  H
  H231     1.0000 0.45160  0.57830  0.33850  Biso   1.000  H
  H232     1.0000 0.04840  0.07830  0.16150  Biso   1.000  H
  H233     1.0000 0.49150  0.42150  0.65070  Biso   1.000  H
  H234     1.0000 0.00850  0.92150  0.84930  Biso   1.000  H
  H235     1.0000 0.50850  0.57850  0.34930  Biso   1.000  H
  H236     1.0000 0.99150  0.07850  0.15070  Biso   1.000  H
  H237     1.0000 0.49370  0.41540  0.59100  Biso   1.000  H
  H238     1.0000 0.00630  0.91540  0.90900  Biso   1.000  H
  H239     1.0000 0.50630  0.58460  0.40900  Biso   1.000  H
  H240     1.0000 0.99370  0.08460  0.09100  Biso   1.000  H
  F157     1.0000 0.52320  0.68410  0.67900  Biso   1.000  F
  F158     1.0000 0.97680  0.18410  0.82100  Biso   1.000  F
  F159     1.0000 0.47680  0.31590  0.32100  Biso   1.000  F
  F160     1.0000 0.02320  0.81590  0.17900  Biso   1.000  F
  F161     1.0000 0.54370  0.88480  0.69890  Biso   1.000  F
  F162     1.0000 0.95630  0.38480  0.80110  Biso   1.000  F
  F163     1.0000 0.45630  0.11520  0.30110  Biso   1.000  F
  F164     1.0000 0.04370  0.61520  0.19890  Biso   1.000  F
  F165     1.0000 0.59440  0.75550  0.69220  Biso   1.000  F
  F166     1.0000 0.90560  0.25550  0.80780  Biso   1.000  F
  F167     1.0000 0.40560  0.24450  0.30780  Biso   1.000  F
  F168     1.0000 0.09440  0.74450  0.19220  Biso   1.000  F
  F169     1.0000 0.42760  0.60300  0.39340  Biso   1.000  F
  F170     1.0000 0.07240  0.10300  0.10660  Biso   1.000  F
  F171     1.0000 0.57240  0.39700  0.60660  Biso   1.000  F
  F172     1.0000 0.92760  0.89700  0.89340  Biso   1.000  F
  F173     1.0000 0.36672  0.63970  0.40520  Biso   1.000  F
  F174     1.0000 0.13328  0.13970  0.09480  Biso   1.000  F
  F175     1.0000 0.63328  0.36030  0.59480  Biso   1.000  F
  F176     1.0000 0.86672  0.86030  0.90520  Biso   1.000  F
  F177     1.0000 0.42840  0.49780  0.46450  Biso   1.000  F
  F178     1.0000 0.07160  0.99780  0.03550  Biso   1.000  F
  F179     1.0000 0.57160  0.50220  0.53550  Biso   1.000  F
  F180     1.0000 0.92840  0.00220  0.96450  Biso   1.000  F
