data_image0
_cell_length_a       30.5685
_cell_length_b       9.6211
_cell_length_c       25.8714
_cell_angle_alpha    90
_cell_angle_beta     125.886
_cell_angle_gamma    90

_symmetry_space_group_name_H-M    "P 1"
_symmetry_int_tables_number       1

loop_
  _symmetry_equiv_pos_as_xyz
  'x, y, z'

loop_
  _atom_site_label
  _atom_site_occupancy
  _atom_site_fract_x
  _atom_site_fract_y
  _atom_site_fract_z
  _atom_site_thermal_displace_type
  _atom_site_B_iso_or_equiv
  _atom_site_type_symbol
  Cu1      1.0000 0.00000  0.00000  0.00000  Biso   1.000  Cu
  Cu2      1.0000 0.00000  0.00000  0.50000  Biso   1.000  Cu
  Cu3      1.0000 0.50000  0.50000  0.00000  Biso   1.000  Cu
  Cu4      1.0000 0.50000  0.50000  0.50000  Biso   1.000  Cu
  O1       1.0000 0.03956  0.84756  0.99377  Biso   1.000  O
  O2       1.0000 0.96044  0.84756  0.50623  Biso   1.000  O
  O3       1.0000 0.53956  0.34756  0.99377  Biso   1.000  O
  O4       1.0000 0.46044  0.34756  0.50623  Biso   1.000  O
  O5       1.0000 0.96044  0.15244  0.00623  Biso   1.000  O
  O6       1.0000 0.03956  0.15244  0.49377  Biso   1.000  O
  O7       1.0000 0.46044  0.65244  0.00623  Biso   1.000  O
  O8       1.0000 0.53956  0.65244  0.49377  Biso   1.000  O
  C1       1.0000 0.07551  0.62990  0.00025  Biso   1.000  C
  C2       1.0000 0.92449  0.62990  0.49975  Biso   1.000  C
  C3       1.0000 0.57551  0.12990  0.00025  Biso   1.000  C
  C4       1.0000 0.42449  0.12990  0.49975  Biso   1.000  C
  C5       1.0000 0.92449  0.37010  0.99975  Biso   1.000  C
  C6       1.0000 0.07551  0.37010  0.50025  Biso   1.000  C
  C7       1.0000 0.42449  0.87010  0.99975  Biso   1.000  C
  C8       1.0000 0.57551  0.87010  0.50025  Biso   1.000  C
  F1       1.0000 0.07650  0.50230  0.01770  Biso   1.000  F
  F2       1.0000 0.92350  0.50230  0.48230  Biso   1.000  F
  F3       1.0000 0.57650  0.00230  0.01770  Biso   1.000  F
  F4       1.0000 0.42350  0.00230  0.48230  Biso   1.000  F
  F5       1.0000 0.92350  0.49770  0.98230  Biso   1.000  F
  F6       1.0000 0.07650  0.49770  0.51770  Biso   1.000  F
  F7       1.0000 0.42350  0.99770  0.98230  Biso   1.000  F
  F8       1.0000 0.57650  0.99770  0.51770  Biso   1.000  F
  F9       1.0000 0.03810  0.61570  0.93240  Biso   1.000  F
  F10      1.0000 0.96190  0.61570  0.56760  Biso   1.000  F
  F11      1.0000 0.53810  0.11570  0.93240  Biso   1.000  F
  F12      1.0000 0.46190  0.11570  0.56760  Biso   1.000  F
  F13      1.0000 0.96190  0.38430  0.06760  Biso   1.000  F
  F14      1.0000 0.03810  0.38430  0.43240  Biso   1.000  F
  F15      1.0000 0.46190  0.88430  0.06760  Biso   1.000  F
  F16      1.0000 0.53810  0.88430  0.43240  Biso   1.000  F
  F17      1.0000 0.11730  0.66590  0.00780  Biso   1.000  F
  F18      1.0000 0.88270  0.66590  0.49220  Biso   1.000  F
  F19      1.0000 0.61730  0.16590  0.00780  Biso   1.000  F
  F20      1.0000 0.38270  0.16590  0.49220  Biso   1.000  F
  F21      1.0000 0.88270  0.33410  0.99220  Biso   1.000  F
  F22      1.0000 0.11730  0.33410  0.50780  Biso   1.000  F
  F23      1.0000 0.38270  0.83410  0.99220  Biso   1.000  F
  F24      1.0000 0.61730  0.83410  0.50780  Biso   1.000  F
  C9       1.0000 0.05130  0.73310  0.02192  Biso   1.000  C
  C10      1.0000 0.94870  0.73310  0.47808  Biso   1.000  C
  C11      1.0000 0.55130  0.23310  0.02192  Biso   1.000  C
  C12      1.0000 0.44870  0.23310  0.47808  Biso   1.000  C
  C13      1.0000 0.94870  0.26690  0.97808  Biso   1.000  C
  C14      1.0000 0.05130  0.26690  0.52192  Biso   1.000  C
  C15      1.0000 0.44870  0.76690  0.97808  Biso   1.000  C
  C16      1.0000 0.55130  0.76690  0.52192  Biso   1.000  C
  C17      1.0000 0.04502  0.69080  0.06814  Biso   1.000  C
  C18      1.0000 0.95498  0.69080  0.43186  Biso   1.000  C
  C19      1.0000 0.54502  0.19080  0.06814  Biso   1.000  C
  C20      1.0000 0.45498  0.19080  0.43186  Biso   1.000  C
  C21      1.0000 0.95498  0.30920  0.93186  Biso   1.000  C
  C22      1.0000 0.04502  0.30920  0.56814  Biso   1.000  C
  C23      1.0000 0.45498  0.80920  0.93186  Biso   1.000  C
  C24      1.0000 0.54502  0.80920  0.56814  Biso   1.000  C
  H1       1.0000 0.05540  0.60010  0.08460  Biso   1.000  H
  H2       1.0000 0.94460  0.60010  0.41540  Biso   1.000  H
  H3       1.0000 0.55540  0.10010  0.08460  Biso   1.000  H
  H4       1.0000 0.44460  0.10010  0.41540  Biso   1.000  H
  H5       1.0000 0.94460  0.39990  0.91540  Biso   1.000  H
  H6       1.0000 0.05540  0.39990  0.58460  Biso   1.000  H
  H7       1.0000 0.44460  0.89990  0.91540  Biso   1.000  H
  H8       1.0000 0.55540  0.89990  0.58460  Biso   1.000  H
  C25      1.0000 0.02402  0.77740  0.09102  Biso   1.000  C
  C26      1.0000 0.97598  0.77740  0.40898  Biso   1.000  C
  C27      1.0000 0.52402  0.27740  0.09102  Biso   1.000  C
  C28      1.0000 0.47598  0.27740  0.40898  Biso   1.000  C
  C29      1.0000 0.97598  0.22260  0.90898  Biso   1.000  C
  C30      1.0000 0.02402  0.22260  0.59102  Biso   1.000  C
  C31      1.0000 0.47598  0.72260  0.90898  Biso   1.000  C
  C32      1.0000 0.52402  0.72260  0.59102  Biso   1.000  C
  C33      1.0000 0.01683  0.71970  0.14049  Biso   1.000  C
  C34      1.0000 0.98317  0.71970  0.35951  Biso   1.000  C
  C35      1.0000 0.51683  0.21970  0.14049  Biso   1.000  C
  C36      1.0000 0.48317  0.21970  0.35951  Biso   1.000  C
  C37      1.0000 0.98317  0.28030  0.85951  Biso   1.000  C
  C38      1.0000 0.01683  0.28030  0.64049  Biso   1.000  C
  C39      1.0000 0.48317  0.78030  0.85951  Biso   1.000  C
  C40      1.0000 0.51683  0.78030  0.64049  Biso   1.000  C
  F25      1.0000 0.04470  0.60970  0.16850  Biso   1.000  F
  F26      1.0000 0.95530  0.60970  0.33150  Biso   1.000  F
  F27      1.0000 0.54470  0.10970  0.16850  Biso   1.000  F
  F28      1.0000 0.45530  0.10970  0.33150  Biso   1.000  F
  F29      1.0000 0.95530  0.39030  0.83150  Biso   1.000  F
  F30      1.0000 0.04470  0.39030  0.66850  Biso   1.000  F
  F31      1.0000 0.45530  0.89030  0.83150  Biso   1.000  F
  F32      1.0000 0.54470  0.89030  0.66850  Biso   1.000  F
  F33      1.0000 0.03340  0.82330  0.18620  Biso   1.000  F
  F34      1.0000 0.96660  0.82330  0.31380  Biso   1.000  F
  F35      1.0000 0.53340  0.32330  0.18620  Biso   1.000  F
  F36      1.0000 0.46660  0.32330  0.31380  Biso   1.000  F
  F37      1.0000 0.96660  0.17670  0.81380  Biso   1.000  F
  F38      1.0000 0.03340  0.17670  0.68620  Biso   1.000  F
  F39      1.0000 0.46660  0.67670  0.81380  Biso   1.000  F
  F40      1.0000 0.53340  0.67670  0.68620  Biso   1.000  F
  F41      1.0000 0.96700  0.69180  0.11250  Biso   1.000  F
  F42      1.0000 0.03300  0.69180  0.38750  Biso   1.000  F
  F43      1.0000 0.46700  0.19180  0.11250  Biso   1.000  F
  F44      1.0000 0.53300  0.19180  0.38750  Biso   1.000  F
  F45      1.0000 0.03300  0.30820  0.88750  Biso   1.000  F
  F46      1.0000 0.96700  0.30820  0.61250  Biso   1.000  F
  F47      1.0000 0.53300  0.80820  0.88750  Biso   1.000  F
  F48      1.0000 0.46700  0.80820  0.61250  Biso   1.000  F
  O9       1.0000 0.00884  0.90088  0.07585  Biso   1.000  O
  O10      1.0000 0.99116  0.90088  0.42415  Biso   1.000  O
  O11      1.0000 0.50884  0.40088  0.07585  Biso   1.000  O
  O12      1.0000 0.49116  0.40088  0.42415  Biso   1.000  O
  O13      1.0000 0.99116  0.09912  0.92415  Biso   1.000  O
  O14      1.0000 0.00884  0.09912  0.57585  Biso   1.000  O
  O15      1.0000 0.49116  0.59912  0.92415  Biso   1.000  O
  O16      1.0000 0.50884  0.59912  0.57585  Biso   1.000  O
  Cu5      1.0000 0.25000  0.75000  0.00000  Biso   1.000  Cu
  Cu6      1.0000 0.75000  0.75000  0.50000  Biso   1.000  Cu
  Cu7      1.0000 0.75000  0.25000  0.00000  Biso   1.000  Cu
  Cu8      1.0000 0.25000  0.25000  0.50000  Biso   1.000  Cu
  O17      1.0000 0.25734  0.90784  0.95741  Biso   1.000  O
  O18      1.0000 0.74266  0.90784  0.54259  Biso   1.000  O
  O19      1.0000 0.75734  0.40784  0.95741  Biso   1.000  O
  O20      1.0000 0.24266  0.40784  0.54259  Biso   1.000  O
  O21      1.0000 0.74266  0.09216  0.04259  Biso   1.000  O
  O22      1.0000 0.25734  0.09216  0.45741  Biso   1.000  O
  O23      1.0000 0.24266  0.59216  0.04259  Biso   1.000  O
  O24      1.0000 0.75734  0.59216  0.45741  Biso   1.000  O
  C41      1.0000 0.28028  0.12930  0.94267  Biso   1.000  C
  C42      1.0000 0.71972  0.12930  0.55733  Biso   1.000  C
  C43      1.0000 0.78028  0.62930  0.94267  Biso   1.000  C
  C44      1.0000 0.21972  0.62930  0.55733  Biso   1.000  C
  C45      1.0000 0.71972  0.87070  0.05733  Biso   1.000  C
  C46      1.0000 0.28028  0.87070  0.44267  Biso   1.000  C
  C47      1.0000 0.21972  0.37070  0.05733  Biso   1.000  C
  C48      1.0000 0.78028  0.37070  0.44267  Biso   1.000  C
  F49      1.0000 0.33753  0.16590  0.96630  Biso   1.000  F
  F50      1.0000 0.66247  0.16590  0.53370  Biso   1.000  F
  F51      1.0000 0.83753  0.66590  0.96630  Biso   1.000  F
  F52      1.0000 0.16247  0.66590  0.53370  Biso   1.000  F
  F53      1.0000 0.66247  0.83410  0.03370  Biso   1.000  F
  F54      1.0000 0.33753  0.83410  0.46630  Biso   1.000  F
  F55      1.0000 0.16247  0.33410  0.03370  Biso   1.000  F
  F56      1.0000 0.83753  0.33410  0.46630  Biso   1.000  F
  F57      1.0000 0.26910  0.24090  0.95550  Biso   1.000  F
  F58      1.0000 0.73090  0.24090  0.54450  Biso   1.000  F
  F59      1.0000 0.76910  0.74090  0.95550  Biso   1.000  F
  F60      1.0000 0.23090  0.74090  0.54450  Biso   1.000  F
  F61      1.0000 0.73090  0.75910  0.04450  Biso   1.000  F
  F62      1.0000 0.26910  0.75910  0.45550  Biso   1.000  F
  F63      1.0000 0.23090  0.25910  0.04450  Biso   1.000  F
  F64      1.0000 0.76910  0.25910  0.45550  Biso   1.000  F
  F65      1.0000 0.26320  0.08940  0.88930  Biso   1.000  F
  F66      1.0000 0.73680  0.08940  0.61070  Biso   1.000  F
  F67      1.0000 0.76320  0.58940  0.88930  Biso   1.000  F
  F68      1.0000 0.23680  0.58940  0.61070  Biso   1.000  F
  F69      1.0000 0.73680  0.91060  0.11070  Biso   1.000  F
  F70      1.0000 0.26320  0.91060  0.38930  Biso   1.000  F
  F71      1.0000 0.23680  0.41060  0.11070  Biso   1.000  F
  F72      1.0000 0.76320  0.41060  0.38930  Biso   1.000  F
  C49      1.0000 0.28697  0.01007  0.98629  Biso   1.000  C
  C50      1.0000 0.71303  0.01007  0.51371  Biso   1.000  C
  C51      1.0000 0.78697  0.51007  0.98629  Biso   1.000  C
  C52      1.0000 0.21303  0.51007  0.51371  Biso   1.000  C
  C53      1.0000 0.71303  0.98993  0.01371  Biso   1.000  C
  C54      1.0000 0.28697  0.98993  0.48629  Biso   1.000  C
  C55      1.0000 0.21303  0.48993  0.01371  Biso   1.000  C
  C56      1.0000 0.78697  0.48993  0.48629  Biso   1.000  C
  C57      1.0000 0.32354  0.02960  0.05123  Biso   1.000  C
  C58      1.0000 0.67646  0.02960  0.44877  Biso   1.000  C
  C59      1.0000 0.82354  0.52960  0.05123  Biso   1.000  C
  C60      1.0000 0.17646  0.52960  0.44877  Biso   1.000  C
  C61      1.0000 0.67646  0.97040  0.94877  Biso   1.000  C
  C62      1.0000 0.32354  0.97040  0.55123  Biso   1.000  C
  C63      1.0000 0.17646  0.47040  0.94877  Biso   1.000  C
  C64      1.0000 0.82354  0.47040  0.55123  Biso   1.000  C
  H9       1.0000 0.34350  0.11260  0.06600  Biso   1.000  H
  H10      1.0000 0.65650  0.11260  0.43400  Biso   1.000  H
  H11      1.0000 0.84350  0.61260  0.06600  Biso   1.000  H
  H12      1.0000 0.15650  0.61260  0.43400  Biso   1.000  H
  H13      1.0000 0.65650  0.88740  0.93400  Biso   1.000  H
  H14      1.0000 0.34350  0.88740  0.56600  Biso   1.000  H
  H15      1.0000 0.15650  0.38740  0.93400  Biso   1.000  H
  H16      1.0000 0.84350  0.38740  0.56600  Biso   1.000  H
  C65      1.0000 0.33192  0.93230  0.09523  Biso   1.000  C
  C66      1.0000 0.66808  0.93230  0.40477  Biso   1.000  C
  C67      1.0000 0.83192  0.43230  0.09523  Biso   1.000  C
  C68      1.0000 0.16808  0.43230  0.40477  Biso   1.000  C
  C69      1.0000 0.66808  0.06770  0.90477  Biso   1.000  C
  C70      1.0000 0.33192  0.06770  0.59523  Biso   1.000  C
  C71      1.0000 0.16808  0.56770  0.90477  Biso   1.000  C
  C72      1.0000 0.83192  0.56770  0.59523  Biso   1.000  C
  C73      1.0000 0.37358  0.96390  0.16656  Biso   1.000  C
  C74      1.0000 0.62642  0.96390  0.33344  Biso   1.000  C
  C75      1.0000 0.87358  0.46390  0.16656  Biso   1.000  C
  C76      1.0000 0.12642  0.46390  0.33344  Biso   1.000  C
  C77      1.0000 0.62642  0.03610  0.83344  Biso   1.000  C
  C78      1.0000 0.37358  0.03610  0.66656  Biso   1.000  C
  C79      1.0000 0.12642  0.53610  0.83344  Biso   1.000  C
  C80      1.0000 0.87358  0.53610  0.66656  Biso   1.000  C
  F73      1.0000 0.34860  0.00160  0.19080  Biso   1.000  F
  F74      1.0000 0.65140  0.00160  0.30920  Biso   1.000  F
  F75      1.0000 0.84860  0.50160  0.19080  Biso   1.000  F
  F76      1.0000 0.15140  0.50160  0.30920  Biso   1.000  F
  F77      1.0000 0.65140  0.99840  0.80920  Biso   1.000  F
  F78      1.0000 0.34860  0.99840  0.69080  Biso   1.000  F
  F79      1.0000 0.15140  0.49840  0.80920  Biso   1.000  F
  F80      1.0000 0.84860  0.49840  0.69080  Biso   1.000  F
  F81      1.0000 0.40260  0.85190  0.19900  Biso   1.000  F
  F82      1.0000 0.59740  0.85190  0.30100  Biso   1.000  F
  F83      1.0000 0.90260  0.35190  0.19900  Biso   1.000  F
  F84      1.0000 0.09740  0.35190  0.30100  Biso   1.000  F
  F85      1.0000 0.59740  0.14810  0.80100  Biso   1.000  F
  F86      1.0000 0.40260  0.14810  0.69900  Biso   1.000  F
  F87      1.0000 0.09740  0.64810  0.80100  Biso   1.000  F
  F88      1.0000 0.90260  0.64810  0.69900  Biso   1.000  F
  F89      1.0000 0.40990  0.05090  0.18040  Biso   1.000  F
  F90      1.0000 0.59010  0.05090  0.31960  Biso   1.000  F
  F91      1.0000 0.90990  0.55090  0.18040  Biso   1.000  F
  F92      1.0000 0.09010  0.55090  0.31960  Biso   1.000  F
  F93      1.0000 0.59010  0.94910  0.81960  Biso   1.000  F
  F94      1.0000 0.40990  0.94910  0.68040  Biso   1.000  F
  F95      1.0000 0.09010  0.44910  0.81960  Biso   1.000  F
  F96      1.0000 0.90990  0.44910  0.68040  Biso   1.000  F
  O25      1.0000 0.30912  0.81743  0.08498  Biso   1.000  O
  O26      1.0000 0.69088  0.81743  0.41502  Biso   1.000  O
  O27      1.0000 0.80912  0.31743  0.08498  Biso   1.000  O
  O28      1.0000 0.19088  0.31743  0.41502  Biso   1.000  O
  O29      1.0000 0.69088  0.18257  0.91502  Biso   1.000  O
  O30      1.0000 0.30912  0.18257  0.58498  Biso   1.000  O
  O31      1.0000 0.19088  0.68257  0.91502  Biso   1.000  O
  O32      1.0000 0.80912  0.68257  0.58498  Biso   1.000  O
  O33      1.0000 0.07189  0.13814  0.05426  Biso   1.000  O
  O34      1.0000 0.92811  0.13814  0.44574  Biso   1.000  O
  O35      1.0000 0.57189  0.63814  0.05426  Biso   1.000  O
  O36      1.0000 0.42811  0.63814  0.44574  Biso   1.000  O
  O37      1.0000 0.92811  0.86186  0.94574  Biso   1.000  O
  O38      1.0000 0.07189  0.86186  0.55426  Biso   1.000  O
  O39      1.0000 0.42811  0.36186  0.94574  Biso   1.000  O
  O40      1.0000 0.57189  0.36186  0.55426  Biso   1.000  O
  N1       1.0000 0.11722  0.11057  0.10875  Biso   1.000  N
  N2       1.0000 0.88278  0.11057  0.39125  Biso   1.000  N
  N3       1.0000 0.61722  0.61057  0.10875  Biso   1.000  N
  N4       1.0000 0.38278  0.61057  0.39125  Biso   1.000  N
  N5       1.0000 0.88278  0.88943  0.89125  Biso   1.000  N
  N6       1.0000 0.11722  0.88943  0.60875  Biso   1.000  N
  N7       1.0000 0.38278  0.38943  0.89125  Biso   1.000  N
  N8       1.0000 0.61722  0.38943  0.60875  Biso   1.000  N
  C81      1.0000 0.13115  0.17250  0.17004  Biso   1.000  C
  C82      1.0000 0.86885  0.17250  0.32996  Biso   1.000  C
  C83      1.0000 0.63115  0.67250  0.17004  Biso   1.000  C
  C84      1.0000 0.36885  0.67250  0.32996  Biso   1.000  C
  C85      1.0000 0.86885  0.82750  0.82996  Biso   1.000  C
  C86      1.0000 0.13115  0.82750  0.67004  Biso   1.000  C
  C87      1.0000 0.36885  0.32750  0.82996  Biso   1.000  C
  C88      1.0000 0.63115  0.32750  0.67004  Biso   1.000  C
  C89      1.0000 0.14572  0.32410  0.16961  Biso   1.000  C
  C90      1.0000 0.85428  0.32410  0.33039  Biso   1.000  C
  C91      1.0000 0.64572  0.82410  0.16961  Biso   1.000  C
  C92      1.0000 0.35428  0.82410  0.33039  Biso   1.000  C
  C93      1.0000 0.85428  0.67590  0.83039  Biso   1.000  C
  C94      1.0000 0.14572  0.67590  0.66961  Biso   1.000  C
  C95      1.0000 0.35428  0.17590  0.83039  Biso   1.000  C
  C96      1.0000 0.64572  0.17590  0.66961  Biso   1.000  C
  H17      1.0000 0.15510  0.36950  0.20840  Biso   1.000  H
  H18      1.0000 0.84490  0.36950  0.29160  Biso   1.000  H
  H19      1.0000 0.65510  0.86950  0.20840  Biso   1.000  H
  H20      1.0000 0.34490  0.86950  0.29160  Biso   1.000  H
  H21      1.0000 0.84490  0.63050  0.79160  Biso   1.000  H
  H22      1.0000 0.15510  0.63050  0.70840  Biso   1.000  H
  H23      1.0000 0.34490  0.13050  0.79160  Biso   1.000  H
  H24      1.0000 0.65510  0.13050  0.70840  Biso   1.000  H
  H25      1.0000 0.17620  0.32810  0.16730  Biso   1.000  H
  H26      1.0000 0.82380  0.32810  0.33270  Biso   1.000  H
  H27      1.0000 0.67620  0.82810  0.16730  Biso   1.000  H
  H28      1.0000 0.32380  0.82810  0.33270  Biso   1.000  H
  H29      1.0000 0.82380  0.67190  0.83270  Biso   1.000  H
  H30      1.0000 0.17620  0.67190  0.66730  Biso   1.000  H
  H31      1.0000 0.32380  0.17190  0.83270  Biso   1.000  H
  H32      1.0000 0.67620  0.17190  0.66730  Biso   1.000  H
  H33      1.0000 0.11510  0.37110  0.13290  Biso   1.000  H
  H34      1.0000 0.88490  0.37110  0.36710  Biso   1.000  H
  H35      1.0000 0.61510  0.87110  0.13290  Biso   1.000  H
  H36      1.0000 0.38490  0.87110  0.36710  Biso   1.000  H
  H37      1.0000 0.88490  0.62890  0.86710  Biso   1.000  H
  H38      1.0000 0.11510  0.62890  0.63290  Biso   1.000  H
  H39      1.0000 0.38490  0.12890  0.86710  Biso   1.000  H
  H40      1.0000 0.61510  0.12890  0.63290  Biso   1.000  H
  C97      1.0000 0.08300  0.16250  0.17312  Biso   1.000  C
  C98      1.0000 0.91700  0.16250  0.32688  Biso   1.000  C
  C99      1.0000 0.58300  0.66250  0.17312  Biso   1.000  C
  C100     1.0000 0.41700  0.66250  0.32688  Biso   1.000  C
  C101     1.0000 0.91700  0.83750  0.82688  Biso   1.000  C
  C102     1.0000 0.08300  0.83750  0.67312  Biso   1.000  C
  C103     1.0000 0.41700  0.33750  0.82688  Biso   1.000  C
  C104     1.0000 0.58300  0.33750  0.67312  Biso   1.000  C
  H41      1.0000 0.09250  0.20270  0.21280  Biso   1.000  H
  H42      1.0000 0.90750  0.20270  0.28720  Biso   1.000  H
  H43      1.0000 0.59250  0.70270  0.21280  Biso   1.000  H
  H44      1.0000 0.40750  0.70270  0.28720  Biso   1.000  H
  H45      1.0000 0.90750  0.79730  0.78720  Biso   1.000  H
  H46      1.0000 0.09250  0.79730  0.71280  Biso   1.000  H
  H47      1.0000 0.40750  0.29730  0.78720  Biso   1.000  H
  H48      1.0000 0.59250  0.29730  0.71280  Biso   1.000  H
  H49      1.0000 0.05270  0.21280  0.13750  Biso   1.000  H
  H50      1.0000 0.94730  0.21280  0.36250  Biso   1.000  H
  H51      1.0000 0.55270  0.71280  0.13750  Biso   1.000  H
  H52      1.0000 0.44730  0.71280  0.36250  Biso   1.000  H
  H53      1.0000 0.94730  0.78720  0.86250  Biso   1.000  H
  H54      1.0000 0.05270  0.78720  0.63750  Biso   1.000  H
  H55      1.0000 0.44730  0.28720  0.86250  Biso   1.000  H
  H56      1.0000 0.55270  0.28720  0.63750  Biso   1.000  H
  H57      1.0000 0.07320  0.06570  0.17100  Biso   1.000  H
  H58      1.0000 0.92680  0.06570  0.32900  Biso   1.000  H
  H59      1.0000 0.57320  0.56570  0.17100  Biso   1.000  H
  H60      1.0000 0.42680  0.56570  0.32900  Biso   1.000  H
  H61      1.0000 0.92680  0.93430  0.82900  Biso   1.000  H
  H62      1.0000 0.07320  0.93430  0.67100  Biso   1.000  H
  H63      1.0000 0.42680  0.43430  0.82900  Biso   1.000  H
  H64      1.0000 0.57320  0.43430  0.67100  Biso   1.000  H
  C105     1.0000 0.18018  0.08060  0.21829  Biso   1.000  C
  C106     1.0000 0.81982  0.08060  0.28171  Biso   1.000  C
  C107     1.0000 0.68018  0.58060  0.21829  Biso   1.000  C
  C108     1.0000 0.31982  0.58060  0.28171  Biso   1.000  C
  C109     1.0000 0.81982  0.91940  0.78171  Biso   1.000  C
  C110     1.0000 0.18018  0.91940  0.71829  Biso   1.000  C
  C111     1.0000 0.31982  0.41940  0.78171  Biso   1.000  C
  C112     1.0000 0.68018  0.41940  0.71829  Biso   1.000  C
  C113     1.0000 0.16457  0.94240  0.23276  Biso   1.000  C
  C114     1.0000 0.83543  0.94240  0.26724  Biso   1.000  C
  C115     1.0000 0.66457  0.44240  0.23276  Biso   1.000  C
  C116     1.0000 0.33543  0.44240  0.26724  Biso   1.000  C
  C117     1.0000 0.83543  0.05760  0.76724  Biso   1.000  C
  C118     1.0000 0.16457  0.05760  0.73276  Biso   1.000  C
  C119     1.0000 0.33543  0.55760  0.76724  Biso   1.000  C
  C120     1.0000 0.66457  0.55760  0.73276  Biso   1.000  C
  H65      1.0000 0.15130  0.95960  0.25820  Biso   1.000  H
  H66      1.0000 0.84870  0.95960  0.24180  Biso   1.000  H
  H67      1.0000 0.65130  0.45960  0.25820  Biso   1.000  H
  H68      1.0000 0.34870  0.45960  0.24180  Biso   1.000  H
  H69      1.0000 0.84870  0.04040  0.74180  Biso   1.000  H
  H70      1.0000 0.15130  0.04040  0.75820  Biso   1.000  H
  H71      1.0000 0.34870  0.54040  0.74180  Biso   1.000  H
  H72      1.0000 0.65130  0.54040  0.75820  Biso   1.000  H
  H73      1.0000 0.13660  0.89780  0.19310  Biso   1.000  H
  H74      1.0000 0.86340  0.89780  0.30690  Biso   1.000  H
  H75      1.0000 0.63660  0.39780  0.19310  Biso   1.000  H
  H76      1.0000 0.36340  0.39780  0.30690  Biso   1.000  H
  H77      1.0000 0.86340  0.10220  0.80690  Biso   1.000  H
  H78      1.0000 0.13660  0.10220  0.69310  Biso   1.000  H
  H79      1.0000 0.36340  0.60220  0.80690  Biso   1.000  H
  H80      1.0000 0.63660  0.60220  0.69310  Biso   1.000  H
  H81      1.0000 0.19600  0.88240  0.25610  Biso   1.000  H
  H82      1.0000 0.80400  0.88240  0.24390  Biso   1.000  H
  H83      1.0000 0.69600  0.38240  0.25610  Biso   1.000  H
  H84      1.0000 0.30400  0.38240  0.24390  Biso   1.000  H
  H85      1.0000 0.80400  0.11760  0.74390  Biso   1.000  H
  H86      1.0000 0.19600  0.11760  0.75610  Biso   1.000  H
  H87      1.0000 0.30400  0.61760  0.74390  Biso   1.000  H
  H88      1.0000 0.69600  0.61760  0.75610  Biso   1.000  H
  C121     1.0000 0.22469  0.15290  0.27976  Biso   1.000  C
  C122     1.0000 0.77531  0.15290  0.22024  Biso   1.000  C
  C123     1.0000 0.72469  0.65290  0.27976  Biso   1.000  C
  C124     1.0000 0.27531  0.65290  0.22024  Biso   1.000  C
  C125     1.0000 0.77531  0.84710  0.72024  Biso   1.000  C
  C126     1.0000 0.22469  0.84710  0.77976  Biso   1.000  C
  C127     1.0000 0.27531  0.34710  0.72024  Biso   1.000  C
  C128     1.0000 0.72469  0.34710  0.77976  Biso   1.000  C
  H89      1.0000 0.21140  0.17610  0.30470  Biso   1.000  H
  H90      1.0000 0.78860  0.17610  0.19530  Biso   1.000  H
  H91      1.0000 0.71140  0.67610  0.30470  Biso   1.000  H
  H92      1.0000 0.28860  0.67610  0.19530  Biso   1.000  H
  H93      1.0000 0.78860  0.82390  0.69530  Biso   1.000  H
  H94      1.0000 0.21140  0.82390  0.80470  Biso   1.000  H
  H95      1.0000 0.28860  0.32390  0.69530  Biso   1.000  H
  H96      1.0000 0.71140  0.32390  0.80470  Biso   1.000  H
  H97      1.0000 0.25550  0.09130  0.30420  Biso   1.000  H
  H98      1.0000 0.74450  0.09130  0.19580  Biso   1.000  H
  H99      1.0000 0.75550  0.59130  0.30420  Biso   1.000  H
  H100     1.0000 0.24450  0.59130  0.19580  Biso   1.000  H
  H101     1.0000 0.74450  0.90870  0.69580  Biso   1.000  H
  H102     1.0000 0.25550  0.90870  0.80420  Biso   1.000  H
  H103     1.0000 0.24450  0.40870  0.69580  Biso   1.000  H
  H104     1.0000 0.75550  0.40870  0.80420  Biso   1.000  H
  H105     1.0000 0.23540  0.23720  0.26940  Biso   1.000  H
  H106     1.0000 0.76460  0.23720  0.23060  Biso   1.000  H
  H107     1.0000 0.73540  0.73720  0.26940  Biso   1.000  H
  H108     1.0000 0.26460  0.73720  0.23060  Biso   1.000  H
  H109     1.0000 0.76460  0.76280  0.73060  Biso   1.000  H
  H110     1.0000 0.23540  0.76280  0.76940  Biso   1.000  H
  H111     1.0000 0.26460  0.26280  0.73060  Biso   1.000  H
  H112     1.0000 0.73540  0.26280  0.76940  Biso   1.000  H
  N9       1.0000 0.20009  0.04395  0.17902  Biso   1.000  N
  N10      1.0000 0.79991  0.04395  0.32098  Biso   1.000  N
  N11      1.0000 0.70009  0.54395  0.17902  Biso   1.000  N
  N12      1.0000 0.29991  0.54395  0.32098  Biso   1.000  N
  N13      1.0000 0.79991  0.95605  0.82098  Biso   1.000  N
  N14      1.0000 0.20009  0.95605  0.67902  Biso   1.000  N
  N15      1.0000 0.29991  0.45605  0.82098  Biso   1.000  N
  N16      1.0000 0.70009  0.45605  0.67902  Biso   1.000  N
  O41      1.0000 0.24708  0.99502  0.20334  Biso   1.000  O
  O42      1.0000 0.75292  0.99502  0.29666  Biso   1.000  O
  O43      1.0000 0.74708  0.49502  0.20334  Biso   1.000  O
  O44      1.0000 0.25292  0.49502  0.29666  Biso   1.000  O
  O45      1.0000 0.75292  0.00498  0.79666  Biso   1.000  O
  O46      1.0000 0.24708  0.00498  0.70334  Biso   1.000  O
  O47      1.0000 0.25292  0.50498  0.79666  Biso   1.000  O
  O48      1.0000 0.74708  0.50498  0.70334  Biso   1.000  O
  C129     1.0000 0.15984  0.05083  0.11605  Biso   1.000  C
  C130     1.0000 0.84016  0.05083  0.38395  Biso   1.000  C
  C131     1.0000 0.65984  0.55083  0.11605  Biso   1.000  C
  C132     1.0000 0.34016  0.55083  0.38395  Biso   1.000  C
  C133     1.0000 0.84016  0.94917  0.88395  Biso   1.000  C
  C134     1.0000 0.15984  0.94917  0.61605  Biso   1.000  C
  C135     1.0000 0.34016  0.44917  0.88395  Biso   1.000  C
  C136     1.0000 0.65984  0.44917  0.61605  Biso   1.000  C
  C137     1.0000 0.16250  0.00094  0.06569  Biso   1.000  C
  C138     1.0000 0.83750  0.00094  0.43431  Biso   1.000  C
  C139     1.0000 0.66250  0.50094  0.06569  Biso   1.000  C
  C140     1.0000 0.33750  0.50094  0.43431  Biso   1.000  C
  C141     1.0000 0.83750  0.99906  0.93431  Biso   1.000  C
  C142     1.0000 0.16250  0.99906  0.56569  Biso   1.000  C
  C143     1.0000 0.33750  0.49906  0.93431  Biso   1.000  C
  C144     1.0000 0.66250  0.49906  0.56569  Biso   1.000  C
  C145     1.0000 0.20312  0.92110  0.06992  Biso   1.000  C
  C146     1.0000 0.79688  0.92110  0.43008  Biso   1.000  C
  C147     1.0000 0.70312  0.42110  0.06992  Biso   1.000  C
  C148     1.0000 0.29688  0.42110  0.43008  Biso   1.000  C
  C149     1.0000 0.79688  0.07890  0.93008  Biso   1.000  C
  C150     1.0000 0.20312  0.07890  0.56992  Biso   1.000  C
  C151     1.0000 0.29688  0.57890  0.93008  Biso   1.000  C
  C152     1.0000 0.70312  0.57890  0.56992  Biso   1.000  C
  H113     1.0000 0.23470  0.89080  0.10850  Biso   1.000  H
  H114     1.0000 0.76530  0.89080  0.39150  Biso   1.000  H
  H115     1.0000 0.73470  0.39080  0.10850  Biso   1.000  H
  H116     1.0000 0.26530  0.39080  0.39150  Biso   1.000  H
  H117     1.0000 0.76530  0.10920  0.89150  Biso   1.000  H
  H118     1.0000 0.23470  0.10920  0.60850  Biso   1.000  H
  H119     1.0000 0.26530  0.60920  0.89150  Biso   1.000  H
  H120     1.0000 0.73470  0.60920  0.60850  Biso   1.000  H
  N17      1.0000 0.19134  0.89412  0.01320  Biso   1.000  N
  N18      1.0000 0.80866  0.89412  0.48680  Biso   1.000  N
  N19      1.0000 0.69134  0.39412  0.01320  Biso   1.000  N
  N20      1.0000 0.30866  0.39412  0.48680  Biso   1.000  N
  N21      1.0000 0.80866  0.10588  0.98680  Biso   1.000  N
  N22      1.0000 0.19134  0.10588  0.51320  Biso   1.000  N
  N23      1.0000 0.30866  0.60588  0.98680  Biso   1.000  N
  N24      1.0000 0.69134  0.60588  0.51320  Biso   1.000  N
  N25      1.0000 0.14281  0.95650  0.97175  Biso   1.000  N
  N26      1.0000 0.85719  0.95650  0.52825  Biso   1.000  N
  N27      1.0000 0.64281  0.45650  0.97175  Biso   1.000  N
  N28      1.0000 0.35719  0.45650  0.52825  Biso   1.000  N
  N29      1.0000 0.85719  0.04350  0.02825  Biso   1.000  N
  N30      1.0000 0.14281  0.04350  0.47175  Biso   1.000  N
  N31      1.0000 0.35719  0.54350  0.02825  Biso   1.000  N
  N32      1.0000 0.64281  0.54350  0.47175  Biso   1.000  N
  C153     1.0000 0.12440  0.97490  0.90660  Biso   1.000  C
  C154     1.0000 0.87560  0.97490  0.59340  Biso   1.000  C
  C155     1.0000 0.62440  0.47490  0.90660  Biso   1.000  C
  C156     1.0000 0.37560  0.47490  0.59340  Biso   1.000  C
  C157     1.0000 0.87560  0.02510  0.09340  Biso   1.000  C
  C158     1.0000 0.12440  0.02510  0.40660  Biso   1.000  C
  C159     1.0000 0.37560  0.52510  0.09340  Biso   1.000  C
  C160     1.0000 0.62440  0.52510  0.40660  Biso   1.000  C
  H121     1.0000 0.14980  0.93210  0.90000  Biso   1.000  H
  H122     1.0000 0.85020  0.93210  0.60000  Biso   1.000  H
  H123     1.0000 0.64980  0.43210  0.90000  Biso   1.000  H
  H124     1.0000 0.35020  0.43210  0.60000  Biso   1.000  H
  H125     1.0000 0.85020  0.06790  0.10000  Biso   1.000  H
  H126     1.0000 0.14980  0.06790  0.40000  Biso   1.000  H
  H127     1.0000 0.35020  0.56790  0.10000  Biso   1.000  H
  H128     1.0000 0.64980  0.56790  0.40000  Biso   1.000  H
  H129     1.0000 0.12140  0.07400  0.89630  Biso   1.000  H
  H130     1.0000 0.87860  0.07400  0.60370  Biso   1.000  H
  H131     1.0000 0.62140  0.57400  0.89630  Biso   1.000  H
  H132     1.0000 0.37860  0.57400  0.60370  Biso   1.000  H
  H133     1.0000 0.87860  0.92600  0.10370  Biso   1.000  H
  H134     1.0000 0.12140  0.92600  0.39630  Biso   1.000  H
  H135     1.0000 0.37860  0.42600  0.10370  Biso   1.000  H
  H136     1.0000 0.62140  0.42600  0.39630  Biso   1.000  H
  C161     1.0000 0.06720  0.90220  0.86290  Biso   1.000  C
  C162     1.0000 0.93280  0.90220  0.63710  Biso   1.000  C
  C163     1.0000 0.56720  0.40220  0.86290  Biso   1.000  C
  C164     1.0000 0.43280  0.40220  0.63710  Biso   1.000  C
  C165     1.0000 0.93280  0.09780  0.13710  Biso   1.000  C
  C166     1.0000 0.06720  0.09780  0.36290  Biso   1.000  C
  C167     1.0000 0.43280  0.59780  0.13710  Biso   1.000  C
  C168     1.0000 0.56720  0.59780  0.36290  Biso   1.000  C
  H137     1.0000 0.07120  0.80260  0.87260  Biso   1.000  H
  H138     1.0000 0.92880  0.80260  0.62740  Biso   1.000  H
  H139     1.0000 0.57120  0.30260  0.87260  Biso   1.000  H
  H140     1.0000 0.42880  0.30260  0.62740  Biso   1.000  H
  H141     1.0000 0.92880  0.19740  0.12740  Biso   1.000  H
  H142     1.0000 0.07120  0.19740  0.37260  Biso   1.000  H
  H143     1.0000 0.42880  0.69740  0.12740  Biso   1.000  H
  H144     1.0000 0.57120  0.69740  0.37260  Biso   1.000  H
  H145     1.0000 0.04320  0.94100  0.87260  Biso   1.000  H
  H146     1.0000 0.95680  0.94100  0.62740  Biso   1.000  H
  H147     1.0000 0.54320  0.44100  0.87260  Biso   1.000  H
  H148     1.0000 0.45680  0.44100  0.62740  Biso   1.000  H
  H149     1.0000 0.95680  0.05900  0.12740  Biso   1.000  H
  H150     1.0000 0.04320  0.05900  0.37260  Biso   1.000  H
  H151     1.0000 0.45680  0.55900  0.12740  Biso   1.000  H
  H152     1.0000 0.54320  0.55900  0.37260  Biso   1.000  H
  C169     1.0000 0.04200  0.92210  0.79280  Biso   1.000  C
  C170     1.0000 0.95800  0.92210  0.70720  Biso   1.000  C
  C171     1.0000 0.54200  0.42210  0.79280  Biso   1.000  C
  C172     1.0000 0.45800  0.42210  0.70720  Biso   1.000  C
  C173     1.0000 0.95800  0.07790  0.20720  Biso   1.000  C
  C174     1.0000 0.04200  0.07790  0.29280  Biso   1.000  C
  C175     1.0000 0.45800  0.57790  0.20720  Biso   1.000  C
  C176     1.0000 0.54200  0.57790  0.29280  Biso   1.000  C
  H153     1.0000 0.00720  0.87620  0.76770  Biso   1.000  H
  H154     1.0000 0.99280  0.87620  0.73230  Biso   1.000  H
  H155     1.0000 0.50720  0.37620  0.76770  Biso   1.000  H
  H156     1.0000 0.49280  0.37620  0.73230  Biso   1.000  H
  H157     1.0000 0.99280  0.12380  0.23230  Biso   1.000  H
  H158     1.0000 0.00720  0.12380  0.26770  Biso   1.000  H
  H159     1.0000 0.49280  0.62380  0.23230  Biso   1.000  H
  H160     1.0000 0.50720  0.62380  0.26770  Biso   1.000  H
  H161     1.0000 0.03740  0.02060  0.78290  Biso   1.000  H
  H162     1.0000 0.96260  0.02060  0.71710  Biso   1.000  H
  H163     1.0000 0.53740  0.52060  0.78290  Biso   1.000  H
  H164     1.0000 0.46260  0.52060  0.71710  Biso   1.000  H
  H165     1.0000 0.96260  0.97940  0.21710  Biso   1.000  H
  H166     1.0000 0.03740  0.97940  0.28290  Biso   1.000  H
  H167     1.0000 0.46260  0.47940  0.21710  Biso   1.000  H
  H168     1.0000 0.53740  0.47940  0.28290  Biso   1.000  H
  H169     1.0000 0.06540  0.88220  0.78280  Biso   1.000  H
  H170     1.0000 0.93460  0.88220  0.71720  Biso   1.000  H
  H171     1.0000 0.56540  0.38220  0.78280  Biso   1.000  H
  H172     1.0000 0.43460  0.38220  0.71720  Biso   1.000  H
  H173     1.0000 0.93460  0.11780  0.21720  Biso   1.000  H
  H174     1.0000 0.06540  0.11780  0.28280  Biso   1.000  H
  H175     1.0000 0.43460  0.61780  0.21720  Biso   1.000  H
  H176     1.0000 0.56540  0.61780  0.28280  Biso   1.000  H
  C177     1.0000 0.12476  0.02060  0.00122  Biso   1.000  C
  C178     1.0000 0.87524  0.02060  0.49878  Biso   1.000  C
  C179     1.0000 0.62476  0.52060  0.00122  Biso   1.000  C
  C180     1.0000 0.37524  0.52060  0.49878  Biso   1.000  C
  C181     1.0000 0.87524  0.97940  0.99878  Biso   1.000  C
  C182     1.0000 0.12476  0.97940  0.50122  Biso   1.000  C
  C183     1.0000 0.37524  0.47940  0.99878  Biso   1.000  C
  C184     1.0000 0.62476  0.47940  0.50122  Biso   1.000  C
  H177     1.0000 0.09220  0.07030  0.98170  Biso   1.000  H
  H178     1.0000 0.90780  0.07030  0.51830  Biso   1.000  H
  H179     1.0000 0.59220  0.57030  0.98170  Biso   1.000  H
  H180     1.0000 0.40780  0.57030  0.51830  Biso   1.000  H
  H181     1.0000 0.90780  0.92970  0.01830  Biso   1.000  H
  H182     1.0000 0.09220  0.92970  0.48170  Biso   1.000  H
  H183     1.0000 0.40780  0.42970  0.01830  Biso   1.000  H
  H184     1.0000 0.59220  0.42970  0.48170  Biso   1.000  H
  F97      1.0000 0.06710  0.50300  0.00480  Biso   1.000  F
  F98      1.0000 0.93290  0.50300  0.49520  Biso   1.000  F
  F99      1.0000 0.56710  0.00300  0.00480  Biso   1.000  F
  F100     1.0000 0.43290  0.00300  0.49520  Biso   1.000  F
  F101     1.0000 0.93290  0.49700  0.99520  Biso   1.000  F
  F102     1.0000 0.06710  0.49700  0.50480  Biso   1.000  F
  F103     1.0000 0.43290  0.99700  0.99520  Biso   1.000  F
  F104     1.0000 0.56710  0.99700  0.50480  Biso   1.000  F
  F105     1.0000 0.07300  0.66100  0.95480  Biso   1.000  F
  F106     1.0000 0.92700  0.66100  0.54520  Biso   1.000  F
  F107     1.0000 0.57300  0.16100  0.95480  Biso   1.000  F
  F108     1.0000 0.42700  0.16100  0.54520  Biso   1.000  F
  F109     1.0000 0.92700  0.33900  0.04520  Biso   1.000  F
  F110     1.0000 0.07300  0.33900  0.45480  Biso   1.000  F
  F111     1.0000 0.42700  0.83900  0.04520  Biso   1.000  F
  F112     1.0000 0.57300  0.83900  0.45480  Biso   1.000  F
  F113     1.0000 0.13390  0.63780  0.05140  Biso   1.000  F
  F114     1.0000 0.86610  0.63780  0.44860  Biso   1.000  F
  F115     1.0000 0.63390  0.13780  0.05140  Biso   1.000  F
  F116     1.0000 0.36610  0.13780  0.44860  Biso   1.000  F
  F117     1.0000 0.86610  0.36220  0.94860  Biso   1.000  F
  F118     1.0000 0.13390  0.36220  0.55140  Biso   1.000  F
  F119     1.0000 0.36610  0.86220  0.94860  Biso   1.000  F
  F120     1.0000 0.63390  0.86220  0.55140  Biso   1.000  F
  F121     1.0000 0.03990  0.78060  0.19140  Biso   1.000  F
  F122     1.0000 0.96010  0.78060  0.30860  Biso   1.000  F
  F123     1.0000 0.53990  0.28060  0.19140  Biso   1.000  F
  F124     1.0000 0.46010  0.28060  0.30860  Biso   1.000  F
  F125     1.0000 0.96010  0.21940  0.80860  Biso   1.000  F
  F126     1.0000 0.03990  0.21940  0.69140  Biso   1.000  F
  F127     1.0000 0.46010  0.71940  0.80860  Biso   1.000  F
  F128     1.0000 0.53990  0.71940  0.69140  Biso   1.000  F
  F129     1.0000 0.96370  0.71850  0.11910  Biso   1.000  F
  F130     1.0000 0.03630  0.71850  0.38090  Biso   1.000  F
  F131     1.0000 0.46370  0.21850  0.11910  Biso   1.000  F
  F132     1.0000 0.53630  0.21850  0.38090  Biso   1.000  F
  F133     1.0000 0.03630  0.28150  0.88090  Biso   1.000  F
  F134     1.0000 0.96370  0.28150  0.61910  Biso   1.000  F
  F135     1.0000 0.53630  0.78150  0.88090  Biso   1.000  F
  F136     1.0000 0.46370  0.78150  0.61910  Biso   1.000  F
  F137     1.0000 0.03330  0.59080  0.15750  Biso   1.000  F
  F138     1.0000 0.96670  0.59080  0.34250  Biso   1.000  F
  F139     1.0000 0.53330  0.09080  0.15750  Biso   1.000  F
  F140     1.0000 0.46670  0.09080  0.34250  Biso   1.000  F
  F141     1.0000 0.96670  0.40920  0.84250  Biso   1.000  F
  F142     1.0000 0.03330  0.40920  0.65750  Biso   1.000  F
  F143     1.0000 0.46670  0.90920  0.84250  Biso   1.000  F
  F144     1.0000 0.53330  0.90920  0.65750  Biso   1.000  F
  F145     1.0000 0.28430  0.25060  0.96440  Biso   1.000  F
  F146     1.0000 0.71570  0.25060  0.53560  Biso   1.000  F
  F147     1.0000 0.78430  0.75060  0.96440  Biso   1.000  F
  F148     1.0000 0.21570  0.75060  0.53560  Biso   1.000  F
  F149     1.0000 0.71570  0.74940  0.03560  Biso   1.000  F
  F150     1.0000 0.28430  0.74940  0.46440  Biso   1.000  F
  F151     1.0000 0.21570  0.24940  0.03560  Biso   1.000  F
  F152     1.0000 0.78430  0.24940  0.46440  Biso   1.000  F
  F153     1.0000 0.22000  0.14620  0.89260  Biso   1.000  F
  F154     1.0000 0.78000  0.14620  0.60740  Biso   1.000  F
  F155     1.0000 0.72000  0.64620  0.89260  Biso   1.000  F
  F156     1.0000 0.28000  0.64620  0.60740  Biso   1.000  F
  F157     1.0000 0.78000  0.85380  0.10740  Biso   1.000  F
  F158     1.0000 0.22000  0.85380  0.39260  Biso   1.000  F
  F159     1.0000 0.28000  0.35380  0.10740  Biso   1.000  F
  F160     1.0000 0.72000  0.35380  0.39260  Biso   1.000  F
  F161     1.0000 0.29450  0.11630  0.91040  Biso   1.000  F
  F162     1.0000 0.70550  0.11630  0.58960  Biso   1.000  F
  F163     1.0000 0.79450  0.61630  0.91040  Biso   1.000  F
  F164     1.0000 0.20550  0.61630  0.58960  Biso   1.000  F
  F165     1.0000 0.70550  0.88370  0.08960  Biso   1.000  F
  F166     1.0000 0.29450  0.88370  0.41040  Biso   1.000  F
  F167     1.0000 0.20550  0.38370  0.08960  Biso   1.000  F
  F168     1.0000 0.79450  0.38370  0.41040  Biso   1.000  F
  F169     1.0000 0.35910  0.92790  0.19960  Biso   1.000  F
  F170     1.0000 0.64090  0.92790  0.30040  Biso   1.000  F
  F171     1.0000 0.85910  0.42790  0.19960  Biso   1.000  F
  F172     1.0000 0.14090  0.42790  0.30040  Biso   1.000  F
  F173     1.0000 0.64090  0.07210  0.80040  Biso   1.000  F
  F174     1.0000 0.35910  0.07210  0.69960  Biso   1.000  F
  F175     1.0000 0.14090  0.57210  0.80040  Biso   1.000  F
  F176     1.0000 0.85910  0.57210  0.69960  Biso   1.000  F
  F177     1.0000 0.41730  0.90990  0.18620  Biso   1.000  F
  F178     1.0000 0.58270  0.90990  0.31380  Biso   1.000  F
  F179     1.0000 0.91730  0.40990  0.18620  Biso   1.000  F
  F180     1.0000 0.08270  0.40990  0.31380  Biso   1.000  F
  F181     1.0000 0.58270  0.09010  0.81380  Biso   1.000  F
  F182     1.0000 0.41730  0.09010  0.68620  Biso   1.000  F
  F183     1.0000 0.08270  0.59010  0.81380  Biso   1.000  F
  F184     1.0000 0.91730  0.59010  0.68620  Biso   1.000  F
  F185     1.0000 0.38340  0.10210  0.17520  Biso   1.000  F
  F186     1.0000 0.61660  0.10210  0.32480  Biso   1.000  F
  F187     1.0000 0.88340  0.60210  0.17520  Biso   1.000  F
  F188     1.0000 0.11660  0.60210  0.32480  Biso   1.000  F
  F189     1.0000 0.61660  0.89790  0.82480  Biso   1.000  F
  F190     1.0000 0.38340  0.89790  0.67520  Biso   1.000  F
  F191     1.0000 0.11660  0.39790  0.82480  Biso   1.000  F
  F192     1.0000 0.88340  0.39790  0.67520  Biso   1.000  F
  C185     1.0000 0.10330  0.90680  0.89660  Biso   1.000  C
  C186     1.0000 0.89670  0.90680  0.60340  Biso   1.000  C
  C187     1.0000 0.60330  0.40680  0.89660  Biso   1.000  C
  C188     1.0000 0.39670  0.40680  0.60340  Biso   1.000  C
  C189     1.0000 0.89670  0.09320  0.10340  Biso   1.000  C
  C190     1.0000 0.10330  0.09320  0.39660  Biso   1.000  C
  C191     1.0000 0.39670  0.59320  0.10340  Biso   1.000  C
  C192     1.0000 0.60330  0.59320  0.39660  Biso   1.000  C
  H185     1.0000 0.10440  0.80560  0.89360  Biso   1.000  H
  H186     1.0000 0.89560  0.80560  0.60640  Biso   1.000  H
  H187     1.0000 0.60440  0.30560  0.89360  Biso   1.000  H
  H188     1.0000 0.39560  0.30560  0.60640  Biso   1.000  H
  H189     1.0000 0.89560  0.19440  0.10640  Biso   1.000  H
  H190     1.0000 0.10440  0.19440  0.39360  Biso   1.000  H
  H191     1.0000 0.39560  0.69440  0.10640  Biso   1.000  H
  H192     1.0000 0.60440  0.69440  0.39360  Biso   1.000  H
  H193     1.0000 0.06590  0.93470  0.87750  Biso   1.000  H
  H194     1.0000 0.93410  0.93470  0.62250  Biso   1.000  H
  H195     1.0000 0.56590  0.43470  0.87750  Biso   1.000  H
  H196     1.0000 0.43410  0.43470  0.62250  Biso   1.000  H
  H197     1.0000 0.93410  0.06530  0.12250  Biso   1.000  H
  H198     1.0000 0.06590  0.06530  0.37750  Biso   1.000  H
  H199     1.0000 0.43410  0.56530  0.12250  Biso   1.000  H
  H200     1.0000 0.56590  0.56530  0.37750  Biso   1.000  H
  C193     1.0000 0.12390  0.97690  0.86240  Biso   1.000  C
  C194     1.0000 0.87610  0.97690  0.63760  Biso   1.000  C
  C195     1.0000 0.62390  0.47690  0.86240  Biso   1.000  C
  C196     1.0000 0.37610  0.47690  0.63760  Biso   1.000  C
  C197     1.0000 0.87610  0.02310  0.13760  Biso   1.000  C
  C198     1.0000 0.12390  0.02310  0.36240  Biso   1.000  C
  C199     1.0000 0.37610  0.52310  0.13760  Biso   1.000  C
  C200     1.0000 0.62390  0.52310  0.36240  Biso   1.000  C
  H201     1.0000 0.16060  0.94350  0.88060  Biso   1.000  H
  H202     1.0000 0.83940  0.94350  0.61940  Biso   1.000  H
  H203     1.0000 0.66060  0.44350  0.88060  Biso   1.000  H
  H204     1.0000 0.33940  0.44350  0.61940  Biso   1.000  H
  H205     1.0000 0.83940  0.05650  0.11940  Biso   1.000  H
  H206     1.0000 0.16060  0.05650  0.38060  Biso   1.000  H
  H207     1.0000 0.33940  0.55650  0.11940  Biso   1.000  H
  H208     1.0000 0.66060  0.55650  0.38060  Biso   1.000  H
  H209     1.0000 0.10100  0.94970  0.81730  Biso   1.000  H
  H210     1.0000 0.89900  0.94970  0.68270  Biso   1.000  H
  H211     1.0000 0.60100  0.44970  0.81730  Biso   1.000  H
  H212     1.0000 0.39900  0.44970  0.68270  Biso   1.000  H
  H213     1.0000 0.89900  0.05030  0.18270  Biso   1.000  H
  H214     1.0000 0.10100  0.05030  0.31730  Biso   1.000  H
  H215     1.0000 0.39900  0.55030  0.18270  Biso   1.000  H
  H216     1.0000 0.60100  0.55030  0.31730  Biso   1.000  H
  C201     1.0000 0.12490  0.12670  0.86660  Biso   1.000  C
  C202     1.0000 0.87510  0.12670  0.63340  Biso   1.000  C
  C203     1.0000 0.62490  0.62670  0.86660  Biso   1.000  C
  C204     1.0000 0.37510  0.62670  0.63340  Biso   1.000  C
  C205     1.0000 0.87510  0.87330  0.13340  Biso   1.000  C
  C206     1.0000 0.12490  0.87330  0.36660  Biso   1.000  C
  C207     1.0000 0.37510  0.37330  0.13340  Biso   1.000  C
  C208     1.0000 0.62490  0.37330  0.36660  Biso   1.000  C
  H217     1.0000 0.13850  0.16530  0.84390  Biso   1.000  H
  H218     1.0000 0.86150  0.16530  0.65610  Biso   1.000  H
  H219     1.0000 0.63850  0.66530  0.84390  Biso   1.000  H
  H220     1.0000 0.36150  0.66530  0.65610  Biso   1.000  H
  H221     1.0000 0.86150  0.83470  0.15610  Biso   1.000  H
  H222     1.0000 0.13850  0.83470  0.34390  Biso   1.000  H
  H223     1.0000 0.36150  0.33470  0.15610  Biso   1.000  H
  H224     1.0000 0.63850  0.33470  0.34390  Biso   1.000  H
  H225     1.0000 0.08860  0.16090  0.84770  Biso   1.000  H
  H226     1.0000 0.91140  0.16090  0.65230  Biso   1.000  H
  H227     1.0000 0.58860  0.66090  0.84770  Biso   1.000  H
  H228     1.0000 0.41140  0.66090  0.65230  Biso   1.000  H
  H229     1.0000 0.91140  0.83910  0.15230  Biso   1.000  H
  H230     1.0000 0.08860  0.83910  0.34770  Biso   1.000  H
  H231     1.0000 0.41140  0.33910  0.15230  Biso   1.000  H
  H232     1.0000 0.58860  0.33910  0.34770  Biso   1.000  H
  H233     1.0000 0.14830  0.15460  0.91100  Biso   1.000  H
  H234     1.0000 0.85170  0.15460  0.58900  Biso   1.000  H
  H235     1.0000 0.64830  0.65460  0.91100  Biso   1.000  H
  H236     1.0000 0.35170  0.65460  0.58900  Biso   1.000  H
  H237     1.0000 0.85170  0.84540  0.08900  Biso   1.000  H
  H238     1.0000 0.14830  0.84540  0.41100  Biso   1.000  H
  H239     1.0000 0.35170  0.34540  0.08900  Biso   1.000  H
  H240     1.0000 0.64830  0.34540  0.41100  Biso   1.000  H
  C209     1.0000 0.11320  0.94700  0.90610  Biso   1.000  C
  C210     1.0000 0.88680  0.94700  0.59390  Biso   1.000  C
  C211     1.0000 0.61320  0.44700  0.90610  Biso   1.000  C
  C212     1.0000 0.38680  0.44700  0.59390  Biso   1.000  C
  C213     1.0000 0.88680  0.05300  0.09390  Biso   1.000  C
  C214     1.0000 0.11320  0.05300  0.40610  Biso   1.000  C
  C215     1.0000 0.38680  0.55300  0.09390  Biso   1.000  C
  C216     1.0000 0.61320  0.55300  0.40610  Biso   1.000  C
  H241     1.0000 0.12880  0.87510  0.89470  Biso   1.000  H
  H242     1.0000 0.87120  0.87510  0.60530  Biso   1.000  H
  H243     1.0000 0.62880  0.37510  0.89470  Biso   1.000  H
  H244     1.0000 0.37120  0.37510  0.60530  Biso   1.000  H
  H245     1.0000 0.87120  0.12490  0.10530  Biso   1.000  H
  H246     1.0000 0.12880  0.12490  0.39470  Biso   1.000  H
  H247     1.0000 0.37120  0.62490  0.10530  Biso   1.000  H
  H248     1.0000 0.62880  0.62490  0.39470  Biso   1.000  H
  H249     1.0000 0.07600  0.92010  0.88860  Biso   1.000  H
  H250     1.0000 0.92400  0.92010  0.61140  Biso   1.000  H
  H251     1.0000 0.57600  0.42010  0.88860  Biso   1.000  H
  H252     1.0000 0.42400  0.42010  0.61140  Biso   1.000  H
  H253     1.0000 0.92400  0.07990  0.11140  Biso   1.000  H
  H254     1.0000 0.07600  0.07990  0.38860  Biso   1.000  H
  H255     1.0000 0.42400  0.57990  0.11140  Biso   1.000  H
  H256     1.0000 0.57600  0.57990  0.38860  Biso   1.000  H
  C217     1.0000 0.11300  0.05000  0.88400  Biso   1.000  C
  C218     1.0000 0.88700  0.05000  0.61600  Biso   1.000  C
  C219     1.0000 0.61300  0.55000  0.88400  Biso   1.000  C
  C220     1.0000 0.38700  0.55000  0.61600  Biso   1.000  C
  C221     1.0000 0.88700  0.95000  0.11600  Biso   1.000  C
  C222     1.0000 0.11300  0.95000  0.38400  Biso   1.000  C
  C223     1.0000 0.38700  0.45000  0.11600  Biso   1.000  C
  C224     1.0000 0.61300  0.45000  0.38400  Biso   1.000  C
  H257     1.0000 0.15010  0.08350  0.90790  Biso   1.000  H
  H258     1.0000 0.84990  0.08350  0.59210  Biso   1.000  H
  H259     1.0000 0.65010  0.58350  0.90790  Biso   1.000  H
  H260     1.0000 0.34990  0.58350  0.59210  Biso   1.000  H
  H261     1.0000 0.84990  0.91650  0.09210  Biso   1.000  H
  H262     1.0000 0.15010  0.91650  0.40790  Biso   1.000  H
  H263     1.0000 0.34990  0.41650  0.09210  Biso   1.000  H
  H264     1.0000 0.65010  0.41650  0.40790  Biso   1.000  H
  H265     1.0000 0.09280  0.11730  0.89150  Biso   1.000  H
  H266     1.0000 0.90720  0.11730  0.60850  Biso   1.000  H
  H267     1.0000 0.59280  0.61730  0.89150  Biso   1.000  H
  H268     1.0000 0.40720  0.61730  0.60850  Biso   1.000  H
  H269     1.0000 0.90720  0.88270  0.10850  Biso   1.000  H
  H270     1.0000 0.09280  0.88270  0.39150  Biso   1.000  H
  H271     1.0000 0.40720  0.38270  0.10850  Biso   1.000  H
  H272     1.0000 0.59280  0.38270  0.39150  Biso   1.000  H
  C225     1.0000 0.08840  0.05800  0.81080  Biso   1.000  C
  C226     1.0000 0.91160  0.05800  0.68920  Biso   1.000  C
  C227     1.0000 0.58840  0.55800  0.81080  Biso   1.000  C
  C228     1.0000 0.41160  0.55800  0.68920  Biso   1.000  C
  C229     1.0000 0.91160  0.94200  0.18920  Biso   1.000  C
  C230     1.0000 0.08840  0.94200  0.31080  Biso   1.000  C
  C231     1.0000 0.41160  0.44200  0.18920  Biso   1.000  C
  C232     1.0000 0.58840  0.44200  0.31080  Biso   1.000  C
  H273     1.0000 0.09120  0.15260  0.79990  Biso   1.000  H
  H274     1.0000 0.90880  0.15260  0.70010  Biso   1.000  H
  H275     1.0000 0.59120  0.65260  0.79990  Biso   1.000  H
  H276     1.0000 0.40880  0.65260  0.70010  Biso   1.000  H
  H277     1.0000 0.90880  0.84740  0.20010  Biso   1.000  H
  H278     1.0000 0.09120  0.84740  0.29990  Biso   1.000  H
  H279     1.0000 0.40880  0.34740  0.20010  Biso   1.000  H
  H280     1.0000 0.59120  0.34740  0.29990  Biso   1.000  H
  H281     1.0000 0.10840  0.99620  0.80210  Biso   1.000  H
  H282     1.0000 0.89160  0.99620  0.69790  Biso   1.000  H
  H283     1.0000 0.60840  0.49620  0.80210  Biso   1.000  H
  H284     1.0000 0.39160  0.49620  0.69790  Biso   1.000  H
  H285     1.0000 0.89160  0.00380  0.19790  Biso   1.000  H
  H286     1.0000 0.10840  0.00380  0.30210  Biso   1.000  H
  H287     1.0000 0.39160  0.50380  0.19790  Biso   1.000  H
  H288     1.0000 0.60840  0.50380  0.30210  Biso   1.000  H
  H289     1.0000 0.05080  0.03020  0.78560  Biso   1.000  H
  H290     1.0000 0.94920  0.03020  0.71440  Biso   1.000  H
  H291     1.0000 0.55080  0.53020  0.78560  Biso   1.000  H
  H292     1.0000 0.44920  0.53020  0.71440  Biso   1.000  H
  H293     1.0000 0.94920  0.96980  0.21440  Biso   1.000  H
  H294     1.0000 0.05080  0.96980  0.28560  Biso   1.000  H
  H295     1.0000 0.44920  0.46980  0.21440  Biso   1.000  H
  H296     1.0000 0.55080  0.46980  0.28560  Biso   1.000  H
