data_image0
_cell_length_a       30.44
_cell_length_b       9.6463
_cell_length_c       25.7769
_cell_angle_alpha    90
_cell_angle_beta     126.19
_cell_angle_gamma    90

_symmetry_space_group_name_H-M    "P 1"
_symmetry_int_tables_number       1

loop_
  _symmetry_equiv_pos_as_xyz
  'x, y, z'

loop_
  _atom_site_label
  _atom_site_occupancy
  _atom_site_fract_x
  _atom_site_fract_y
  _atom_site_fract_z
  _atom_site_thermal_displace_type
  _atom_site_B_iso_or_equiv
  _atom_site_type_symbol
  Cu1      1.0000 0.25000  0.25000  0.50000  Biso   1.000  Cu
  Cu2      1.0000 0.75000  0.75000  0.50000  Biso   1.000  Cu
  Cu3      1.0000 0.75000  0.25000  0.00000  Biso   1.000  Cu
  Cu4      1.0000 0.25000  0.75000  0.00000  Biso   1.000  Cu
  O1       1.0000 0.18211  0.15040  0.42220  Biso   1.000  O
  O2       1.0000 0.68211  0.65040  0.42220  Biso   1.000  O
  O3       1.0000 0.81789  0.15040  0.07780  Biso   1.000  O
  O4       1.0000 0.31789  0.65040  0.07780  Biso   1.000  O
  O5       1.0000 0.81789  0.84960  0.57780  Biso   1.000  O
  O6       1.0000 0.31789  0.34960  0.57780  Biso   1.000  O
  O7       1.0000 0.18211  0.84960  0.92220  Biso   1.000  O
  O8       1.0000 0.68211  0.34960  0.92220  Biso   1.000  O
  C1       1.0000 0.12548  0.96960  0.35830  Biso   1.000  C
  C2       1.0000 0.62548  0.46960  0.35830  Biso   1.000  C
  C3       1.0000 0.87452  0.96960  0.14170  Biso   1.000  C
  C4       1.0000 0.37452  0.46960  0.14170  Biso   1.000  C
  C5       1.0000 0.87452  0.03040  0.64170  Biso   1.000  C
  C6       1.0000 0.37452  0.53040  0.64170  Biso   1.000  C
  C7       1.0000 0.12548  0.03040  0.85830  Biso   1.000  C
  C8       1.0000 0.62548  0.53040  0.85830  Biso   1.000  C
  F1       1.0000 0.09460  0.06760  0.30360  Biso   1.000  F
  F2       1.0000 0.59460  0.56760  0.30360  Biso   1.000  F
  F3       1.0000 0.90540  0.06760  0.19640  Biso   1.000  F
  F4       1.0000 0.40540  0.56760  0.19640  Biso   1.000  F
  F5       1.0000 0.90540  0.93240  0.69640  Biso   1.000  F
  F6       1.0000 0.40540  0.43240  0.69640  Biso   1.000  F
  F7       1.0000 0.09460  0.93240  0.80360  Biso   1.000  F
  F8       1.0000 0.59460  0.43240  0.80360  Biso   1.000  F
  F9       1.0000 0.10540  0.93900  0.38930  Biso   1.000  F
  F10      1.0000 0.60540  0.43900  0.38930  Biso   1.000  F
  F11      1.0000 0.89460  0.93900  0.11070  Biso   1.000  F
  F12      1.0000 0.39460  0.43900  0.11070  Biso   1.000  F
  F13      1.0000 0.89460  0.06100  0.61070  Biso   1.000  F
  F14      1.0000 0.39460  0.56100  0.61070  Biso   1.000  F
  F15      1.0000 0.10540  0.06100  0.88930  Biso   1.000  F
  F16      1.0000 0.60540  0.56100  0.88930  Biso   1.000  F
  F17      1.0000 0.12690  0.86000  0.33100  Biso   1.000  F
  F18      1.0000 0.62690  0.36000  0.33100  Biso   1.000  F
  F19      1.0000 0.87310  0.86000  0.16900  Biso   1.000  F
  F20      1.0000 0.37310  0.36000  0.16900  Biso   1.000  F
  F21      1.0000 0.87310  0.14000  0.66900  Biso   1.000  F
  F22      1.0000 0.37310  0.64000  0.66900  Biso   1.000  F
  F23      1.0000 0.12690  0.14000  0.83100  Biso   1.000  F
  F24      1.0000 0.62690  0.64000  0.83100  Biso   1.000  F
  C9       1.0000 0.18242  0.02740  0.40759  Biso   1.000  C
  C10      1.0000 0.68242  0.52740  0.40759  Biso   1.000  C
  C11      1.0000 0.81758  0.02740  0.09241  Biso   1.000  C
  C12      1.0000 0.31758  0.52740  0.09241  Biso   1.000  C
  C13      1.0000 0.81758  0.97260  0.59241  Biso   1.000  C
  C14      1.0000 0.31758  0.47260  0.59241  Biso   1.000  C
  C15      1.0000 0.18242  0.97260  0.90759  Biso   1.000  C
  C16      1.0000 0.68242  0.47260  0.90759  Biso   1.000  C
  C17      1.0000 0.22648  0.94150  0.43100  Biso   1.000  C
  C18      1.0000 0.72648  0.44150  0.43100  Biso   1.000  C
  C19      1.0000 0.77352  0.94150  0.06900  Biso   1.000  C
  C20      1.0000 0.27352  0.44150  0.06900  Biso   1.000  C
  C21      1.0000 0.77352  0.05850  0.56900  Biso   1.000  C
  C22      1.0000 0.27352  0.55850  0.56900  Biso   1.000  C
  C23      1.0000 0.22648  0.05850  0.93100  Biso   1.000  C
  C24      1.0000 0.72648  0.55850  0.93100  Biso   1.000  C
  H1       1.0000 0.22080  0.84900  0.41740  Biso   1.000  H
  H2       1.0000 0.72080  0.34900  0.41740  Biso   1.000  H
  H3       1.0000 0.77920  0.84900  0.08260  Biso   1.000  H
  H4       1.0000 0.27920  0.34900  0.08260  Biso   1.000  H
  H5       1.0000 0.77920  0.15100  0.58260  Biso   1.000  H
  H6       1.0000 0.27920  0.65100  0.58260  Biso   1.000  H
  H7       1.0000 0.22080  0.15100  0.91740  Biso   1.000  H
  H8       1.0000 0.72080  0.65100  0.91740  Biso   1.000  H
  C25      1.0000 0.27918  0.98330  0.47739  Biso   1.000  C
  C26      1.0000 0.77918  0.48330  0.47739  Biso   1.000  C
  C27      1.0000 0.72082  0.98330  0.02261  Biso   1.000  C
  C28      1.0000 0.22082  0.48330  0.02261  Biso   1.000  C
  C29      1.0000 0.72082  0.01670  0.52261  Biso   1.000  C
  C30      1.0000 0.22082  0.51670  0.52261  Biso   1.000  C
  C31      1.0000 0.27918  0.01670  0.97739  Biso   1.000  C
  C32      1.0000 0.77918  0.51670  0.97739  Biso   1.000  C
  C33      1.0000 0.32480  0.88110  0.49900  Biso   1.000  C
  C34      1.0000 0.82480  0.38110  0.49900  Biso   1.000  C
  C35      1.0000 0.67520  0.88110  0.00100  Biso   1.000  C
  C36      1.0000 0.17520  0.38110  0.00100  Biso   1.000  C
  C37      1.0000 0.67520  0.11890  0.50100  Biso   1.000  C
  C38      1.0000 0.17520  0.61890  0.50100  Biso   1.000  C
  C39      1.0000 0.32480  0.11890  0.99900  Biso   1.000  C
  C40      1.0000 0.82480  0.61890  0.99900  Biso   1.000  C
  F25      1.0000 0.36030  0.91610  0.49300  Biso   1.000  F
  F26      1.0000 0.86030  0.41610  0.49300  Biso   1.000  F
  F27      1.0000 0.63970  0.91610  0.00700  Biso   1.000  F
  F28      1.0000 0.13970  0.41610  0.00700  Biso   1.000  F
  F29      1.0000 0.63970  0.08390  0.50700  Biso   1.000  F
  F30      1.0000 0.13970  0.58390  0.50700  Biso   1.000  F
  F31      1.0000 0.36030  0.08390  0.99300  Biso   1.000  F
  F32      1.0000 0.86030  0.58390  0.99300  Biso   1.000  F
  F33      1.0000 0.30840  0.75280  0.48090  Biso   1.000  F
  F34      1.0000 0.80840  0.25280  0.48090  Biso   1.000  F
  F35      1.0000 0.69160  0.75280  0.01910  Biso   1.000  F
  F36      1.0000 0.19160  0.25280  0.01910  Biso   1.000  F
  F37      1.0000 0.69160  0.24720  0.51910  Biso   1.000  F
  F38      1.0000 0.19160  0.74720  0.51910  Biso   1.000  F
  F39      1.0000 0.30840  0.24720  0.98090  Biso   1.000  F
  F40      1.0000 0.80840  0.74720  0.98090  Biso   1.000  F
  F41      1.0000 0.35540  0.86780  0.56800  Biso   1.000  F
  F42      1.0000 0.85540  0.36780  0.56800  Biso   1.000  F
  F43      1.0000 0.64460  0.86780  0.93200  Biso   1.000  F
  F44      1.0000 0.14460  0.36780  0.93200  Biso   1.000  F
  F45      1.0000 0.64460  0.13220  0.43200  Biso   1.000  F
  F46      1.0000 0.14460  0.63220  0.43200  Biso   1.000  F
  F47      1.0000 0.35540  0.13220  0.06800  Biso   1.000  F
  F48      1.0000 0.85540  0.63220  0.06800  Biso   1.000  F
  O9       1.0000 0.29524  0.09780  0.50503  Biso   1.000  O
  O10      1.0000 0.79524  0.59780  0.50503  Biso   1.000  O
  O11      1.0000 0.70476  0.09780  0.99497  Biso   1.000  O
  O12      1.0000 0.20476  0.59780  0.99497  Biso   1.000  O
  O13      1.0000 0.70476  0.90220  0.49497  Biso   1.000  O
  O14      1.0000 0.20476  0.40220  0.49497  Biso   1.000  O
  O15      1.0000 0.29524  0.90220  0.00503  Biso   1.000  O
  O16      1.0000 0.79524  0.40220  0.00503  Biso   1.000  O
  Cu5      1.0000 0.00000  0.50000  0.50000  Biso   1.000  Cu
  Cu6      1.0000 0.50000  0.00000  0.50000  Biso   1.000  Cu
  Cu7      1.0000 0.00000  0.50000  0.00000  Biso   1.000  Cu
  Cu8      1.0000 0.50000  0.00000  0.00000  Biso   1.000  Cu
  O17      1.0000 0.97393  0.56710  0.41428  Biso   1.000  O
  O18      1.0000 0.47393  0.06710  0.41428  Biso   1.000  O
  O19      1.0000 0.02607  0.56710  0.08572  Biso   1.000  O
  O20      1.0000 0.52607  0.06710  0.08572  Biso   1.000  O
  O21      1.0000 0.02607  0.43290  0.58572  Biso   1.000  O
  O22      1.0000 0.52607  0.93290  0.58572  Biso   1.000  O
  O23      1.0000 0.97393  0.43290  0.91428  Biso   1.000  O
  O24      1.0000 0.47393  0.93290  0.91428  Biso   1.000  O
  C41      1.0000 0.95670  0.71120  0.33170  Biso   1.000  C
  C42      1.0000 0.45670  0.21120  0.33170  Biso   1.000  C
  C43      1.0000 0.04330  0.71120  0.16830  Biso   1.000  C
  C44      1.0000 0.54330  0.21120  0.16830  Biso   1.000  C
  C45      1.0000 0.04330  0.28880  0.66830  Biso   1.000  C
  C46      1.0000 0.54330  0.78880  0.66830  Biso   1.000  C
  C47      1.0000 0.95670  0.28880  0.83170  Biso   1.000  C
  C48      1.0000 0.45670  0.78880  0.83170  Biso   1.000  C
  F49      1.0000 0.95530  0.59690  0.29990  Biso   1.000  F
  F50      1.0000 0.45530  0.09690  0.29990  Biso   1.000  F
  F51      1.0000 0.04470  0.59690  0.20010  Biso   1.000  F
  F52      1.0000 0.54470  0.09690  0.20010  Biso   1.000  F
  F53      1.0000 0.04470  0.40310  0.70010  Biso   1.000  F
  F54      1.0000 0.54470  0.90310  0.70010  Biso   1.000  F
  F55      1.0000 0.95530  0.40310  0.79990  Biso   1.000  F
  F56      1.0000 0.45530  0.90310  0.79990  Biso   1.000  F
  F57      1.0000 0.90750  0.74400  0.30750  Biso   1.000  F
  F58      1.0000 0.40750  0.24400  0.30750  Biso   1.000  F
  F59      1.0000 0.09250  0.74400  0.19250  Biso   1.000  F
  F60      1.0000 0.59250  0.24400  0.19250  Biso   1.000  F
  F61      1.0000 0.09250  0.25600  0.69250  Biso   1.000  F
  F62      1.0000 0.59250  0.75600  0.69250  Biso   1.000  F
  F63      1.0000 0.90750  0.25600  0.80750  Biso   1.000  F
  F64      1.0000 0.40750  0.75600  0.80750  Biso   1.000  F
  F65      1.0000 0.97820  0.79940  0.31690  Biso   1.000  F
  F66      1.0000 0.47820  0.29940  0.31690  Biso   1.000  F
  F67      1.0000 0.02180  0.79940  0.18310  Biso   1.000  F
  F68      1.0000 0.52180  0.29940  0.18310  Biso   1.000  F
  F69      1.0000 0.02180  0.20060  0.68310  Biso   1.000  F
  F70      1.0000 0.52180  0.70060  0.68310  Biso   1.000  F
  F71      1.0000 0.97820  0.20060  0.81690  Biso   1.000  F
  F72      1.0000 0.47820  0.70060  0.81690  Biso   1.000  F
  C49      1.0000 0.98673  0.68020  0.40385  Biso   1.000  C
  C50      1.0000 0.48673  0.18020  0.40385  Biso   1.000  C
  C51      1.0000 0.01327  0.68020  0.09615  Biso   1.000  C
  C52      1.0000 0.51327  0.18020  0.09615  Biso   1.000  C
  C53      1.0000 0.01327  0.31980  0.59615  Biso   1.000  C
  C54      1.0000 0.51327  0.81980  0.59615  Biso   1.000  C
  C55      1.0000 0.98673  0.31980  0.90385  Biso   1.000  C
  C56      1.0000 0.48673  0.81980  0.90385  Biso   1.000  C
  C57      1.0000 0.02253  0.77700  0.44795  Biso   1.000  C
  C58      1.0000 0.52253  0.27700  0.44795  Biso   1.000  C
  C59      1.0000 0.97747  0.77700  0.05205  Biso   1.000  C
  C60      1.0000 0.47747  0.27700  0.05205  Biso   1.000  C
  C61      1.0000 0.97747  0.22300  0.55205  Biso   1.000  C
  C62      1.0000 0.47747  0.72300  0.55205  Biso   1.000  C
  C63      1.0000 0.02253  0.22300  0.94795  Biso   1.000  C
  C64      1.0000 0.52253  0.72300  0.94795  Biso   1.000  C
  H9       1.0000 0.02390  0.84900  0.43560  Biso   1.000  H
  H10      1.0000 0.52390  0.34900  0.43560  Biso   1.000  H
  H11      1.0000 0.97610  0.84900  0.06440  Biso   1.000  H
  H12      1.0000 0.47610  0.34900  0.06440  Biso   1.000  H
  H13      1.0000 0.97610  0.15100  0.56440  Biso   1.000  H
  H14      1.0000 0.47610  0.65100  0.56440  Biso   1.000  H
  H15      1.0000 0.02390  0.15100  0.93560  Biso   1.000  H
  H16      1.0000 0.52390  0.65100  0.93560  Biso   1.000  H
  C65      1.0000 0.05079  0.75890  0.51313  Biso   1.000  C
  C66      1.0000 0.55079  0.25890  0.51313  Biso   1.000  C
  C67      1.0000 0.94921  0.75890  0.98687  Biso   1.000  C
  C68      1.0000 0.44921  0.25890  0.98687  Biso   1.000  C
  C69      1.0000 0.94921  0.24110  0.48687  Biso   1.000  C
  C70      1.0000 0.44921  0.74110  0.48687  Biso   1.000  C
  C71      1.0000 0.05079  0.24110  0.01313  Biso   1.000  C
  C72      1.0000 0.55079  0.74110  0.01313  Biso   1.000  C
  C73      1.0000 0.08820  0.87690  0.55670  Biso   1.000  C
  C74      1.0000 0.58820  0.37690  0.55670  Biso   1.000  C
  C75      1.0000 0.91180  0.87690  0.94330  Biso   1.000  C
  C76      1.0000 0.41180  0.37690  0.94330  Biso   1.000  C
  C77      1.0000 0.91180  0.12310  0.44330  Biso   1.000  C
  C78      1.0000 0.41180  0.62310  0.44330  Biso   1.000  C
  C79      1.0000 0.08820  0.12310  0.05670  Biso   1.000  C
  C80      1.0000 0.58820  0.62310  0.05670  Biso   1.000  C
  F73      1.0000 0.12050  0.91510  0.53110  Biso   1.000  F
  F74      1.0000 0.62050  0.41510  0.53110  Biso   1.000  F
  F75      1.0000 0.87950  0.91510  0.96890  Biso   1.000  F
  F76      1.0000 0.37950  0.41510  0.96890  Biso   1.000  F
  F77      1.0000 0.87950  0.08490  0.46890  Biso   1.000  F
  F78      1.0000 0.37950  0.58490  0.46890  Biso   1.000  F
  F79      1.0000 0.12050  0.08490  0.03110  Biso   1.000  F
  F80      1.0000 0.62050  0.58490  0.03110  Biso   1.000  F
  F81      1.0000 0.12580  0.83530  0.60970  Biso   1.000  F
  F82      1.0000 0.62580  0.33530  0.60970  Biso   1.000  F
  F83      1.0000 0.87420  0.83530  0.89030  Biso   1.000  F
  F84      1.0000 0.37420  0.33530  0.89030  Biso   1.000  F
  F85      1.0000 0.87420  0.16470  0.39030  Biso   1.000  F
  F86      1.0000 0.37420  0.66470  0.39030  Biso   1.000  F
  F87      1.0000 0.12580  0.16470  0.10970  Biso   1.000  F
  F88      1.0000 0.62580  0.66470  0.10970  Biso   1.000  F
  F89      1.0000 0.06480  0.98780  0.54670  Biso   1.000  F
  F90      1.0000 0.56480  0.48780  0.54670  Biso   1.000  F
  F91      1.0000 0.93520  0.98780  0.95330  Biso   1.000  F
  F92      1.0000 0.43520  0.48780  0.95330  Biso   1.000  F
  F93      1.0000 0.93520  0.01220  0.45330  Biso   1.000  F
  F94      1.0000 0.43520  0.51220  0.45330  Biso   1.000  F
  F95      1.0000 0.06480  0.01220  0.04670  Biso   1.000  F
  F96      1.0000 0.56480  0.51220  0.04670  Biso   1.000  F
  O25      1.0000 0.05017  0.65680  0.54244  Biso   1.000  O
  O26      1.0000 0.55017  0.15680  0.54244  Biso   1.000  O
  O27      1.0000 0.94983  0.65680  0.95756  Biso   1.000  O
  O28      1.0000 0.44983  0.15680  0.95756  Biso   1.000  O
  O29      1.0000 0.94983  0.34320  0.45756  Biso   1.000  O
  O30      1.0000 0.44983  0.84320  0.45756  Biso   1.000  O
  O31      1.0000 0.05017  0.34320  0.04244  Biso   1.000  O
  O32      1.0000 0.55017  0.84320  0.04244  Biso   1.000  O
  O33      1.0000 0.23207  0.11240  0.55312  Biso   1.000  O
  O34      1.0000 0.73207  0.61240  0.55312  Biso   1.000  O
  O35      1.0000 0.76793  0.11240  0.94688  Biso   1.000  O
  O36      1.0000 0.26793  0.61240  0.94688  Biso   1.000  O
  O37      1.0000 0.76793  0.88760  0.44688  Biso   1.000  O
  O38      1.0000 0.26793  0.38760  0.44688  Biso   1.000  O
  O39      1.0000 0.23207  0.88760  0.05312  Biso   1.000  O
  O40      1.0000 0.73207  0.38760  0.05312  Biso   1.000  O
  N1       1.0000 0.24116  0.13900  0.60788  Biso   1.000  N
  N2       1.0000 0.74116  0.63900  0.60788  Biso   1.000  N
  N3       1.0000 0.75884  0.13900  0.89212  Biso   1.000  N
  N4       1.0000 0.25884  0.63900  0.89212  Biso   1.000  N
  N5       1.0000 0.75884  0.86100  0.39212  Biso   1.000  N
  N6       1.0000 0.25884  0.36100  0.39212  Biso   1.000  N
  N7       1.0000 0.24116  0.86100  0.10788  Biso   1.000  N
  N8       1.0000 0.74116  0.36100  0.10788  Biso   1.000  N
  C81      1.0000 0.28858  0.07760  0.66917  Biso   1.000  C
  C82      1.0000 0.78858  0.57760  0.66917  Biso   1.000  C
  C83      1.0000 0.71142  0.07760  0.83083  Biso   1.000  C
  C84      1.0000 0.21142  0.57760  0.83083  Biso   1.000  C
  C85      1.0000 0.71142  0.92240  0.33083  Biso   1.000  C
  C86      1.0000 0.21142  0.42240  0.33083  Biso   1.000  C
  C87      1.0000 0.28858  0.92240  0.16917  Biso   1.000  C
  C88      1.0000 0.78858  0.42240  0.16917  Biso   1.000  C
  C89      1.0000 0.27324  0.92640  0.66850  Biso   1.000  C
  C90      1.0000 0.77324  0.42640  0.66850  Biso   1.000  C
  C91      1.0000 0.72676  0.92640  0.83150  Biso   1.000  C
  C92      1.0000 0.22676  0.42640  0.83150  Biso   1.000  C
  C93      1.0000 0.72676  0.07360  0.33150  Biso   1.000  C
  C94      1.0000 0.22676  0.57360  0.33150  Biso   1.000  C
  C95      1.0000 0.27324  0.07360  0.16850  Biso   1.000  C
  C96      1.0000 0.77324  0.57360  0.16850  Biso   1.000  C
  H17      1.0000 0.26780  0.88500  0.63380  Biso   1.000  H
  H18      1.0000 0.76780  0.38500  0.63380  Biso   1.000  H
  H19      1.0000 0.73220  0.88500  0.86620  Biso   1.000  H
  H20      1.0000 0.23220  0.38500  0.86620  Biso   1.000  H
  H21      1.0000 0.73220  0.11500  0.36620  Biso   1.000  H
  H22      1.0000 0.23220  0.61500  0.36620  Biso   1.000  H
  H23      1.0000 0.26780  0.11500  0.13380  Biso   1.000  H
  H24      1.0000 0.76780  0.61500  0.13380  Biso   1.000  H
  H25      1.0000 0.24100  0.91400  0.66500  Biso   1.000  H
  H26      1.0000 0.74100  0.41400  0.66500  Biso   1.000  H
  H27      1.0000 0.75900  0.91400  0.83500  Biso   1.000  H
  H28      1.0000 0.25900  0.41400  0.83500  Biso   1.000  H
  H29      1.0000 0.75900  0.08600  0.33500  Biso   1.000  H
  H30      1.0000 0.25900  0.58600  0.33500  Biso   1.000  H
  H31      1.0000 0.24100  0.08600  0.16500  Biso   1.000  H
  H32      1.0000 0.74100  0.58600  0.16500  Biso   1.000  H
  H33      1.0000 0.30370  0.88000  0.70530  Biso   1.000  H
  H34      1.0000 0.80370  0.38000  0.70530  Biso   1.000  H
  H35      1.0000 0.69630  0.88000  0.79470  Biso   1.000  H
  H36      1.0000 0.19630  0.38000  0.79470  Biso   1.000  H
  H37      1.0000 0.69630  0.12000  0.29470  Biso   1.000  H
  H38      1.0000 0.19630  0.62000  0.29470  Biso   1.000  H
  H39      1.0000 0.30370  0.12000  0.20530  Biso   1.000  H
  H40      1.0000 0.80370  0.62000  0.20530  Biso   1.000  H
  C97      1.0000 0.33992  0.08780  0.67270  Biso   1.000  C
  C98      1.0000 0.83992  0.58780  0.67270  Biso   1.000  C
  C99      1.0000 0.66008  0.08780  0.82730  Biso   1.000  C
  C100     1.0000 0.16008  0.58780  0.82730  Biso   1.000  C
  C101     1.0000 0.66008  0.91220  0.32730  Biso   1.000  C
  C102     1.0000 0.16008  0.41220  0.32730  Biso   1.000  C
  C103     1.0000 0.33992  0.91220  0.17270  Biso   1.000  C
  C104     1.0000 0.83992  0.41220  0.17270  Biso   1.000  C
  H41      1.0000 0.33870  0.03700  0.64400  Biso   1.000  H
  H42      1.0000 0.83870  0.53700  0.64400  Biso   1.000  H
  H43      1.0000 0.66130  0.03700  0.85600  Biso   1.000  H
  H44      1.0000 0.16130  0.53700  0.85600  Biso   1.000  H
  H45      1.0000 0.66130  0.96300  0.35600  Biso   1.000  H
  H46      1.0000 0.16130  0.46300  0.35600  Biso   1.000  H
  H47      1.0000 0.33870  0.96300  0.14400  Biso   1.000  H
  H48      1.0000 0.83870  0.46300  0.14400  Biso   1.000  H
  H49      1.0000 0.34960  0.18500  0.67140  Biso   1.000  H
  H50      1.0000 0.84960  0.68500  0.67140  Biso   1.000  H
  H51      1.0000 0.65040  0.18500  0.82860  Biso   1.000  H
  H52      1.0000 0.15040  0.68500  0.82860  Biso   1.000  H
  H53      1.0000 0.65040  0.81500  0.32860  Biso   1.000  H
  H54      1.0000 0.15040  0.31500  0.32860  Biso   1.000  H
  H55      1.0000 0.34960  0.81500  0.17140  Biso   1.000  H
  H56      1.0000 0.84960  0.31500  0.17140  Biso   1.000  H
  H57      1.0000 0.36840  0.04900  0.71000  Biso   1.000  H
  H58      1.0000 0.86840  0.54900  0.71000  Biso   1.000  H
  H59      1.0000 0.63160  0.04900  0.79000  Biso   1.000  H
  H60      1.0000 0.13160  0.54900  0.79000  Biso   1.000  H
  H61      1.0000 0.63160  0.95100  0.29000  Biso   1.000  H
  H62      1.0000 0.13160  0.45100  0.29000  Biso   1.000  H
  H63      1.0000 0.36840  0.95100  0.21000  Biso   1.000  H
  H64      1.0000 0.86840  0.45100  0.21000  Biso   1.000  H
  C105     1.0000 0.28786  0.16800  0.71819  Biso   1.000  C
  C106     1.0000 0.78786  0.66800  0.71819  Biso   1.000  C
  C107     1.0000 0.71214  0.16800  0.78181  Biso   1.000  C
  C108     1.0000 0.21214  0.66800  0.78181  Biso   1.000  C
  C109     1.0000 0.71214  0.83200  0.28181  Biso   1.000  C
  C110     1.0000 0.21214  0.33200  0.28181  Biso   1.000  C
  C111     1.0000 0.28786  0.83200  0.21819  Biso   1.000  C
  C112     1.0000 0.78786  0.33200  0.21819  Biso   1.000  C
  C113     1.0000 0.30500  0.09560  0.77988  Biso   1.000  C
  C114     1.0000 0.80500  0.59560  0.77988  Biso   1.000  C
  C115     1.0000 0.69500  0.09560  0.72012  Biso   1.000  C
  C116     1.0000 0.19500  0.59560  0.72012  Biso   1.000  C
  C117     1.0000 0.69500  0.90440  0.22012  Biso   1.000  C
  C118     1.0000 0.19500  0.40440  0.22012  Biso   1.000  C
  C119     1.0000 0.30500  0.90440  0.27988  Biso   1.000  C
  C120     1.0000 0.80500  0.40440  0.27988  Biso   1.000  C
  H65      1.0000 0.28590  0.01600  0.77150  Biso   1.000  H
  H66      1.0000 0.78590  0.51600  0.77150  Biso   1.000  H
  H67      1.0000 0.71410  0.01600  0.72850  Biso   1.000  H
  H68      1.0000 0.21410  0.51600  0.72850  Biso   1.000  H
  H69      1.0000 0.71410  0.98400  0.22850  Biso   1.000  H
  H70      1.0000 0.21410  0.48400  0.22850  Biso   1.000  H
  H71      1.0000 0.28590  0.98400  0.27150  Biso   1.000  H
  H72      1.0000 0.78590  0.48400  0.27150  Biso   1.000  H
  H73      1.0000 0.34800  0.09200  0.80900  Biso   1.000  H
  H74      1.0000 0.84800  0.59200  0.80900  Biso   1.000  H
  H75      1.0000 0.65200  0.09200  0.69100  Biso   1.000  H
  H76      1.0000 0.15200  0.59200  0.69100  Biso   1.000  H
  H77      1.0000 0.65200  0.90800  0.19100  Biso   1.000  H
  H78      1.0000 0.15200  0.40800  0.19100  Biso   1.000  H
  H79      1.0000 0.34800  0.90800  0.30900  Biso   1.000  H
  H80      1.0000 0.84800  0.40800  0.30900  Biso   1.000  H
  H81      1.0000 0.30110  0.15400  0.80760  Biso   1.000  H
  H82      1.0000 0.80110  0.65400  0.80760  Biso   1.000  H
  H83      1.0000 0.69890  0.15400  0.69240  Biso   1.000  H
  H84      1.0000 0.19890  0.65400  0.69240  Biso   1.000  H
  H85      1.0000 0.69890  0.84600  0.19240  Biso   1.000  H
  H86      1.0000 0.19890  0.34600  0.19240  Biso   1.000  H
  H87      1.0000 0.30110  0.84600  0.30760  Biso   1.000  H
  H88      1.0000 0.80110  0.34600  0.30760  Biso   1.000  H
  C121     1.0000 0.31811  0.30550  0.73350  Biso   1.000  C
  C122     1.0000 0.81811  0.80550  0.73350  Biso   1.000  C
  C123     1.0000 0.68189  0.30550  0.76650  Biso   1.000  C
  C124     1.0000 0.18189  0.80550  0.76650  Biso   1.000  C
  C125     1.0000 0.68189  0.69450  0.26650  Biso   1.000  C
  C126     1.0000 0.18189  0.19450  0.26650  Biso   1.000  C
  C127     1.0000 0.31811  0.69450  0.23350  Biso   1.000  C
  C128     1.0000 0.81811  0.19450  0.23350  Biso   1.000  C
  H89      1.0000 0.35910  0.28400  0.75800  Biso   1.000  H
  H90      1.0000 0.85910  0.78400  0.75800  Biso   1.000  H
  H91      1.0000 0.64090  0.28400  0.74200  Biso   1.000  H
  H92      1.0000 0.14090  0.78400  0.74200  Biso   1.000  H
  H93      1.0000 0.64090  0.71600  0.24200  Biso   1.000  H
  H94      1.0000 0.14090  0.21600  0.24200  Biso   1.000  H
  H95      1.0000 0.35910  0.71600  0.25800  Biso   1.000  H
  H96      1.0000 0.85910  0.21600  0.25800  Biso   1.000  H
  H97      1.0000 0.31240  0.36700  0.75900  Biso   1.000  H
  H98      1.0000 0.81240  0.86700  0.75900  Biso   1.000  H
  H99      1.0000 0.68760  0.36700  0.74100  Biso   1.000  H
  H100     1.0000 0.18760  0.86700  0.74100  Biso   1.000  H
  H101     1.0000 0.68760  0.63300  0.24100  Biso   1.000  H
  H102     1.0000 0.18760  0.13300  0.24100  Biso   1.000  H
  H103     1.0000 0.31240  0.63300  0.25900  Biso   1.000  H
  H104     1.0000 0.81240  0.13300  0.25900  Biso   1.000  H
  H105     1.0000 0.31000  0.34100  0.69800  Biso   1.000  H
  H106     1.0000 0.81000  0.84100  0.69800  Biso   1.000  H
  H107     1.0000 0.69000  0.34100  0.80200  Biso   1.000  H
  H108     1.0000 0.19000  0.84100  0.80200  Biso   1.000  H
  H109     1.0000 0.69000  0.65900  0.30200  Biso   1.000  H
  H110     1.0000 0.19000  0.15900  0.30200  Biso   1.000  H
  H111     1.0000 0.31000  0.65900  0.19800  Biso   1.000  H
  H112     1.0000 0.81000  0.15900  0.19800  Biso   1.000  H
  N9       1.0000 0.22857  0.20470  0.67877  Biso   1.000  N
  N10      1.0000 0.72857  0.70470  0.67877  Biso   1.000  N
  N11      1.0000 0.77143  0.20470  0.82123  Biso   1.000  N
  N12      1.0000 0.27143  0.70470  0.82123  Biso   1.000  N
  N13      1.0000 0.77143  0.79530  0.32123  Biso   1.000  N
  N14      1.0000 0.27143  0.29530  0.32123  Biso   1.000  N
  N15      1.0000 0.22857  0.79530  0.17877  Biso   1.000  N
  N16      1.0000 0.72857  0.29530  0.17877  Biso   1.000  N
  O41      1.0000 0.20557  0.25280  0.70326  Biso   1.000  O
  O42      1.0000 0.70557  0.75280  0.70326  Biso   1.000  O
  O43      1.0000 0.79443  0.25280  0.79674  Biso   1.000  O
  O44      1.0000 0.29443  0.75280  0.79674  Biso   1.000  O
  O45      1.0000 0.79443  0.74720  0.29674  Biso   1.000  O
  O46      1.0000 0.29443  0.24720  0.29674  Biso   1.000  O
  O47      1.0000 0.20557  0.74720  0.20326  Biso   1.000  O
  O48      1.0000 0.70557  0.24720  0.20326  Biso   1.000  O
  C129     1.0000 0.20576  0.19850  0.61528  Biso   1.000  C
  C130     1.0000 0.70576  0.69850  0.61528  Biso   1.000  C
  C131     1.0000 0.79424  0.19850  0.88472  Biso   1.000  C
  C132     1.0000 0.29424  0.69850  0.88472  Biso   1.000  C
  C133     1.0000 0.79424  0.80150  0.38472  Biso   1.000  C
  C134     1.0000 0.29424  0.30150  0.38472  Biso   1.000  C
  C135     1.0000 0.20576  0.80150  0.11528  Biso   1.000  C
  C136     1.0000 0.70576  0.30150  0.11528  Biso   1.000  C
  C137     1.0000 0.15251  0.24850  0.56469  Biso   1.000  C
  C138     1.0000 0.65251  0.74850  0.56469  Biso   1.000  C
  C139     1.0000 0.84749  0.24850  0.93531  Biso   1.000  C
  C140     1.0000 0.34749  0.74850  0.93531  Biso   1.000  C
  C141     1.0000 0.84749  0.75150  0.43531  Biso   1.000  C
  C142     1.0000 0.34749  0.25150  0.43531  Biso   1.000  C
  C143     1.0000 0.15251  0.75150  0.06469  Biso   1.000  C
  C144     1.0000 0.65251  0.25150  0.06469  Biso   1.000  C
  C145     1.0000 0.12593  0.22890  0.50014  Biso   1.000  C
  C146     1.0000 0.62593  0.72890  0.50014  Biso   1.000  C
  C147     1.0000 0.87407  0.22890  0.99986  Biso   1.000  C
  C148     1.0000 0.37407  0.72890  0.99986  Biso   1.000  C
  C149     1.0000 0.87407  0.77110  0.49986  Biso   1.000  C
  C150     1.0000 0.37407  0.27110  0.49986  Biso   1.000  C
  C151     1.0000 0.12593  0.77110  0.00014  Biso   1.000  C
  C152     1.0000 0.62593  0.27110  0.00014  Biso   1.000  C
  H113     1.0000 0.13490  0.18200  0.47550  Biso   1.000  H
  H114     1.0000 0.63490  0.68200  0.47550  Biso   1.000  H
  H115     1.0000 0.86510  0.18200  0.02450  Biso   1.000  H
  H116     1.0000 0.36510  0.68200  0.02450  Biso   1.000  H
  H117     1.0000 0.86510  0.81800  0.52450  Biso   1.000  H
  H118     1.0000 0.36510  0.31800  0.52450  Biso   1.000  H
  H119     1.0000 0.13490  0.81800  0.97550  Biso   1.000  H
  H120     1.0000 0.63490  0.31800  0.97550  Biso   1.000  H
  N17      1.0000 0.07838  0.29350  0.47045  Biso   1.000  N
  N18      1.0000 0.57838  0.79350  0.47045  Biso   1.000  N
  N19      1.0000 0.92162  0.29350  0.02955  Biso   1.000  N
  N20      1.0000 0.42162  0.79350  0.02955  Biso   1.000  N
  N21      1.0000 0.92162  0.70650  0.52955  Biso   1.000  N
  N22      1.0000 0.42162  0.20650  0.52955  Biso   1.000  N
  N23      1.0000 0.07838  0.70650  0.97045  Biso   1.000  N
  N24      1.0000 0.57838  0.20650  0.97045  Biso   1.000  N
  C153     1.0000 0.04120  0.33460  0.39580  Biso   1.000  C
  C154     1.0000 0.54120  0.83460  0.39580  Biso   1.000  C
  C155     1.0000 0.95880  0.33460  0.10420  Biso   1.000  C
  C156     1.0000 0.45880  0.83460  0.10420  Biso   1.000  C
  C157     1.0000 0.95880  0.66540  0.60420  Biso   1.000  C
  C158     1.0000 0.45880  0.16540  0.60420  Biso   1.000  C
  C159     1.0000 0.04120  0.66540  0.89580  Biso   1.000  C
  C160     1.0000 0.54120  0.16540  0.89580  Biso   1.000  C
  H121     1.0000 0.03700  0.43450  0.39160  Biso   1.000  H
  H122     1.0000 0.53700  0.93450  0.39160  Biso   1.000  H
  H123     1.0000 0.96300  0.43450  0.10840  Biso   1.000  H
  H124     1.0000 0.46300  0.93450  0.10840  Biso   1.000  H
  H125     1.0000 0.96300  0.56550  0.60840  Biso   1.000  H
  H126     1.0000 0.46300  0.06550  0.60840  Biso   1.000  H
  H127     1.0000 0.03700  0.56550  0.89160  Biso   1.000  H
  H128     1.0000 0.53700  0.06550  0.89160  Biso   1.000  H
  H129     1.0000 0.05890  0.30510  0.37640  Biso   1.000  H
  H130     1.0000 0.55890  0.80510  0.37640  Biso   1.000  H
  H131     1.0000 0.94110  0.30510  0.12360  Biso   1.000  H
  H132     1.0000 0.44110  0.80510  0.12360  Biso   1.000  H
  H133     1.0000 0.94110  0.69490  0.62360  Biso   1.000  H
  H134     1.0000 0.44110  0.19490  0.62360  Biso   1.000  H
  H135     1.0000 0.05890  0.69490  0.87640  Biso   1.000  H
  H136     1.0000 0.55890  0.19490  0.87640  Biso   1.000  H
  C161     1.0000 0.98780  0.26970  0.36230  Biso   1.000  C
  C162     1.0000 0.48780  0.76970  0.36230  Biso   1.000  C
  C163     1.0000 0.01220  0.26970  0.13770  Biso   1.000  C
  C164     1.0000 0.51220  0.76970  0.13770  Biso   1.000  C
  C165     1.0000 0.01220  0.73030  0.63770  Biso   1.000  C
  C166     1.0000 0.51220  0.23030  0.63770  Biso   1.000  C
  C167     1.0000 0.98780  0.73030  0.86230  Biso   1.000  C
  C168     1.0000 0.48780  0.23030  0.86230  Biso   1.000  C
  H137     1.0000 0.96630  0.29560  0.31730  Biso   1.000  H
  H138     1.0000 0.46630  0.79560  0.31730  Biso   1.000  H
  H139     1.0000 0.03370  0.29560  0.18270  Biso   1.000  H
  H140     1.0000 0.53370  0.79560  0.18270  Biso   1.000  H
  H141     1.0000 0.03370  0.70440  0.68270  Biso   1.000  H
  H142     1.0000 0.53370  0.20440  0.68270  Biso   1.000  H
  H143     1.0000 0.96630  0.70440  0.81730  Biso   1.000  H
  H144     1.0000 0.46630  0.20440  0.81730  Biso   1.000  H
  H145     1.0000 0.96930  0.30430  0.38000  Biso   1.000  H
  H146     1.0000 0.46930  0.80430  0.38000  Biso   1.000  H
  H147     1.0000 0.03070  0.30430  0.12000  Biso   1.000  H
  H148     1.0000 0.53070  0.80430  0.12000  Biso   1.000  H
  H149     1.0000 0.03070  0.69570  0.62000  Biso   1.000  H
  H150     1.0000 0.53070  0.19570  0.62000  Biso   1.000  H
  H151     1.0000 0.96930  0.69570  0.88000  Biso   1.000  H
  H152     1.0000 0.46930  0.19570  0.88000  Biso   1.000  H
  C169     1.0000 0.99080  0.12120  0.36730  Biso   1.000  C
  C170     1.0000 0.49080  0.62120  0.36730  Biso   1.000  C
  C171     1.0000 0.00920  0.12120  0.13270  Biso   1.000  C
  C172     1.0000 0.50920  0.62120  0.13270  Biso   1.000  C
  C173     1.0000 0.00920  0.87880  0.63270  Biso   1.000  C
  C174     1.0000 0.50920  0.37880  0.63270  Biso   1.000  C
  C175     1.0000 0.99080  0.87880  0.86730  Biso   1.000  C
  C176     1.0000 0.49080  0.37880  0.86730  Biso   1.000  C
  H153     1.0000 0.95490  0.08370  0.34590  Biso   1.000  H
  H154     1.0000 0.45490  0.58370  0.34590  Biso   1.000  H
  H155     1.0000 0.04510  0.08370  0.15410  Biso   1.000  H
  H156     1.0000 0.54510  0.58370  0.15410  Biso   1.000  H
  H157     1.0000 0.04510  0.91630  0.65410  Biso   1.000  H
  H158     1.0000 0.54510  0.41630  0.65410  Biso   1.000  H
  H159     1.0000 0.95490  0.91630  0.84590  Biso   1.000  H
  H160     1.0000 0.45490  0.41630  0.84590  Biso   1.000  H
  H161     1.0000 0.01260  0.09490  0.41170  Biso   1.000  H
  H162     1.0000 0.51260  0.59490  0.41170  Biso   1.000  H
  H163     1.0000 0.98740  0.09490  0.08830  Biso   1.000  H
  H164     1.0000 0.48740  0.59490  0.08830  Biso   1.000  H
  H165     1.0000 0.98740  0.90510  0.58830  Biso   1.000  H
  H166     1.0000 0.48740  0.40510  0.58830  Biso   1.000  H
  H167     1.0000 0.01260  0.90510  0.91170  Biso   1.000  H
  H168     1.0000 0.51260  0.40510  0.91170  Biso   1.000  H
  H169     1.0000 0.00710  0.08590  0.34740  Biso   1.000  H
  H170     1.0000 0.50710  0.58590  0.34740  Biso   1.000  H
  H171     1.0000 0.99290  0.08590  0.15260  Biso   1.000  H
  H172     1.0000 0.49290  0.58590  0.15260  Biso   1.000  H
  H173     1.0000 0.99290  0.91410  0.65260  Biso   1.000  H
  H174     1.0000 0.49290  0.41410  0.65260  Biso   1.000  H
  H175     1.0000 0.00710  0.91410  0.84740  Biso   1.000  H
  H176     1.0000 0.50710  0.41410  0.84740  Biso   1.000  H
  N25      1.0000 0.07131  0.35510  0.51241  Biso   1.000  N
  N26      1.0000 0.57131  0.85510  0.51241  Biso   1.000  N
  N27      1.0000 0.92869  0.35510  0.98759  Biso   1.000  N
  N28      1.0000 0.42869  0.85510  0.98759  Biso   1.000  N
  N29      1.0000 0.92869  0.64490  0.48759  Biso   1.000  N
  N30      1.0000 0.42869  0.14490  0.48759  Biso   1.000  N
  N31      1.0000 0.07131  0.64490  0.01241  Biso   1.000  N
  N32      1.0000 0.57131  0.14490  0.01241  Biso   1.000  N
  C177     1.0000 0.11617  0.32770  0.56918  Biso   1.000  C
  C178     1.0000 0.61617  0.82770  0.56918  Biso   1.000  C
  C179     1.0000 0.88383  0.32770  0.93082  Biso   1.000  C
  C180     1.0000 0.38383  0.82770  0.93082  Biso   1.000  C
  C181     1.0000 0.88383  0.67230  0.43082  Biso   1.000  C
  C182     1.0000 0.38383  0.17230  0.43082  Biso   1.000  C
  C183     1.0000 0.11617  0.67230  0.06918  Biso   1.000  C
  C184     1.0000 0.61617  0.17230  0.06918  Biso   1.000  C
  H177     1.0000 0.12120  0.35900  0.60680  Biso   1.000  H
  H178     1.0000 0.62120  0.85900  0.60680  Biso   1.000  H
  H179     1.0000 0.87880  0.35900  0.89320  Biso   1.000  H
  H180     1.0000 0.37880  0.85900  0.89320  Biso   1.000  H
  H181     1.0000 0.87880  0.64100  0.39320  Biso   1.000  H
  H182     1.0000 0.37880  0.14100  0.39320  Biso   1.000  H
  H183     1.0000 0.12120  0.64100  0.10680  Biso   1.000  H
  H184     1.0000 0.62120  0.14100  0.10680  Biso   1.000  H
  F97      1.0000 0.09200  0.97200  0.37780  Biso   1.000  F
  F98      1.0000 0.59200  0.47200  0.37780  Biso   1.000  F
  F99      1.0000 0.90800  0.97200  0.12220  Biso   1.000  F
  F100     1.0000 0.40800  0.47200  0.12220  Biso   1.000  F
  F101     1.0000 0.90800  0.02800  0.62220  Biso   1.000  F
  F102     1.0000 0.40800  0.52800  0.62220  Biso   1.000  F
  F103     1.0000 0.09200  0.02800  0.87780  Biso   1.000  F
  F104     1.0000 0.59200  0.52800  0.87780  Biso   1.000  F
  F105     1.0000 0.12260  0.84070  0.34000  Biso   1.000  F
  F106     1.0000 0.62260  0.34070  0.34000  Biso   1.000  F
  F107     1.0000 0.87740  0.84070  0.16000  Biso   1.000  F
  F108     1.0000 0.37740  0.34070  0.16000  Biso   1.000  F
  F109     1.0000 0.87740  0.15930  0.66000  Biso   1.000  F
  F110     1.0000 0.37740  0.65930  0.66000  Biso   1.000  F
  F111     1.0000 0.12260  0.15930  0.84000  Biso   1.000  F
  F112     1.0000 0.62260  0.65930  0.84000  Biso   1.000  F
  F113     1.0000 0.09860  0.03300  0.31610  Biso   1.000  F
  F114     1.0000 0.59860  0.53300  0.31610  Biso   1.000  F
  F115     1.0000 0.90140  0.03300  0.18390  Biso   1.000  F
  F116     1.0000 0.40140  0.53300  0.18390  Biso   1.000  F
  F117     1.0000 0.90140  0.96700  0.68390  Biso   1.000  F
  F118     1.0000 0.40140  0.46700  0.68390  Biso   1.000  F
  F119     1.0000 0.09860  0.96700  0.81610  Biso   1.000  F
  F120     1.0000 0.59860  0.46700  0.81610  Biso   1.000  F
  F121     1.0000 0.31200  0.75560  0.49560  Biso   1.000  F
  F122     1.0000 0.81200  0.25560  0.49560  Biso   1.000  F
  F123     1.0000 0.68800  0.75560  0.00440  Biso   1.000  F
  F124     1.0000 0.18800  0.25560  0.00440  Biso   1.000  F
  F125     1.0000 0.68800  0.24440  0.50440  Biso   1.000  F
  F126     1.0000 0.18800  0.74440  0.50440  Biso   1.000  F
  F127     1.0000 0.31200  0.24440  0.99560  Biso   1.000  F
  F128     1.0000 0.81200  0.74440  0.99560  Biso   1.000  F
  F129     1.0000 0.36730  0.91110  0.54500  Biso   1.000  F
  F130     1.0000 0.86730  0.41110  0.54500  Biso   1.000  F
  F131     1.0000 0.63270  0.91110  0.95500  Biso   1.000  F
  F132     1.0000 0.13270  0.41110  0.95500  Biso   1.000  F
  F133     1.0000 0.63270  0.08890  0.45500  Biso   1.000  F
  F134     1.0000 0.13270  0.58890  0.45500  Biso   1.000  F
  F135     1.0000 0.36730  0.08890  0.04500  Biso   1.000  F
  F136     1.0000 0.86730  0.58890  0.04500  Biso   1.000  F
  F137     1.0000 0.33240  0.88660  0.44850  Biso   1.000  F
  F138     1.0000 0.83240  0.38660  0.44850  Biso   1.000  F
  F139     1.0000 0.66760  0.88660  0.05150  Biso   1.000  F
  F140     1.0000 0.16760  0.38660  0.05150  Biso   1.000  F
  F141     1.0000 0.66760  0.11340  0.55150  Biso   1.000  F
  F142     1.0000 0.16760  0.61340  0.55150  Biso   1.000  F
  F143     1.0000 0.33240  0.11340  0.94850  Biso   1.000  F
  F144     1.0000 0.83240  0.61340  0.94850  Biso   1.000  F
  F145     1.0000 0.95830  0.84920  0.32380  Biso   1.000  F
  F146     1.0000 0.45830  0.34920  0.32380  Biso   1.000  F
  F147     1.0000 0.04170  0.84920  0.17620  Biso   1.000  F
  F148     1.0000 0.54170  0.34920  0.17620  Biso   1.000  F
  F149     1.0000 0.04170  0.15080  0.67620  Biso   1.000  F
  F150     1.0000 0.54170  0.65080  0.67620  Biso   1.000  F
  F151     1.0000 0.95830  0.15080  0.82380  Biso   1.000  F
  F152     1.0000 0.45830  0.65080  0.82380  Biso   1.000  F
  F153     1.0000 0.90960  0.67600  0.29890  Biso   1.000  F
  F154     1.0000 0.40960  0.17600  0.29890  Biso   1.000  F
  F155     1.0000 0.09040  0.67600  0.20110  Biso   1.000  F
  F156     1.0000 0.59040  0.17600  0.20110  Biso   1.000  F
  F157     1.0000 0.09040  0.32400  0.70110  Biso   1.000  F
  F158     1.0000 0.59040  0.82400  0.70110  Biso   1.000  F
  F159     1.0000 0.90960  0.32400  0.79890  Biso   1.000  F
  F160     1.0000 0.40960  0.82400  0.79890  Biso   1.000  F
  F161     1.0000 0.98150  0.66300  0.31230  Biso   1.000  F
  F162     1.0000 0.48150  0.16300  0.31230  Biso   1.000  F
  F163     1.0000 0.01850  0.66300  0.18770  Biso   1.000  F
  F164     1.0000 0.51850  0.16300  0.18770  Biso   1.000  F
  F165     1.0000 0.01850  0.33700  0.68770  Biso   1.000  F
  F166     1.0000 0.51850  0.83700  0.68770  Biso   1.000  F
  F167     1.0000 0.98150  0.33700  0.81230  Biso   1.000  F
  F168     1.0000 0.48150  0.83700  0.81230  Biso   1.000  F
  F169     1.0000 0.07560  0.89600  0.60720  Biso   1.000  F
  F170     1.0000 0.57560  0.39600  0.60720  Biso   1.000  F
  F171     1.0000 0.92440  0.89600  0.89280  Biso   1.000  F
  F172     1.0000 0.42440  0.39600  0.89280  Biso   1.000  F
  F173     1.0000 0.92440  0.10400  0.39280  Biso   1.000  F
  F174     1.0000 0.42440  0.60400  0.39280  Biso   1.000  F
  F175     1.0000 0.07560  0.10400  0.10720  Biso   1.000  F
  F176     1.0000 0.57560  0.60400  0.10720  Biso   1.000  F
  F177     1.0000 0.13350  0.86660  0.59050  Biso   1.000  F
  F178     1.0000 0.63350  0.36660  0.59050  Biso   1.000  F
  F179     1.0000 0.86650  0.86660  0.90950  Biso   1.000  F
  F180     1.0000 0.36650  0.36660  0.90950  Biso   1.000  F
  F181     1.0000 0.86650  0.13340  0.40950  Biso   1.000  F
  F182     1.0000 0.36650  0.63340  0.40950  Biso   1.000  F
  F183     1.0000 0.13350  0.13340  0.09050  Biso   1.000  F
  F184     1.0000 0.63350  0.63340  0.09050  Biso   1.000  F
  F185     1.0000 0.06750  0.99670  0.53430  Biso   1.000  F
  F186     1.0000 0.56750  0.49670  0.53430  Biso   1.000  F
  F187     1.0000 0.93250  0.99670  0.96570  Biso   1.000  F
  F188     1.0000 0.43250  0.49670  0.96570  Biso   1.000  F
  F189     1.0000 0.93250  0.00330  0.46570  Biso   1.000  F
  F190     1.0000 0.43250  0.50330  0.46570  Biso   1.000  F
  F191     1.0000 0.06750  0.00330  0.03430  Biso   1.000  F
  F192     1.0000 0.56750  0.50330  0.03430  Biso   1.000  F
  C185     1.0000 0.03350  0.27820  0.40570  Biso   1.000  C
  C186     1.0000 0.53350  0.77820  0.40570  Biso   1.000  C
  C187     1.0000 0.96650  0.27820  0.09430  Biso   1.000  C
  C188     1.0000 0.46650  0.77820  0.09430  Biso   1.000  C
  C189     1.0000 0.96650  0.72180  0.59430  Biso   1.000  C
  C190     1.0000 0.46650  0.22180  0.59430  Biso   1.000  C
  C191     1.0000 0.03350  0.72180  0.90570  Biso   1.000  C
  C192     1.0000 0.53350  0.22180  0.90570  Biso   1.000  C
  H185     1.0000 0.00170  0.32160  0.39860  Biso   1.000  H
  H186     1.0000 0.50170  0.82160  0.39860  Biso   1.000  H
  H187     1.0000 0.99830  0.32160  0.10140  Biso   1.000  H
  H188     1.0000 0.49830  0.82160  0.10140  Biso   1.000  H
  H189     1.0000 0.99830  0.67840  0.60140  Biso   1.000  H
  H190     1.0000 0.49830  0.17840  0.60140  Biso   1.000  H
  H191     1.0000 0.00170  0.67840  0.89860  Biso   1.000  H
  H192     1.0000 0.50170  0.17840  0.89860  Biso   1.000  H
  H193     1.0000 0.02570  0.18050  0.39520  Biso   1.000  H
  H194     1.0000 0.52570  0.68050  0.39520  Biso   1.000  H
  H195     1.0000 0.97430  0.18050  0.10480  Biso   1.000  H
  H196     1.0000 0.47430  0.68050  0.10480  Biso   1.000  H
  H197     1.0000 0.97430  0.81950  0.60480  Biso   1.000  H
  H198     1.0000 0.47430  0.31950  0.60480  Biso   1.000  H
  H199     1.0000 0.02570  0.81950  0.89520  Biso   1.000  H
  H200     1.0000 0.52570  0.31950  0.89520  Biso   1.000  H
  C193     1.0000 0.04630  0.34380  0.36420  Biso   1.000  C
  C194     1.0000 0.54630  0.84380  0.36420  Biso   1.000  C
  C195     1.0000 0.95370  0.34380  0.13580  Biso   1.000  C
  C196     1.0000 0.45370  0.84380  0.13580  Biso   1.000  C
  C197     1.0000 0.95370  0.65620  0.63580  Biso   1.000  C
  C198     1.0000 0.45370  0.15620  0.63580  Biso   1.000  C
  C199     1.0000 0.04630  0.65620  0.86420  Biso   1.000  C
  C200     1.0000 0.54630  0.15620  0.86420  Biso   1.000  C
  H201     1.0000 0.07990  0.30530  0.37420  Biso   1.000  H
  H202     1.0000 0.57990  0.80530  0.37420  Biso   1.000  H
  H203     1.0000 0.92010  0.30530  0.12580  Biso   1.000  H
  H204     1.0000 0.42010  0.80530  0.12580  Biso   1.000  H
  H205     1.0000 0.92010  0.69470  0.62580  Biso   1.000  H
  H206     1.0000 0.42010  0.19470  0.62580  Biso   1.000  H
  H207     1.0000 0.07990  0.69470  0.87420  Biso   1.000  H
  H208     1.0000 0.57990  0.19470  0.87420  Biso   1.000  H
  H209     1.0000 0.05160  0.44250  0.37300  Biso   1.000  H
  H210     1.0000 0.55160  0.94250  0.37300  Biso   1.000  H
  H211     1.0000 0.94840  0.44250  0.12700  Biso   1.000  H
  H212     1.0000 0.44840  0.94250  0.12700  Biso   1.000  H
  H213     1.0000 0.94840  0.55750  0.62700  Biso   1.000  H
  H214     1.0000 0.44840  0.05750  0.62700  Biso   1.000  H
  H215     1.0000 0.05160  0.55750  0.87300  Biso   1.000  H
  H216     1.0000 0.55160  0.05750  0.87300  Biso   1.000  H
  C201     1.0000 0.99970  0.32040  0.29150  Biso   1.000  C
  C202     1.0000 0.49970  0.82040  0.29150  Biso   1.000  C
  C203     1.0000 0.00030  0.32040  0.20850  Biso   1.000  C
  C204     1.0000 0.50030  0.82040  0.20850  Biso   1.000  C
  C205     1.0000 0.00030  0.67960  0.70850  Biso   1.000  C
  C206     1.0000 0.50030  0.17960  0.70850  Biso   1.000  C
  C207     1.0000 0.99970  0.67960  0.79150  Biso   1.000  C
  C208     1.0000 0.49970  0.17960  0.79150  Biso   1.000  C
  H217     1.0000 0.01200  0.34800  0.26630  Biso   1.000  H
  H218     1.0000 0.51200  0.84800  0.26630  Biso   1.000  H
  H219     1.0000 0.98800  0.34800  0.23370  Biso   1.000  H
  H220     1.0000 0.48800  0.84800  0.23370  Biso   1.000  H
  H221     1.0000 0.98800  0.65200  0.73370  Biso   1.000  H
  H222     1.0000 0.48800  0.15200  0.73370  Biso   1.000  H
  H223     1.0000 0.01200  0.65200  0.76630  Biso   1.000  H
  H224     1.0000 0.51200  0.15200  0.76630  Biso   1.000  H
  H225     1.0000 0.96860  0.37470  0.27940  Biso   1.000  H
  H226     1.0000 0.46860  0.87470  0.27940  Biso   1.000  H
  H227     1.0000 0.03140  0.37470  0.22060  Biso   1.000  H
  H228     1.0000 0.53140  0.87470  0.22060  Biso   1.000  H
  H229     1.0000 0.03140  0.62530  0.72060  Biso   1.000  H
  H230     1.0000 0.53140  0.12530  0.72060  Biso   1.000  H
  H231     1.0000 0.96860  0.62530  0.77940  Biso   1.000  H
  H232     1.0000 0.46860  0.12530  0.77940  Biso   1.000  H
  H233     1.0000 0.99000  0.22400  0.28410  Biso   1.000  H
  H234     1.0000 0.49000  0.72400  0.28410  Biso   1.000  H
  H235     1.0000 0.01000  0.22400  0.21590  Biso   1.000  H
  H236     1.0000 0.51000  0.72400  0.21590  Biso   1.000  H
  H237     1.0000 0.01000  0.77600  0.71590  Biso   1.000  H
  H238     1.0000 0.51000  0.27600  0.71590  Biso   1.000  H
  H239     1.0000 0.99000  0.77600  0.78410  Biso   1.000  H
  H240     1.0000 0.49000  0.27600  0.78410  Biso   1.000  H
