data_image0
_cell_length_a       30.55
_cell_length_b       9.5949
_cell_length_c       25.8807
_cell_angle_alpha    90
_cell_angle_beta     125.892
_cell_angle_gamma    90

_symmetry_space_group_name_H-M    "P 1"
_symmetry_int_tables_number       1

loop_
  _symmetry_equiv_pos_as_xyz
  'x, y, z'

loop_
  _atom_site_label
  _atom_site_occupancy
  _atom_site_fract_x
  _atom_site_fract_y
  _atom_site_fract_z
  _atom_site_thermal_displace_type
  _atom_site_B_iso_or_equiv
  _atom_site_type_symbol
  Cu1      1.0000 0.00000  0.00000  0.00000  Biso   1.000  Cu
  Cu2      1.0000 0.50000  0.50000  0.00000  Biso   1.000  Cu
  Cu3      1.0000 0.00000  0.00000  0.50000  Biso   1.000  Cu
  Cu4      1.0000 0.50000  0.50000  0.50000  Biso   1.000  Cu
  O1       1.0000 0.99125  0.90040  0.92454  Biso   1.000  O
  O2       1.0000 0.49125  0.40040  0.92454  Biso   1.000  O
  O3       1.0000 0.00875  0.90040  0.57546  Biso   1.000  O
  O4       1.0000 0.50875  0.40040  0.57546  Biso   1.000  O
  O5       1.0000 0.00875  0.09960  0.07546  Biso   1.000  O
  O6       1.0000 0.50875  0.59960  0.07546  Biso   1.000  O
  O7       1.0000 0.99125  0.09960  0.42454  Biso   1.000  O
  O8       1.0000 0.49125  0.59960  0.42454  Biso   1.000  O
  C1       1.0000 0.98345  0.72190  0.86024  Biso   1.000  C
  C2       1.0000 0.48345  0.22190  0.86024  Biso   1.000  C
  C3       1.0000 0.01655  0.72190  0.63976  Biso   1.000  C
  C4       1.0000 0.51655  0.22190  0.63976  Biso   1.000  C
  C5       1.0000 0.01655  0.27810  0.13976  Biso   1.000  C
  C6       1.0000 0.51655  0.77810  0.13976  Biso   1.000  C
  C7       1.0000 0.98345  0.27810  0.36024  Biso   1.000  C
  C8       1.0000 0.48345  0.77810  0.36024  Biso   1.000  C
  F1       1.0000 0.96090  0.58920  0.83440  Biso   1.000  F
  F2       1.0000 0.46090  0.08920  0.83440  Biso   1.000  F
  F3       1.0000 0.03910  0.58920  0.66560  Biso   1.000  F
  F4       1.0000 0.53910  0.08920  0.66560  Biso   1.000  F
  F5       1.0000 0.03910  0.41080  0.16560  Biso   1.000  F
  F6       1.0000 0.53910  0.91080  0.16560  Biso   1.000  F
  F7       1.0000 0.96090  0.41080  0.33440  Biso   1.000  F
  F8       1.0000 0.46090  0.91080  0.33440  Biso   1.000  F
  F9       1.0000 0.03189  0.69070  0.88750  Biso   1.000  F
  F10      1.0000 0.53189  0.19070  0.88750  Biso   1.000  F
  F11      1.0000 0.96811  0.69070  0.61250  Biso   1.000  F
  F12      1.0000 0.46811  0.19070  0.61250  Biso   1.000  F
  F13      1.0000 0.96811  0.30930  0.11250  Biso   1.000  F
  F14      1.0000 0.46811  0.80930  0.11250  Biso   1.000  F
  F15      1.0000 0.03189  0.30930  0.38750  Biso   1.000  F
  F16      1.0000 0.53189  0.80930  0.38750  Biso   1.000  F
  F17      1.0000 0.96560  0.82420  0.81160  Biso   1.000  F
  F18      1.0000 0.46560  0.32420  0.81160  Biso   1.000  F
  F19      1.0000 0.03440  0.82420  0.68840  Biso   1.000  F
  F20      1.0000 0.53440  0.32420  0.68840  Biso   1.000  F
  F21      1.0000 0.03440  0.17580  0.18840  Biso   1.000  F
  F22      1.0000 0.53440  0.67580  0.18840  Biso   1.000  F
  F23      1.0000 0.96560  0.17580  0.31160  Biso   1.000  F
  F24      1.0000 0.46560  0.67580  0.31160  Biso   1.000  F
  C9       1.0000 0.97625  0.77810  0.90980  Biso   1.000  C
  C10      1.0000 0.47625  0.27810  0.90980  Biso   1.000  C
  C11      1.0000 0.02375  0.77810  0.59020  Biso   1.000  C
  C12      1.0000 0.52375  0.27810  0.59020  Biso   1.000  C
  C13      1.0000 0.02375  0.22190  0.09020  Biso   1.000  C
  C14      1.0000 0.52375  0.72190  0.09020  Biso   1.000  C
  C15      1.0000 0.97625  0.22190  0.40980  Biso   1.000  C
  C16      1.0000 0.47625  0.72190  0.40980  Biso   1.000  C
  C17      1.0000 0.95466  0.69220  0.93185  Biso   1.000  C
  C18      1.0000 0.45466  0.19220  0.93185  Biso   1.000  C
  C19      1.0000 0.04534  0.69220  0.56815  Biso   1.000  C
  C20      1.0000 0.54534  0.19220  0.56815  Biso   1.000  C
  C21      1.0000 0.04534  0.30780  0.06815  Biso   1.000  C
  C22      1.0000 0.54534  0.80780  0.06815  Biso   1.000  C
  C23      1.0000 0.95466  0.30780  0.43185  Biso   1.000  C
  C24      1.0000 0.45466  0.80780  0.43185  Biso   1.000  C
  H1       1.0000 0.94630  0.60700  0.91140  Biso   1.000  H
  H2       1.0000 0.44630  0.10700  0.91140  Biso   1.000  H
  H3       1.0000 0.05370  0.60700  0.58860  Biso   1.000  H
  H4       1.0000 0.55370  0.10700  0.58860  Biso   1.000  H
  H5       1.0000 0.05370  0.39300  0.08860  Biso   1.000  H
  H6       1.0000 0.55370  0.89300  0.08860  Biso   1.000  H
  H7       1.0000 0.94630  0.39300  0.41140  Biso   1.000  H
  H8       1.0000 0.44630  0.89300  0.41140  Biso   1.000  H
  C25      1.0000 0.94900  0.73360  0.97865  Biso   1.000  C
  C26      1.0000 0.44900  0.23360  0.97865  Biso   1.000  C
  C27      1.0000 0.05100  0.73360  0.52135  Biso   1.000  C
  C28      1.0000 0.55100  0.23360  0.52135  Biso   1.000  C
  C29      1.0000 0.05100  0.26640  0.02135  Biso   1.000  C
  C30      1.0000 0.55100  0.76640  0.02135  Biso   1.000  C
  C31      1.0000 0.94900  0.26640  0.47865  Biso   1.000  C
  C32      1.0000 0.44900  0.76640  0.47865  Biso   1.000  C
  C33      1.0000 0.92410  0.63090  0.00000  Biso   1.000  C
  C34      1.0000 0.42410  0.13090  0.00000  Biso   1.000  C
  C35      1.0000 0.07590  0.63090  0.50000  Biso   1.000  C
  C36      1.0000 0.57590  0.13090  0.50000  Biso   1.000  C
  C37      1.0000 0.07590  0.36910  0.00000  Biso   1.000  C
  C38      1.0000 0.57590  0.86910  0.00000  Biso   1.000  C
  C39      1.0000 0.92410  0.36910  0.50000  Biso   1.000  C
  C40      1.0000 0.42410  0.86910  0.50000  Biso   1.000  C
  F25      1.0000 0.93390  0.50390  0.00010  Biso   1.000  F
  F26      1.0000 0.43390  0.00390  0.00010  Biso   1.000  F
  F27      1.0000 0.06610  0.50390  0.49990  Biso   1.000  F
  F28      1.0000 0.56610  0.00390  0.49990  Biso   1.000  F
  F29      1.0000 0.06610  0.49610  0.99990  Biso   1.000  F
  F30      1.0000 0.56610  0.99610  0.99990  Biso   1.000  F
  F31      1.0000 0.93390  0.49610  0.50010  Biso   1.000  F
  F32      1.0000 0.43390  0.99610  0.50010  Biso   1.000  F
  F33      1.0000 0.86560  0.63320  0.94550  Biso   1.000  F
  F34      1.0000 0.36560  0.13320  0.94550  Biso   1.000  F
  F35      1.0000 0.13440  0.63320  0.55450  Biso   1.000  F
  F36      1.0000 0.63440  0.13320  0.55450  Biso   1.000  F
  F37      1.0000 0.13440  0.36680  0.05450  Biso   1.000  F
  F38      1.0000 0.63440  0.86680  0.05450  Biso   1.000  F
  F39      1.0000 0.86560  0.36680  0.44550  Biso   1.000  F
  F40      1.0000 0.36560  0.86680  0.44550  Biso   1.000  F
  F41      1.0000 0.92720  0.66040  0.04460  Biso   1.000  F
  F42      1.0000 0.42720  0.16040  0.04460  Biso   1.000  F
  F43      1.0000 0.07280  0.66040  0.45540  Biso   1.000  F
  F44      1.0000 0.57280  0.16040  0.45540  Biso   1.000  F
  F45      1.0000 0.07280  0.33960  0.95540  Biso   1.000  F
  F46      1.0000 0.57280  0.83960  0.95540  Biso   1.000  F
  F47      1.0000 0.92720  0.33960  0.54460  Biso   1.000  F
  F48      1.0000 0.42720  0.83960  0.54460  Biso   1.000  F
  O9       1.0000 0.96074  0.84770  0.00640  Biso   1.000  O
  O10      1.0000 0.46074  0.34770  0.00640  Biso   1.000  O
  O11      1.0000 0.03926  0.84770  0.49360  Biso   1.000  O
  O12      1.0000 0.53926  0.34770  0.49360  Biso   1.000  O
  O13      1.0000 0.03926  0.15230  0.99360  Biso   1.000  O
  O14      1.0000 0.53926  0.65230  0.99360  Biso   1.000  O
  O15      1.0000 0.96074  0.15230  0.50640  Biso   1.000  O
  O16      1.0000 0.46074  0.65230  0.50640  Biso   1.000  O
  Cu5      1.0000 0.25000  0.25000  0.00000  Biso   1.000  Cu
  Cu6      1.0000 0.75000  0.75000  0.00000  Biso   1.000  Cu
  Cu7      1.0000 0.75000  0.25000  0.50000  Biso   1.000  Cu
  Cu8      1.0000 0.25000  0.75000  0.50000  Biso   1.000  Cu
  O17      1.0000 0.25706  0.09190  0.95739  Biso   1.000  O
  O18      1.0000 0.75706  0.59190  0.95739  Biso   1.000  O
  O19      1.0000 0.74294  0.09190  0.54261  Biso   1.000  O
  O20      1.0000 0.24294  0.59190  0.54261  Biso   1.000  O
  O21      1.0000 0.74294  0.90810  0.04261  Biso   1.000  O
  O22      1.0000 0.24294  0.40810  0.04261  Biso   1.000  O
  O23      1.0000 0.25706  0.90810  0.45739  Biso   1.000  O
  O24      1.0000 0.75706  0.40810  0.45739  Biso   1.000  O
  C41      1.0000 0.28041  0.87080  0.94234  Biso   1.000  C
  C42      1.0000 0.78041  0.37080  0.94234  Biso   1.000  C
  C43      1.0000 0.71959  0.87080  0.55766  Biso   1.000  C
  C44      1.0000 0.21959  0.37080  0.55766  Biso   1.000  C
  C45      1.0000 0.71959  0.12920  0.05766  Biso   1.000  C
  C46      1.0000 0.21959  0.62920  0.05766  Biso   1.000  C
  C47      1.0000 0.28041  0.12920  0.44234  Biso   1.000  C
  C48      1.0000 0.78041  0.62920  0.44234  Biso   1.000  C
  F49      1.0000 0.25880  0.90450  0.88810  Biso   1.000  F
  F50      1.0000 0.75880  0.40450  0.88810  Biso   1.000  F
  F51      1.0000 0.74120  0.90450  0.61190  Biso   1.000  F
  F52      1.0000 0.24120  0.40450  0.61190  Biso   1.000  F
  F53      1.0000 0.74120  0.09550  0.11190  Biso   1.000  F
  F54      1.0000 0.24120  0.59550  0.11190  Biso   1.000  F
  F55      1.0000 0.25880  0.09550  0.38810  Biso   1.000  F
  F56      1.0000 0.75880  0.59550  0.38810  Biso   1.000  F
  F57      1.0000 0.26942  0.75400  0.95480  Biso   1.000  F
  F58      1.0000 0.76942  0.25400  0.95480  Biso   1.000  F
  F59      1.0000 0.73058  0.75400  0.54520  Biso   1.000  F
  F60      1.0000 0.23058  0.25400  0.54520  Biso   1.000  F
  F61      1.0000 0.73058  0.24600  0.04520  Biso   1.000  F
  F62      1.0000 0.23058  0.74600  0.04520  Biso   1.000  F
  F63      1.0000 0.26942  0.24600  0.45480  Biso   1.000  F
  F64      1.0000 0.76942  0.74600  0.45480  Biso   1.000  F
  F65      1.0000 0.33678  0.83610  0.96520  Biso   1.000  F
  F66      1.0000 0.83678  0.33610  0.96520  Biso   1.000  F
  F67      1.0000 0.66322  0.83610  0.53480  Biso   1.000  F
  F68      1.0000 0.16322  0.33610  0.53480  Biso   1.000  F
  F69      1.0000 0.66322  0.16390  0.03480  Biso   1.000  F
  F70      1.0000 0.16322  0.66390  0.03480  Biso   1.000  F
  F71      1.0000 0.33678  0.16390  0.46520  Biso   1.000  F
  F72      1.0000 0.83678  0.66390  0.46520  Biso   1.000  F
  C49      1.0000 0.28636  0.99020  0.98575  Biso   1.000  C
  C50      1.0000 0.78636  0.49020  0.98575  Biso   1.000  C
  C51      1.0000 0.71364  0.99020  0.51425  Biso   1.000  C
  C52      1.0000 0.21364  0.49020  0.51425  Biso   1.000  C
  C53      1.0000 0.71364  0.00980  0.01425  Biso   1.000  C
  C54      1.0000 0.21364  0.50980  0.01425  Biso   1.000  C
  C55      1.0000 0.28636  0.00980  0.48575  Biso   1.000  C
  C56      1.0000 0.78636  0.50980  0.48575  Biso   1.000  C
  C57      1.0000 0.32321  0.97020  0.05111  Biso   1.000  C
  C58      1.0000 0.82321  0.47020  0.05111  Biso   1.000  C
  C59      1.0000 0.67679  0.97020  0.44889  Biso   1.000  C
  C60      1.0000 0.17679  0.47020  0.44889  Biso   1.000  C
  C61      1.0000 0.67679  0.02980  0.94889  Biso   1.000  C
  C62      1.0000 0.17679  0.52980  0.94889  Biso   1.000  C
  C63      1.0000 0.32321  0.02980  0.55111  Biso   1.000  C
  C64      1.0000 0.82321  0.52980  0.55111  Biso   1.000  C
  H9       1.0000 0.33170  0.89000  0.06410  Biso   1.000  H
  H10      1.0000 0.83170  0.39000  0.06410  Biso   1.000  H
  H11      1.0000 0.66830  0.89000  0.43590  Biso   1.000  H
  H12      1.0000 0.16830  0.39000  0.43590  Biso   1.000  H
  H13      1.0000 0.66830  0.11000  0.93590  Biso   1.000  H
  H14      1.0000 0.16830  0.61000  0.93590  Biso   1.000  H
  H15      1.0000 0.33170  0.11000  0.56410  Biso   1.000  H
  H16      1.0000 0.83170  0.61000  0.56410  Biso   1.000  H
  C65      1.0000 0.33180  0.06700  0.09505  Biso   1.000  C
  C66      1.0000 0.83180  0.56700  0.09505  Biso   1.000  C
  C67      1.0000 0.66820  0.06700  0.40495  Biso   1.000  C
  C68      1.0000 0.16820  0.56700  0.40495  Biso   1.000  C
  C69      1.0000 0.66820  0.93300  0.90495  Biso   1.000  C
  C70      1.0000 0.16820  0.43300  0.90495  Biso   1.000  C
  C71      1.0000 0.33180  0.93300  0.59505  Biso   1.000  C
  C72      1.0000 0.83180  0.43300  0.59505  Biso   1.000  C
  C73      1.0000 0.37271  0.03420  0.16570  Biso   1.000  C
  C74      1.0000 0.87271  0.53420  0.16570  Biso   1.000  C
  C75      1.0000 0.62729  0.03420  0.33430  Biso   1.000  C
  C76      1.0000 0.12729  0.53420  0.33430  Biso   1.000  C
  C77      1.0000 0.62729  0.96580  0.83430  Biso   1.000  C
  C78      1.0000 0.12729  0.46580  0.83430  Biso   1.000  C
  C79      1.0000 0.37271  0.96580  0.66570  Biso   1.000  C
  C80      1.0000 0.87271  0.46580  0.66570  Biso   1.000  C
  F73      1.0000 0.35030  0.00850  0.19180  Biso   1.000  F
  F74      1.0000 0.85030  0.50850  0.19180  Biso   1.000  F
  F75      1.0000 0.64970  0.00850  0.30820  Biso   1.000  F
  F76      1.0000 0.14970  0.50850  0.30820  Biso   1.000  F
  F77      1.0000 0.64970  0.99150  0.80820  Biso   1.000  F
  F78      1.0000 0.14970  0.49150  0.80820  Biso   1.000  F
  F79      1.0000 0.35030  0.99150  0.69180  Biso   1.000  F
  F80      1.0000 0.85030  0.49150  0.69180  Biso   1.000  F
  F81      1.0000 0.40790  0.94650  0.17880  Biso   1.000  F
  F82      1.0000 0.90790  0.44650  0.17880  Biso   1.000  F
  F83      1.0000 0.59210  0.94650  0.32120  Biso   1.000  F
  F84      1.0000 0.09210  0.44650  0.32120  Biso   1.000  F
  F85      1.0000 0.59210  0.05350  0.82120  Biso   1.000  F
  F86      1.0000 0.09210  0.55350  0.82120  Biso   1.000  F
  F87      1.0000 0.40790  0.05350  0.67880  Biso   1.000  F
  F88      1.0000 0.90790  0.55350  0.67880  Biso   1.000  F
  F89      1.0000 0.40600  0.15000  0.19720  Biso   1.000  F
  F90      1.0000 0.90600  0.65000  0.19720  Biso   1.000  F
  F91      1.0000 0.59400  0.15000  0.30280  Biso   1.000  F
  F92      1.0000 0.09400  0.65000  0.30280  Biso   1.000  F
  F93      1.0000 0.59400  0.85000  0.80280  Biso   1.000  F
  F94      1.0000 0.09400  0.35000  0.80280  Biso   1.000  F
  F95      1.0000 0.40600  0.85000  0.69720  Biso   1.000  F
  F96      1.0000 0.90600  0.35000  0.69720  Biso   1.000  F
  O25      1.0000 0.30916  0.18300  0.08472  Biso   1.000  O
  O26      1.0000 0.80916  0.68300  0.08472  Biso   1.000  O
  O27      1.0000 0.69084  0.18300  0.41528  Biso   1.000  O
  O28      1.0000 0.19084  0.68300  0.41528  Biso   1.000  O
  O29      1.0000 0.69084  0.81700  0.91528  Biso   1.000  O
  O30      1.0000 0.19084  0.31700  0.91528  Biso   1.000  O
  O31      1.0000 0.30916  0.81700  0.58472  Biso   1.000  O
  O32      1.0000 0.80916  0.31700  0.58472  Biso   1.000  O
  O33      1.0000 0.24688  0.00580  0.20387  Biso   1.000  O
  O34      1.0000 0.74688  0.50580  0.20387  Biso   1.000  O
  O35      1.0000 0.75312  0.00580  0.29613  Biso   1.000  O
  O36      1.0000 0.25312  0.50580  0.29613  Biso   1.000  O
  O37      1.0000 0.75312  0.99420  0.79613  Biso   1.000  O
  O38      1.0000 0.25312  0.49420  0.79613  Biso   1.000  O
  O39      1.0000 0.24688  0.99420  0.70387  Biso   1.000  O
  O40      1.0000 0.74688  0.49420  0.70387  Biso   1.000  O
  N1       1.0000 0.20020  0.95570  0.17902  Biso   1.000  N
  N2       1.0000 0.70020  0.45570  0.17902  Biso   1.000  N
  N3       1.0000 0.79980  0.95570  0.32098  Biso   1.000  N
  N4       1.0000 0.29980  0.45570  0.32098  Biso   1.000  N
  N5       1.0000 0.79980  0.04430  0.82098  Biso   1.000  N
  N6       1.0000 0.29980  0.54430  0.82098  Biso   1.000  N
  N7       1.0000 0.20020  0.04430  0.67902  Biso   1.000  N
  N8       1.0000 0.70020  0.54430  0.67902  Biso   1.000  N
  C81      1.0000 0.18016  0.91950  0.21873  Biso   1.000  C
  C82      1.0000 0.68016  0.41950  0.21873  Biso   1.000  C
  C83      1.0000 0.81984  0.91950  0.28127  Biso   1.000  C
  C84      1.0000 0.31984  0.41950  0.28127  Biso   1.000  C
  C85      1.0000 0.81984  0.08050  0.78127  Biso   1.000  C
  C86      1.0000 0.31984  0.58050  0.78127  Biso   1.000  C
  C87      1.0000 0.18016  0.08050  0.71873  Biso   1.000  C
  C88      1.0000 0.68016  0.58050  0.71873  Biso   1.000  C
  C89      1.0000 0.16483  0.05820  0.23302  Biso   1.000  C
  C90      1.0000 0.66483  0.55820  0.23302  Biso   1.000  C
  C91      1.0000 0.83517  0.05820  0.26698  Biso   1.000  C
  C92      1.0000 0.33517  0.55820  0.26698  Biso   1.000  C
  C93      1.0000 0.83517  0.94180  0.76698  Biso   1.000  C
  C94      1.0000 0.33517  0.44180  0.76698  Biso   1.000  C
  C95      1.0000 0.16483  0.94180  0.73302  Biso   1.000  C
  C96      1.0000 0.66483  0.44180  0.73302  Biso   1.000  C
  H17      1.0000 0.19690  0.10480  0.26690  Biso   1.000  H
  H18      1.0000 0.69690  0.60480  0.26690  Biso   1.000  H
  H19      1.0000 0.80310  0.10480  0.23310  Biso   1.000  H
  H20      1.0000 0.30310  0.60480  0.23310  Biso   1.000  H
  H21      1.0000 0.80310  0.89520  0.73310  Biso   1.000  H
  H22      1.0000 0.30310  0.39520  0.73310  Biso   1.000  H
  H23      1.0000 0.19690  0.89520  0.76690  Biso   1.000  H
  H24      1.0000 0.69690  0.39520  0.76690  Biso   1.000  H
  H25      1.0000 0.14130  0.04150  0.24560  Biso   1.000  H
  H26      1.0000 0.64130  0.54150  0.24560  Biso   1.000  H
  H27      1.0000 0.85870  0.04150  0.25440  Biso   1.000  H
  H28      1.0000 0.35870  0.54150  0.25440  Biso   1.000  H
  H29      1.0000 0.85870  0.95850  0.75440  Biso   1.000  H
  H30      1.0000 0.35870  0.45850  0.75440  Biso   1.000  H
  H31      1.0000 0.14130  0.95850  0.74560  Biso   1.000  H
  H32      1.0000 0.64130  0.45850  0.74560  Biso   1.000  H
  H33      1.0000 0.14660  0.11560  0.19550  Biso   1.000  H
  H34      1.0000 0.64660  0.61560  0.19550  Biso   1.000  H
  H35      1.0000 0.85340  0.11560  0.30450  Biso   1.000  H
  H36      1.0000 0.35340  0.61560  0.30450  Biso   1.000  H
  H37      1.0000 0.85340  0.88440  0.80450  Biso   1.000  H
  H38      1.0000 0.35340  0.38440  0.80450  Biso   1.000  H
  H39      1.0000 0.14660  0.88440  0.69550  Biso   1.000  H
  H40      1.0000 0.64660  0.38440  0.69550  Biso   1.000  H
  C97      1.0000 0.22422  0.84750  0.27948  Biso   1.000  C
  C98      1.0000 0.72422  0.34750  0.27948  Biso   1.000  C
  C99      1.0000 0.77578  0.84750  0.22052  Biso   1.000  C
  C100     1.0000 0.27578  0.34750  0.22052  Biso   1.000  C
  C101     1.0000 0.77578  0.15250  0.72052  Biso   1.000  C
  C102     1.0000 0.27578  0.65250  0.72052  Biso   1.000  C
  C103     1.0000 0.22422  0.15250  0.77948  Biso   1.000  C
  C104     1.0000 0.72422  0.65250  0.77948  Biso   1.000  C
  H41      1.0000 0.25380  0.91080  0.30510  Biso   1.000  H
  H42      1.0000 0.75380  0.41080  0.30510  Biso   1.000  H
  H43      1.0000 0.74620  0.91080  0.19490  Biso   1.000  H
  H44      1.0000 0.24620  0.41080  0.19490  Biso   1.000  H
  H45      1.0000 0.74620  0.08920  0.69490  Biso   1.000  H
  H46      1.0000 0.24620  0.58920  0.69490  Biso   1.000  H
  H47      1.0000 0.25380  0.08920  0.80510  Biso   1.000  H
  H48      1.0000 0.75380  0.58920  0.80510  Biso   1.000  H
  H49      1.0000 0.23660  0.76750  0.26920  Biso   1.000  H
  H50      1.0000 0.73660  0.26750  0.26920  Biso   1.000  H
  H51      1.0000 0.76340  0.76750  0.23080  Biso   1.000  H
  H52      1.0000 0.26340  0.26750  0.23080  Biso   1.000  H
  H53      1.0000 0.76340  0.23250  0.73080  Biso   1.000  H
  H54      1.0000 0.26340  0.73250  0.73080  Biso   1.000  H
  H55      1.0000 0.23660  0.23250  0.76920  Biso   1.000  H
  H56      1.0000 0.73660  0.73250  0.76920  Biso   1.000  H
  H57      1.0000 0.21030  0.81850  0.30270  Biso   1.000  H
  H58      1.0000 0.71030  0.31850  0.30270  Biso   1.000  H
  H59      1.0000 0.78970  0.81850  0.19730  Biso   1.000  H
  H60      1.0000 0.28970  0.31850  0.19730  Biso   1.000  H
  H61      1.0000 0.78970  0.18150  0.69730  Biso   1.000  H
  H62      1.0000 0.28970  0.68150  0.69730  Biso   1.000  H
  H63      1.0000 0.21030  0.18150  0.80270  Biso   1.000  H
  H64      1.0000 0.71030  0.68150  0.80270  Biso   1.000  H
  C105     1.0000 0.13117  0.82800  0.17030  Biso   1.000  C
  C106     1.0000 0.63117  0.32800  0.17030  Biso   1.000  C
  C107     1.0000 0.86883  0.82800  0.32970  Biso   1.000  C
  C108     1.0000 0.36883  0.32800  0.32970  Biso   1.000  C
  C109     1.0000 0.86883  0.17200  0.82970  Biso   1.000  C
  C110     1.0000 0.36883  0.67200  0.82970  Biso   1.000  C
  C111     1.0000 0.13117  0.17200  0.67030  Biso   1.000  C
  C112     1.0000 0.63117  0.67200  0.67030  Biso   1.000  C
  C113     1.0000 0.08314  0.83790  0.17342  Biso   1.000  C
  C114     1.0000 0.58314  0.33790  0.17342  Biso   1.000  C
  C115     1.0000 0.91686  0.83790  0.32658  Biso   1.000  C
  C116     1.0000 0.41686  0.33790  0.32658  Biso   1.000  C
  C117     1.0000 0.91686  0.16210  0.82658  Biso   1.000  C
  C118     1.0000 0.41686  0.66210  0.82658  Biso   1.000  C
  C119     1.0000 0.08314  0.16210  0.67342  Biso   1.000  C
  C120     1.0000 0.58314  0.66210  0.67342  Biso   1.000  C
  H65      1.0000 0.06720  0.74740  0.16640  Biso   1.000  H
  H66      1.0000 0.56720  0.24740  0.16640  Biso   1.000  H
  H67      1.0000 0.93280  0.74740  0.33360  Biso   1.000  H
  H68      1.0000 0.43280  0.24740  0.33360  Biso   1.000  H
  H69      1.0000 0.93280  0.25260  0.83360  Biso   1.000  H
  H70      1.0000 0.43280  0.75260  0.83360  Biso   1.000  H
  H71      1.0000 0.06720  0.25260  0.66640  Biso   1.000  H
  H72      1.0000 0.56720  0.75260  0.66640  Biso   1.000  H
  H73      1.0000 0.05690  0.90110  0.14120  Biso   1.000  H
  H74      1.0000 0.55690  0.40110  0.14120  Biso   1.000  H
  H75      1.0000 0.94310  0.90110  0.35880  Biso   1.000  H
  H76      1.0000 0.44310  0.40110  0.35880  Biso   1.000  H
  H77      1.0000 0.94310  0.09890  0.85880  Biso   1.000  H
  H78      1.0000 0.44310  0.59890  0.85880  Biso   1.000  H
  H79      1.0000 0.05690  0.09890  0.64120  Biso   1.000  H
  H80      1.0000 0.55690  0.59890  0.64120  Biso   1.000  H
  H81      1.0000 0.09500  0.87150  0.21470  Biso   1.000  H
  H82      1.0000 0.59500  0.37150  0.21470  Biso   1.000  H
  H83      1.0000 0.90500  0.87150  0.28530  Biso   1.000  H
  H84      1.0000 0.40500  0.37150  0.28530  Biso   1.000  H
  H85      1.0000 0.90500  0.12850  0.78530  Biso   1.000  H
  H86      1.0000 0.40500  0.62850  0.78530  Biso   1.000  H
  H87      1.0000 0.09500  0.12850  0.71470  Biso   1.000  H
  H88      1.0000 0.59500  0.62850  0.71470  Biso   1.000  H
  C121     1.0000 0.14610  0.67560  0.17027  Biso   1.000  C
  C122     1.0000 0.64610  0.17560  0.17027  Biso   1.000  C
  C123     1.0000 0.85390  0.67560  0.32973  Biso   1.000  C
  C124     1.0000 0.35390  0.17560  0.32973  Biso   1.000  C
  C125     1.0000 0.85390  0.32440  0.82973  Biso   1.000  C
  C126     1.0000 0.35390  0.82440  0.82973  Biso   1.000  C
  C127     1.0000 0.14610  0.32440  0.67027  Biso   1.000  C
  C128     1.0000 0.64610  0.82440  0.67027  Biso   1.000  C
  H89      1.0000 0.11370  0.62190  0.14310  Biso   1.000  H
  H90      1.0000 0.61370  0.12190  0.14310  Biso   1.000  H
  H91      1.0000 0.88630  0.62190  0.35690  Biso   1.000  H
  H92      1.0000 0.38630  0.12190  0.35690  Biso   1.000  H
  H93      1.0000 0.88630  0.37810  0.85690  Biso   1.000  H
  H94      1.0000 0.38630  0.87810  0.85690  Biso   1.000  H
  H95      1.0000 0.11370  0.37810  0.64310  Biso   1.000  H
  H96      1.0000 0.61370  0.87810  0.64310  Biso   1.000  H
  H97      1.0000 0.16600  0.63930  0.21290  Biso   1.000  H
  H98      1.0000 0.66600  0.13930  0.21290  Biso   1.000  H
  H99      1.0000 0.83400  0.63930  0.28710  Biso   1.000  H
  H100     1.0000 0.33400  0.13930  0.28710  Biso   1.000  H
  H101     1.0000 0.83400  0.36070  0.78710  Biso   1.000  H
  H102     1.0000 0.33400  0.86070  0.78710  Biso   1.000  H
  H103     1.0000 0.16600  0.36070  0.71290  Biso   1.000  H
  H104     1.0000 0.66600  0.86070  0.71290  Biso   1.000  H
  H105     1.0000 0.16790  0.67000  0.15480  Biso   1.000  H
  H106     1.0000 0.66790  0.17000  0.15480  Biso   1.000  H
  H107     1.0000 0.83210  0.67000  0.34520  Biso   1.000  H
  H108     1.0000 0.33210  0.17000  0.34520  Biso   1.000  H
  H109     1.0000 0.83210  0.33000  0.84520  Biso   1.000  H
  H110     1.0000 0.33210  0.83000  0.84520  Biso   1.000  H
  H111     1.0000 0.16790  0.33000  0.65480  Biso   1.000  H
  H112     1.0000 0.66790  0.83000  0.65480  Biso   1.000  H
  N9       1.0000 0.11777  0.88900  0.10922  Biso   1.000  N
  N10      1.0000 0.61777  0.38900  0.10922  Biso   1.000  N
  N11      1.0000 0.88223  0.88900  0.39078  Biso   1.000  N
  N12      1.0000 0.38223  0.38900  0.39078  Biso   1.000  N
  N13      1.0000 0.88223  0.11100  0.89078  Biso   1.000  N
  N14      1.0000 0.38223  0.61100  0.89078  Biso   1.000  N
  N15      1.0000 0.11777  0.11100  0.60922  Biso   1.000  N
  N16      1.0000 0.61777  0.61100  0.60922  Biso   1.000  N
  O41      1.0000 0.07215  0.86120  0.05469  Biso   1.000  O
  O42      1.0000 0.57215  0.36120  0.05469  Biso   1.000  O
  O43      1.0000 0.92785  0.86120  0.44531  Biso   1.000  O
  O44      1.0000 0.42785  0.36120  0.44531  Biso   1.000  O
  O45      1.0000 0.92785  0.13880  0.94531  Biso   1.000  O
  O46      1.0000 0.42785  0.63880  0.94531  Biso   1.000  O
  O47      1.0000 0.07215  0.13880  0.55469  Biso   1.000  O
  O48      1.0000 0.57215  0.63880  0.55469  Biso   1.000  O
  C129     1.0000 0.16031  0.94870  0.11644  Biso   1.000  C
  C130     1.0000 0.66031  0.44870  0.11644  Biso   1.000  C
  C131     1.0000 0.83969  0.94870  0.38356  Biso   1.000  C
  C132     1.0000 0.33969  0.44870  0.38356  Biso   1.000  C
  C133     1.0000 0.83969  0.05130  0.88356  Biso   1.000  C
  C134     1.0000 0.33969  0.55130  0.88356  Biso   1.000  C
  C135     1.0000 0.16031  0.05130  0.61644  Biso   1.000  C
  C136     1.0000 0.66031  0.55130  0.61644  Biso   1.000  C
  C137     1.0000 0.16264  0.99930  0.06613  Biso   1.000  C
  C138     1.0000 0.66264  0.49930  0.06613  Biso   1.000  C
  C139     1.0000 0.83736  0.99930  0.43387  Biso   1.000  C
  C140     1.0000 0.33736  0.49930  0.43387  Biso   1.000  C
  C141     1.0000 0.83736  0.00070  0.93387  Biso   1.000  C
  C142     1.0000 0.33736  0.50070  0.93387  Biso   1.000  C
  C143     1.0000 0.16264  0.00070  0.56613  Biso   1.000  C
  C144     1.0000 0.66264  0.50070  0.56613  Biso   1.000  C
  C145     1.0000 0.12466  0.97980  0.00149  Biso   1.000  C
  C146     1.0000 0.62466  0.47980  0.00149  Biso   1.000  C
  C147     1.0000 0.87534  0.97980  0.49851  Biso   1.000  C
  C148     1.0000 0.37534  0.47980  0.49851  Biso   1.000  C
  C149     1.0000 0.87534  0.02020  0.99851  Biso   1.000  C
  C150     1.0000 0.37534  0.52020  0.99851  Biso   1.000  C
  C151     1.0000 0.12466  0.02020  0.50149  Biso   1.000  C
  C152     1.0000 0.62466  0.52020  0.50149  Biso   1.000  C
  H113     1.0000 0.09060  0.93200  0.97730  Biso   1.000  H
  H114     1.0000 0.59060  0.43200  0.97730  Biso   1.000  H
  H115     1.0000 0.90940  0.93200  0.52270  Biso   1.000  H
  H116     1.0000 0.40940  0.43200  0.52270  Biso   1.000  H
  H117     1.0000 0.90940  0.06800  0.02270  Biso   1.000  H
  H118     1.0000 0.40940  0.56800  0.02270  Biso   1.000  H
  H119     1.0000 0.09060  0.06800  0.47730  Biso   1.000  H
  H120     1.0000 0.59060  0.56800  0.47730  Biso   1.000  H
  N17      1.0000 0.14288  0.04320  0.97212  Biso   1.000  N
  N18      1.0000 0.64288  0.54320  0.97212  Biso   1.000  N
  N19      1.0000 0.85712  0.04320  0.52788  Biso   1.000  N
  N20      1.0000 0.35712  0.54320  0.52788  Biso   1.000  N
  N21      1.0000 0.85712  0.95680  0.02788  Biso   1.000  N
  N22      1.0000 0.35712  0.45680  0.02788  Biso   1.000  N
  N23      1.0000 0.14288  0.95680  0.47212  Biso   1.000  N
  N24      1.0000 0.64288  0.45680  0.47212  Biso   1.000  N
  C153     1.0000 0.11884  0.04550  0.90584  Biso   1.000  C
  C154     1.0000 0.61884  0.54550  0.90584  Biso   1.000  C
  C155     1.0000 0.88116  0.04550  0.59416  Biso   1.000  C
  C156     1.0000 0.38116  0.54550  0.59416  Biso   1.000  C
  C157     1.0000 0.88116  0.95450  0.09416  Biso   1.000  C
  C158     1.0000 0.38116  0.45450  0.09416  Biso   1.000  C
  C159     1.0000 0.11884  0.95450  0.40584  Biso   1.000  C
  C160     1.0000 0.61884  0.45450  0.40584  Biso   1.000  C
  H121     1.0000 0.14240  0.09830  0.89950  Biso   1.000  H
  H122     1.0000 0.64240  0.59830  0.89950  Biso   1.000  H
  H123     1.0000 0.85760  0.09830  0.60050  Biso   1.000  H
  H124     1.0000 0.35760  0.59830  0.60050  Biso   1.000  H
  H125     1.0000 0.85760  0.90170  0.10050  Biso   1.000  H
  H126     1.0000 0.35760  0.40170  0.10050  Biso   1.000  H
  H127     1.0000 0.14240  0.90170  0.39950  Biso   1.000  H
  H128     1.0000 0.64240  0.40170  0.39950  Biso   1.000  H
  H129     1.0000 0.11810  0.95050  0.89250  Biso   1.000  H
  H130     1.0000 0.61810  0.45050  0.89250  Biso   1.000  H
  H131     1.0000 0.88190  0.95050  0.60750  Biso   1.000  H
  H132     1.0000 0.38190  0.45050  0.60750  Biso   1.000  H
  H133     1.0000 0.88190  0.04950  0.10750  Biso   1.000  H
  H134     1.0000 0.38190  0.54950  0.10750  Biso   1.000  H
  H135     1.0000 0.11810  0.04950  0.39250  Biso   1.000  H
  H136     1.0000 0.61810  0.54950  0.39250  Biso   1.000  H
  C161     1.0000 0.06840  0.09830  0.86620  Biso   1.000  C
  C162     1.0000 0.56840  0.59830  0.86620  Biso   1.000  C
  C163     1.0000 0.93160  0.09830  0.63380  Biso   1.000  C
  C164     1.0000 0.43160  0.59830  0.63380  Biso   1.000  C
  C165     1.0000 0.93160  0.90170  0.13380  Biso   1.000  C
  C166     1.0000 0.43160  0.40170  0.13380  Biso   1.000  C
  C167     1.0000 0.06840  0.90170  0.36620  Biso   1.000  C
  C168     1.0000 0.56840  0.40170  0.36620  Biso   1.000  C
  H137     1.0000 0.06570  0.19850  0.86030  Biso   1.000  H
  H138     1.0000 0.56570  0.69850  0.86030  Biso   1.000  H
  H139     1.0000 0.93430  0.19850  0.63970  Biso   1.000  H
  H140     1.0000 0.43430  0.69850  0.63970  Biso   1.000  H
  H141     1.0000 0.93430  0.80150  0.13970  Biso   1.000  H
  H142     1.0000 0.43430  0.30150  0.13970  Biso   1.000  H
  H143     1.0000 0.06570  0.80150  0.36030  Biso   1.000  H
  H144     1.0000 0.56570  0.30150  0.36030  Biso   1.000  H
  H145     1.0000 0.04120  0.05980  0.87020  Biso   1.000  H
  H146     1.0000 0.54120  0.55980  0.87020  Biso   1.000  H
  H147     1.0000 0.95880  0.05980  0.62980  Biso   1.000  H
  H148     1.0000 0.45880  0.55980  0.62980  Biso   1.000  H
  H149     1.0000 0.95880  0.94020  0.12980  Biso   1.000  H
  H150     1.0000 0.45880  0.44020  0.12980  Biso   1.000  H
  H151     1.0000 0.04120  0.94020  0.37020  Biso   1.000  H
  H152     1.0000 0.54120  0.44020  0.37020  Biso   1.000  H
  C169     1.0000 0.08070  0.01500  0.82630  Biso   1.000  C
  C170     1.0000 0.58070  0.51500  0.82630  Biso   1.000  C
  C171     1.0000 0.91930  0.01500  0.67370  Biso   1.000  C
  C172     1.0000 0.41930  0.51500  0.67370  Biso   1.000  C
  C173     1.0000 0.91930  0.98500  0.17370  Biso   1.000  C
  C174     1.0000 0.41930  0.48500  0.17370  Biso   1.000  C
  C175     1.0000 0.08070  0.98500  0.32630  Biso   1.000  C
  C176     1.0000 0.58070  0.48500  0.32630  Biso   1.000  C
  H153     1.0000 0.04970  0.01640  0.78250  Biso   1.000  H
  H154     1.0000 0.54970  0.51640  0.78250  Biso   1.000  H
  H155     1.0000 0.95030  0.01640  0.71750  Biso   1.000  H
  H156     1.0000 0.45030  0.51640  0.71750  Biso   1.000  H
  H157     1.0000 0.95030  0.98360  0.21750  Biso   1.000  H
  H158     1.0000 0.45030  0.48360  0.21750  Biso   1.000  H
  H159     1.0000 0.04970  0.98360  0.28250  Biso   1.000  H
  H160     1.0000 0.54970  0.48360  0.28250  Biso   1.000  H
  H161     1.0000 0.08920  0.92100  0.84140  Biso   1.000  H
  H162     1.0000 0.58920  0.42100  0.84140  Biso   1.000  H
  H163     1.0000 0.91080  0.92100  0.65860  Biso   1.000  H
  H164     1.0000 0.41080  0.42100  0.65860  Biso   1.000  H
  H165     1.0000 0.91080  0.07900  0.15860  Biso   1.000  H
  H166     1.0000 0.41080  0.57900  0.15860  Biso   1.000  H
  H167     1.0000 0.08920  0.07900  0.34140  Biso   1.000  H
  H168     1.0000 0.58920  0.57900  0.34140  Biso   1.000  H
  H169     1.0000 0.11090  0.05650  0.82960  Biso   1.000  H
  H170     1.0000 0.61090  0.55650  0.82960  Biso   1.000  H
  H171     1.0000 0.88910  0.05650  0.67040  Biso   1.000  H
  H172     1.0000 0.38910  0.55650  0.67040  Biso   1.000  H
  H173     1.0000 0.88910  0.94350  0.17040  Biso   1.000  H
  H174     1.0000 0.38910  0.44350  0.17040  Biso   1.000  H
  H175     1.0000 0.11090  0.94350  0.32960  Biso   1.000  H
  H176     1.0000 0.61090  0.44350  0.32960  Biso   1.000  H
  N25      1.0000 0.19162  0.10580  0.01360  Biso   1.000  N
  N26      1.0000 0.69162  0.60580  0.01360  Biso   1.000  N
  N27      1.0000 0.80838  0.10580  0.48640  Biso   1.000  N
  N28      1.0000 0.30838  0.60580  0.48640  Biso   1.000  N
  N29      1.0000 0.80838  0.89420  0.98640  Biso   1.000  N
  N30      1.0000 0.30838  0.39420  0.98640  Biso   1.000  N
  N31      1.0000 0.19162  0.89420  0.51360  Biso   1.000  N
  N32      1.0000 0.69162  0.39420  0.51360  Biso   1.000  N
  C177     1.0000 0.20354  0.07900  0.07038  Biso   1.000  C
  C178     1.0000 0.70354  0.57900  0.07038  Biso   1.000  C
  C179     1.0000 0.79646  0.07900  0.42962  Biso   1.000  C
  C180     1.0000 0.29646  0.57900  0.42962  Biso   1.000  C
  C181     1.0000 0.79646  0.92100  0.92962  Biso   1.000  C
  C182     1.0000 0.29646  0.42100  0.92962  Biso   1.000  C
  C183     1.0000 0.20354  0.92100  0.57038  Biso   1.000  C
  C184     1.0000 0.70354  0.42100  0.57038  Biso   1.000  C
  H177     1.0000 0.23860  0.11900  0.11320  Biso   1.000  H
  H178     1.0000 0.73860  0.61900  0.11320  Biso   1.000  H
  H179     1.0000 0.76140  0.11900  0.38680  Biso   1.000  H
  H180     1.0000 0.26140  0.61900  0.38680  Biso   1.000  H
  H181     1.0000 0.76140  0.88100  0.88680  Biso   1.000  H
  H182     1.0000 0.26140  0.38100  0.88680  Biso   1.000  H
  H183     1.0000 0.23860  0.88100  0.61320  Biso   1.000  H
  H184     1.0000 0.73860  0.38100  0.61320  Biso   1.000  H
  F97      1.0000 0.95960  0.78140  0.81220  Biso   1.000  F
  F98      1.0000 0.45960  0.28140  0.81220  Biso   1.000  F
  F99      1.0000 0.04040  0.78140  0.68780  Biso   1.000  F
  F100     1.0000 0.54040  0.28140  0.68780  Biso   1.000  F
  F101     1.0000 0.04040  0.21860  0.18780  Biso   1.000  F
  F102     1.0000 0.54040  0.71860  0.18780  Biso   1.000  F
  F103     1.0000 0.95960  0.21860  0.31220  Biso   1.000  F
  F104     1.0000 0.45960  0.71860  0.31220  Biso   1.000  F
  F105     1.0000 0.96150  0.61590  0.84190  Biso   1.000  F
  F106     1.0000 0.46150  0.11590  0.84190  Biso   1.000  F
  F107     1.0000 0.03850  0.61590  0.65810  Biso   1.000  F
  F108     1.0000 0.53850  0.11590  0.65810  Biso   1.000  F
  F109     1.0000 0.03850  0.38410  0.15810  Biso   1.000  F
  F110     1.0000 0.53850  0.88410  0.15810  Biso   1.000  F
  F111     1.0000 0.96150  0.38410  0.34190  Biso   1.000  F
  F112     1.0000 0.46150  0.88410  0.34190  Biso   1.000  F
  F113     1.0000 0.03780  0.71690  0.88210  Biso   1.000  F
  F114     1.0000 0.53780  0.21690  0.88210  Biso   1.000  F
  F115     1.0000 0.96220  0.71690  0.61790  Biso   1.000  F
  F116     1.0000 0.46220  0.21690  0.61790  Biso   1.000  F
  F117     1.0000 0.96220  0.28310  0.11790  Biso   1.000  F
  F118     1.0000 0.46220  0.78310  0.11790  Biso   1.000  F
  F119     1.0000 0.03780  0.28310  0.38210  Biso   1.000  F
  F120     1.0000 0.53780  0.78310  0.38210  Biso   1.000  F
  F121     1.0000 0.96420  0.61680  0.06930  Biso   1.000  F
  F122     1.0000 0.46420  0.11680  0.06930  Biso   1.000  F
  F123     1.0000 0.03580  0.61680  0.43070  Biso   1.000  F
  F124     1.0000 0.53580  0.11680  0.43070  Biso   1.000  F
  F125     1.0000 0.03580  0.38320  0.93070  Biso   1.000  F
  F126     1.0000 0.53580  0.88320  0.93070  Biso   1.000  F
  F127     1.0000 0.96420  0.38320  0.56930  Biso   1.000  F
  F128     1.0000 0.46420  0.88320  0.56930  Biso   1.000  F
  F129     1.0000 0.92360  0.50160  0.98100  Biso   1.000  F
  F130     1.0000 0.42360  0.00160  0.98100  Biso   1.000  F
  F131     1.0000 0.07640  0.50160  0.51900  Biso   1.000  F
  F132     1.0000 0.57640  0.00160  0.51900  Biso   1.000  F
  F133     1.0000 0.07640  0.49840  0.01900  Biso   1.000  F
  F134     1.0000 0.57640  0.99840  0.01900  Biso   1.000  F
  F135     1.0000 0.92360  0.49840  0.48100  Biso   1.000  F
  F136     1.0000 0.42360  0.99840  0.48100  Biso   1.000  F
  F137     1.0000 0.88293  0.66590  0.99190  Biso   1.000  F
  F138     1.0000 0.38293  0.16590  0.99190  Biso   1.000  F
  F139     1.0000 0.11707  0.66590  0.50810  Biso   1.000  F
  F140     1.0000 0.61707  0.16590  0.50810  Biso   1.000  F
  F141     1.0000 0.11707  0.33410  0.00810  Biso   1.000  F
  F142     1.0000 0.61707  0.83410  0.00810  Biso   1.000  F
  F143     1.0000 0.88293  0.33410  0.49190  Biso   1.000  F
  F144     1.0000 0.38293  0.83410  0.49190  Biso   1.000  F
  F145     1.0000 0.21900  0.85110  0.89450  Biso   1.000  F
  F146     1.0000 0.71900  0.35110  0.89450  Biso   1.000  F
  F147     1.0000 0.78100  0.85110  0.60550  Biso   1.000  F
  F148     1.0000 0.28100  0.35110  0.60550  Biso   1.000  F
  F149     1.0000 0.78100  0.14890  0.10550  Biso   1.000  F
  F150     1.0000 0.28100  0.64890  0.10550  Biso   1.000  F
  F151     1.0000 0.21900  0.14890  0.39450  Biso   1.000  F
  F152     1.0000 0.71900  0.64890  0.39450  Biso   1.000  F
  F153     1.0000 0.28730  0.75380  0.96710  Biso   1.000  F
  F154     1.0000 0.78730  0.25380  0.96710  Biso   1.000  F
  F155     1.0000 0.71270  0.75380  0.53290  Biso   1.000  F
  F156     1.0000 0.21270  0.25380  0.53290  Biso   1.000  F
  F157     1.0000 0.71270  0.24620  0.03290  Biso   1.000  F
  F158     1.0000 0.21270  0.74620  0.03290  Biso   1.000  F
  F159     1.0000 0.28730  0.24620  0.46710  Biso   1.000  F
  F160     1.0000 0.78730  0.74620  0.46710  Biso   1.000  F
  F161     1.0000 0.29280  0.88920  0.90900  Biso   1.000  F
  F162     1.0000 0.79280  0.38920  0.90900  Biso   1.000  F
  F163     1.0000 0.70720  0.88920  0.59100  Biso   1.000  F
  F164     1.0000 0.20720  0.38920  0.59100  Biso   1.000  F
  F165     1.0000 0.70720  0.11080  0.09100  Biso   1.000  F
  F166     1.0000 0.20720  0.61080  0.09100  Biso   1.000  F
  F167     1.0000 0.29280  0.11080  0.40900  Biso   1.000  F
  F168     1.0000 0.79280  0.61080  0.40900  Biso   1.000  F
  F169     1.0000 0.36290  0.08100  0.20060  Biso   1.000  F
  F170     1.0000 0.86290  0.58100  0.20060  Biso   1.000  F
  F171     1.0000 0.63710  0.08100  0.29940  Biso   1.000  F
  F172     1.0000 0.13710  0.58100  0.29940  Biso   1.000  F
  F173     1.0000 0.63710  0.91900  0.79940  Biso   1.000  F
  F174     1.0000 0.13710  0.41900  0.79940  Biso   1.000  F
  F175     1.0000 0.36290  0.91900  0.70060  Biso   1.000  F
  F176     1.0000 0.86290  0.41900  0.70060  Biso   1.000  F
  F177     1.0000 0.38270  0.89910  0.17680  Biso   1.000  F
  F178     1.0000 0.88270  0.39910  0.17680  Biso   1.000  F
  F179     1.0000 0.61730  0.89910  0.32320  Biso   1.000  F
  F180     1.0000 0.11730  0.39910  0.32320  Biso   1.000  F
  F181     1.0000 0.61730  0.10090  0.82320  Biso   1.000  F
  F182     1.0000 0.11730  0.60090  0.82320  Biso   1.000  F
  F183     1.0000 0.38270  0.10090  0.67680  Biso   1.000  F
  F184     1.0000 0.88270  0.60090  0.67680  Biso   1.000  F
  F185     1.0000 0.41700  0.07830  0.18360  Biso   1.000  F
  F186     1.0000 0.91700  0.57830  0.18360  Biso   1.000  F
  F187     1.0000 0.58300  0.07830  0.31640  Biso   1.000  F
  F188     1.0000 0.08300  0.57830  0.31640  Biso   1.000  F
  F189     1.0000 0.58300  0.92170  0.81640  Biso   1.000  F
  F190     1.0000 0.08300  0.42170  0.81640  Biso   1.000  F
  F191     1.0000 0.41700  0.92170  0.68360  Biso   1.000  F
  F192     1.0000 0.91700  0.42170  0.68360  Biso   1.000  F
