data_image0
_cell_length_a       18.7186
_cell_length_b       22.3796
_cell_length_c       17.0595
_cell_angle_alpha    90
_cell_angle_beta     112.811
_cell_angle_gamma    90

_symmetry_space_group_name_H-M    "P 1"
_symmetry_int_tables_number       1

loop_
  _symmetry_equiv_pos_as_xyz
  'x, y, z'

loop_
  _atom_site_label
  _atom_site_occupancy
  _atom_site_fract_x
  _atom_site_fract_y
  _atom_site_fract_z
  _atom_site_thermal_displace_type
  _atom_site_B_iso_or_equiv
  _atom_site_type_symbol
  Cu1      1.0000 0.01354  0.40493  0.77333  Biso   1.000  Cu
  Cu2      1.0000 0.98646  0.90493  0.72667  Biso   1.000  Cu
  Cu3      1.0000 0.98646  0.59507  0.22667  Biso   1.000  Cu
  Cu4      1.0000 0.01354  0.09507  0.27333  Biso   1.000  Cu
  Cu5      1.0000 0.46826  0.40563  0.22534  Biso   1.000  Cu
  Cu6      1.0000 0.53174  0.90563  0.27466  Biso   1.000  Cu
  Cu7      1.0000 0.53174  0.59437  0.77466  Biso   1.000  Cu
  Cu8      1.0000 0.46826  0.09437  0.72534  Biso   1.000  Cu
  P1       1.0000 0.84280  0.46050  0.69785  Biso   1.000  P
  P2       1.0000 0.15720  0.96050  0.80215  Biso   1.000  P
  P3       1.0000 0.15720  0.53950  0.30215  Biso   1.000  P
  P4       1.0000 0.84280  0.03950  0.19785  Biso   1.000  P
  P5       1.0000 0.64408  0.45930  0.29925  Biso   1.000  P
  P6       1.0000 0.35592  0.95930  0.20075  Biso   1.000  P
  P7       1.0000 0.35592  0.54070  0.70075  Biso   1.000  P
  P8       1.0000 0.64408  0.04070  0.79925  Biso   1.000  P
  O1       1.0000 0.88509  0.40253  0.71466  Biso   1.000  O
  O2       1.0000 0.11491  0.90253  0.78534  Biso   1.000  O
  O3       1.0000 0.11491  0.59747  0.28534  Biso   1.000  O
  O4       1.0000 0.88509  0.09747  0.21466  Biso   1.000  O
  O5       1.0000 0.00110  0.46938  0.84728  Biso   1.000  O
  O6       1.0000 0.99890  0.96938  0.65272  Biso   1.000  O
  O7       1.0000 0.99890  0.53062  0.15272  Biso   1.000  O
  O8       1.0000 0.00110  0.03062  0.34728  Biso   1.000  O
  O9       1.0000 0.01857  0.46685  0.69379  Biso   1.000  O
  O10      1.0000 0.98143  0.96685  0.80621  Biso   1.000  O
  O11      1.0000 0.98143  0.53315  0.30621  Biso   1.000  O
  O12      1.0000 0.01857  0.03315  0.19379  Biso   1.000  O
  O13      1.0000 0.60068  0.40188  0.28354  Biso   1.000  O
  O14      1.0000 0.39932  0.90188  0.21646  Biso   1.000  O
  O15      1.0000 0.39932  0.59812  0.71646  Biso   1.000  O
  O16      1.0000 0.60068  0.09812  0.78354  Biso   1.000  O
  O17      1.0000 0.48203  0.46934  0.14931  Biso   1.000  O
  O18      1.0000 0.51797  0.96934  0.35069  Biso   1.000  O
  O19      1.0000 0.51797  0.53066  0.85069  Biso   1.000  O
  O20      1.0000 0.48203  0.03066  0.64931  Biso   1.000  O
  O21      1.0000 0.47037  0.46761  0.30783  Biso   1.000  O
  O22      1.0000 0.52963  0.96761  0.19217  Biso   1.000  O
  O23      1.0000 0.52963  0.53239  0.69217  Biso   1.000  O
  O24      1.0000 0.47037  0.03239  0.80783  Biso   1.000  O
  O25      1.0000 0.81500  0.24074  0.68100  Biso   1.000  O
  O26      1.0000 0.18500  0.74074  0.81900  Biso   1.000  O
  O27      1.0000 0.18500  0.75926  0.31900  Biso   1.000  O
  O28      1.0000 0.81500  0.25926  0.18100  Biso   1.000  O
  H1       1.0000 0.79230  0.22920  0.63060  Biso   1.000  H
  H2       1.0000 0.20770  0.72920  0.86940  Biso   1.000  H
  H3       1.0000 0.20770  0.77080  0.36940  Biso   1.000  H
  H4       1.0000 0.79230  0.27080  0.13060  Biso   1.000  H
  O29      1.0000 0.32430  0.43272  0.15320  Biso   1.000  O
  O30      1.0000 0.67570  0.93272  0.34680  Biso   1.000  O
  O31      1.0000 0.67570  0.56728  0.84680  Biso   1.000  O
  O32      1.0000 0.32430  0.06728  0.65320  Biso   1.000  O
  H5       1.0000 0.30100  0.40800  0.15800  Biso   1.000  H
  H6       1.0000 0.69900  0.90800  0.34200  Biso   1.000  H
  H7       1.0000 0.69900  0.59200  0.84200  Biso   1.000  H
  H8       1.0000 0.30100  0.09200  0.65800  Biso   1.000  H
  H9       1.0000 0.31000  0.44500  0.09900  Biso   1.000  H
  H10      1.0000 0.69000  0.94500  0.40100  Biso   1.000  H
  H11      1.0000 0.69000  0.55500  0.90100  Biso   1.000  H
  H12      1.0000 0.31000  0.05500  0.59900  Biso   1.000  H
  N1       1.0000 0.96581  0.45363  0.89995  Biso   1.000  N
  N2       1.0000 0.03419  0.95363  0.60005  Biso   1.000  N
  N3       1.0000 0.03419  0.54637  0.10005  Biso   1.000  N
  N4       1.0000 0.96581  0.04637  0.39995  Biso   1.000  N
  N5       1.0000 0.01377  0.52462  0.71021  Biso   1.000  N
  N6       1.0000 0.98623  0.02462  0.78979  Biso   1.000  N
  N7       1.0000 0.98623  0.47538  0.28979  Biso   1.000  N
  N8       1.0000 0.01377  0.97538  0.21021  Biso   1.000  N
  N9       1.0000 0.01867  0.16276  0.35338  Biso   1.000  N
  N10      1.0000 0.98133  0.66276  0.14662  Biso   1.000  N
  N11      1.0000 0.98133  0.83724  0.64662  Biso   1.000  N
  N12      1.0000 0.01867  0.33724  0.85338  Biso   1.000  N
  N13      1.0000 0.02703  0.34815  0.69051  Biso   1.000  N
  N14      1.0000 0.97297  0.84815  0.80949  Biso   1.000  N
  N15      1.0000 0.97297  0.65185  0.30949  Biso   1.000  N
  N16      1.0000 0.02703  0.15185  0.19051  Biso   1.000  N
  N17      1.0000 0.51742  0.45227  0.09740  Biso   1.000  N
  N18      1.0000 0.48258  0.95227  0.40260  Biso   1.000  N
  N19      1.0000 0.48258  0.54773  0.90260  Biso   1.000  N
  N20      1.0000 0.51742  0.04773  0.59740  Biso   1.000  N
  N21      1.0000 0.47499  0.52535  0.28937  Biso   1.000  N
  N22      1.0000 0.52501  0.02535  0.21063  Biso   1.000  N
  N23      1.0000 0.52501  0.47465  0.71063  Biso   1.000  N
  N24      1.0000 0.47499  0.97465  0.78937  Biso   1.000  N
  N25      1.0000 0.46312  0.16282  0.64584  Biso   1.000  N
  N26      1.0000 0.53688  0.66282  0.85416  Biso   1.000  N
  N27      1.0000 0.53688  0.83718  0.35416  Biso   1.000  N
  N28      1.0000 0.46312  0.33718  0.14584  Biso   1.000  N
  N29      1.0000 0.45750  0.34995  0.31156  Biso   1.000  N
  N30      1.0000 0.54250  0.84995  0.18844  Biso   1.000  N
  N31      1.0000 0.54250  0.65005  0.68844  Biso   1.000  N
  N32      1.0000 0.45750  0.15005  0.81156  Biso   1.000  N
  C1       1.0000 0.74240  0.44709  0.63430  Biso   1.000  C
  C2       1.0000 0.25760  0.94709  0.86570  Biso   1.000  C
  C3       1.0000 0.25760  0.55291  0.36570  Biso   1.000  C
  C4       1.0000 0.74240  0.05291  0.13430  Biso   1.000  C
  C5       1.0000 0.72080  0.38974  0.60440  Biso   1.000  C
  C6       1.0000 0.27920  0.88974  0.89560  Biso   1.000  C
  C7       1.0000 0.27920  0.61026  0.39560  Biso   1.000  C
  C8       1.0000 0.72080  0.11026  0.10440  Biso   1.000  C
  H13      1.0000 0.75880  0.35910  0.61760  Biso   1.000  H
  H14      1.0000 0.24120  0.85910  0.88240  Biso   1.000  H
  H15      1.0000 0.24120  0.64090  0.38240  Biso   1.000  H
  H16      1.0000 0.75880  0.14090  0.11760  Biso   1.000  H
  C9       1.0000 0.64450  0.37690  0.55540  Biso   1.000  C
  C10      1.0000 0.35550  0.87690  0.94460  Biso   1.000  C
  C11      1.0000 0.35550  0.62310  0.44460  Biso   1.000  C
  C12      1.0000 0.64450  0.12310  0.05540  Biso   1.000  C
  H17      1.0000 0.63020  0.33750  0.53430  Biso   1.000  H
  H18      1.0000 0.36980  0.83750  0.96570  Biso   1.000  H
  H19      1.0000 0.36980  0.66250  0.46570  Biso   1.000  H
  H20      1.0000 0.63020  0.16250  0.03430  Biso   1.000  H
  C13      1.0000 0.58880  0.42090  0.53670  Biso   1.000  C
  C14      1.0000 0.41120  0.92090  0.96330  Biso   1.000  C
  C15      1.0000 0.41120  0.57910  0.46330  Biso   1.000  C
  C16      1.0000 0.58880  0.07910  0.03670  Biso   1.000  C
  H21      1.0000 0.53620  0.41180  0.50320  Biso   1.000  H
  H22      1.0000 0.46380  0.91180  0.99680  Biso   1.000  H
  H23      1.0000 0.46380  0.58820  0.49680  Biso   1.000  H
  H24      1.0000 0.53620  0.08820  0.00320  Biso   1.000  H
  C17      1.0000 0.60940  0.47810  0.56670  Biso   1.000  C
  C18      1.0000 0.39060  0.97810  0.93330  Biso   1.000  C
  C19      1.0000 0.39060  0.52190  0.43330  Biso   1.000  C
  C20      1.0000 0.60940  0.02190  0.06670  Biso   1.000  C
  H25      1.0000 0.57100  0.50840  0.55410  Biso   1.000  H
  H26      1.0000 0.42900  0.00840  0.94590  Biso   1.000  H
  H27      1.0000 0.42900  0.49160  0.44590  Biso   1.000  H
  H28      1.0000 0.57100  0.99160  0.05410  Biso   1.000  H
  C21      1.0000 0.68610  0.49145  0.61530  Biso   1.000  C
  C22      1.0000 0.31390  0.99145  0.88470  Biso   1.000  C
  C23      1.0000 0.31390  0.50855  0.38470  Biso   1.000  C
  C24      1.0000 0.68610  0.00855  0.11530  Biso   1.000  C
  H29      1.0000 0.70030  0.53100  0.63560  Biso   1.000  H
  H30      1.0000 0.29970  0.03100  0.86440  Biso   1.000  H
  H31      1.0000 0.29970  0.46900  0.36440  Biso   1.000  H
  H32      1.0000 0.70030  0.96900  0.13560  Biso   1.000  H
  C25      1.0000 0.84940  0.49894  0.79500  Biso   1.000  C
  C26      1.0000 0.15060  0.99894  0.70500  Biso   1.000  C
  C27      1.0000 0.15060  0.50106  0.20500  Biso   1.000  C
  C28      1.0000 0.84940  0.00106  0.29500  Biso   1.000  C
  H33      1.0000 0.87760  0.53700  0.79920  Biso   1.000  H
  H34      1.0000 0.12240  0.03700  0.70080  Biso   1.000  H
  H35      1.0000 0.12240  0.46300  0.20080  Biso   1.000  H
  H36      1.0000 0.87760  0.96300  0.29920  Biso   1.000  H
  H37      1.0000 0.79630  0.50900  0.79000  Biso   1.000  H
  H38      1.0000 0.20370  0.00900  0.71000  Biso   1.000  H
  H39      1.0000 0.20370  0.49100  0.21000  Biso   1.000  H
  H40      1.0000 0.79630  0.99100  0.29000  Biso   1.000  H
  C29      1.0000 0.88880  0.46439  0.87530  Biso   1.000  C
  C30      1.0000 0.11120  0.96439  0.62470  Biso   1.000  C
  C31      1.0000 0.11120  0.53561  0.12470  Biso   1.000  C
  C32      1.0000 0.88880  0.03561  0.37530  Biso   1.000  C
  C33      1.0000 0.85340  0.44610  0.92820  Biso   1.000  C
  C34      1.0000 0.14660  0.94610  0.57180  Biso   1.000  C
  C35      1.0000 0.14660  0.55390  0.07180  Biso   1.000  C
  C36      1.0000 0.85340  0.05390  0.42820  Biso   1.000  C
  H41      1.0000 0.79930  0.45230  0.91160  Biso   1.000  H
  H42      1.0000 0.20070  0.95230  0.58840  Biso   1.000  H
  H43      1.0000 0.20070  0.54770  0.08840  Biso   1.000  H
  H44      1.0000 0.79930  0.04770  0.41160  Biso   1.000  H
  C37      1.0000 0.89500  0.41900  0.00510  Biso   1.000  C
  C38      1.0000 0.10500  0.91900  0.49490  Biso   1.000  C
  C39      1.0000 0.10500  0.58100  0.99490  Biso   1.000  C
  C40      1.0000 0.89500  0.08100  0.50510  Biso   1.000  C
  H45      1.0000 0.86960  0.40560  0.04050  Biso   1.000  H
  H46      1.0000 0.13040  0.90560  0.45950  Biso   1.000  H
  H47      1.0000 0.13040  0.59440  0.95950  Biso   1.000  H
  H48      1.0000 0.86960  0.09440  0.54050  Biso   1.000  H
  C41      1.0000 0.97410  0.41158  0.03020  Biso   1.000  C
  C42      1.0000 0.02590  0.91158  0.46980  Biso   1.000  C
  C43      1.0000 0.02590  0.58842  0.96980  Biso   1.000  C
  C44      1.0000 0.97410  0.08842  0.53020  Biso   1.000  C
  H49      1.0000 0.00400  0.39450  0.08390  Biso   1.000  H
  H50      1.0000 0.99600  0.89450  0.41610  Biso   1.000  H
  H51      1.0000 0.99600  0.60550  0.91610  Biso   1.000  H
  H52      1.0000 0.00400  0.10550  0.58390  Biso   1.000  H
  C45      1.0000 0.00900  0.42930  0.97590  Biso   1.000  C
  C46      1.0000 0.99100  0.92930  0.52410  Biso   1.000  C
  C47      1.0000 0.99100  0.57070  0.02410  Biso   1.000  C
  C48      1.0000 0.00900  0.07070  0.47590  Biso   1.000  C
  H53      1.0000 0.06330  0.42430  0.99210  Biso   1.000  H
  H54      1.0000 0.93670  0.92430  0.50790  Biso   1.000  H
  H55      1.0000 0.93670  0.57570  0.00790  Biso   1.000  H
  H56      1.0000 0.06330  0.07570  0.49210  Biso   1.000  H
  C49      1.0000 0.87280  0.51453  0.63700  Biso   1.000  C
  C50      1.0000 0.12720  0.01453  0.86300  Biso   1.000  C
  C51      1.0000 0.12720  0.48547  0.36300  Biso   1.000  C
  C52      1.0000 0.87280  0.98547  0.13700  Biso   1.000  C
  H57      1.0000 0.88140  0.49260  0.59100  Biso   1.000  H
  H58      1.0000 0.11860  0.99260  0.90900  Biso   1.000  H
  H59      1.0000 0.11860  0.50740  0.40900  Biso   1.000  H
  H60      1.0000 0.88140  0.00740  0.09100  Biso   1.000  H
  H61      1.0000 0.82890  0.54220  0.60940  Biso   1.000  H
  H62      1.0000 0.17110  0.04220  0.89060  Biso   1.000  H
  H63      1.0000 0.17110  0.45780  0.39060  Biso   1.000  H
  H64      1.0000 0.82890  0.95780  0.10940  Biso   1.000  H
  C53      1.0000 0.94310  0.55138  0.68250  Biso   1.000  C
  C54      1.0000 0.05690  0.05138  0.81750  Biso   1.000  C
  C55      1.0000 0.05690  0.44862  0.31750  Biso   1.000  C
  C56      1.0000 0.94310  0.94862  0.18250  Biso   1.000  C
  C57      1.0000 0.94050  0.61202  0.69750  Biso   1.000  C
  C58      1.0000 0.05950  0.11202  0.80250  Biso   1.000  C
  C59      1.0000 0.05950  0.38798  0.30250  Biso   1.000  C
  C60      1.0000 0.94050  0.88798  0.19750  Biso   1.000  C
  H65      1.0000 0.89180  0.63180  0.67910  Biso   1.000  H
  H66      1.0000 0.10820  0.13180  0.82090  Biso   1.000  H
  H67      1.0000 0.10820  0.36820  0.32090  Biso   1.000  H
  H68      1.0000 0.89180  0.86820  0.17910  Biso   1.000  H
  C61      1.0000 0.00790  0.64400  0.73890  Biso   1.000  C
  C62      1.0000 0.99210  0.14400  0.76110  Biso   1.000  C
  C63      1.0000 0.99210  0.35600  0.26110  Biso   1.000  C
  C64      1.0000 0.00790  0.85600  0.23890  Biso   1.000  C
  H69      1.0000 0.00550  0.68570  0.74820  Biso   1.000  H
  H70      1.0000 0.99450  0.18570  0.75180  Biso   1.000  H
  H71      1.0000 0.99450  0.31430  0.25180  Biso   1.000  H
  H72      1.0000 0.00550  0.81430  0.24820  Biso   1.000  H
  C65      1.0000 0.07830  0.61540  0.76660  Biso   1.000  C
  C66      1.0000 0.92170  0.11540  0.73340  Biso   1.000  C
  C67      1.0000 0.92170  0.38460  0.23340  Biso   1.000  C
  C68      1.0000 0.07830  0.88460  0.26660  Biso   1.000  C
  H73      1.0000 0.12500  0.63670  0.79580  Biso   1.000  H
  H74      1.0000 0.87500  0.13670  0.70420  Biso   1.000  H
  H75      1.0000 0.87500  0.36330  0.20420  Biso   1.000  H
  H76      1.0000 0.12500  0.86330  0.29580  Biso   1.000  H
  C69      1.0000 0.07970  0.55534  0.75130  Biso   1.000  C
  C70      1.0000 0.92030  0.05534  0.74870  Biso   1.000  C
  C71      1.0000 0.92030  0.44466  0.24870  Biso   1.000  C
  C72      1.0000 0.07970  0.94466  0.25130  Biso   1.000  C
  H77      1.0000 0.12800  0.53500  0.76990  Biso   1.000  H
  H78      1.0000 0.87200  0.03500  0.73010  Biso   1.000  H
  H79      1.0000 0.87200  0.46500  0.23010  Biso   1.000  H
  H80      1.0000 0.12800  0.96500  0.26990  Biso   1.000  H
  C73      1.0000 0.95320  0.18403  0.35900  Biso   1.000  C
  C74      1.0000 0.04680  0.68403  0.14100  Biso   1.000  C
  C75      1.0000 0.04680  0.81597  0.64100  Biso   1.000  C
  C76      1.0000 0.95320  0.31597  0.85900  Biso   1.000  C
  H81      1.0000 0.90460  0.17220  0.31720  Biso   1.000  H
  H82      1.0000 0.09540  0.67220  0.18280  Biso   1.000  H
  H83      1.0000 0.09540  0.82780  0.68280  Biso   1.000  H
  H84      1.0000 0.90460  0.32780  0.81720  Biso   1.000  H
  C77      1.0000 0.95410  0.22180  0.42230  Biso   1.000  C
  C78      1.0000 0.04590  0.72180  0.07770  Biso   1.000  C
  C79      1.0000 0.04590  0.77820  0.57770  Biso   1.000  C
  C80      1.0000 0.95410  0.27820  0.92230  Biso   1.000  C
  H85      1.0000 0.90680  0.23540  0.42420  Biso   1.000  H
  H86      1.0000 0.09320  0.73540  0.07580  Biso   1.000  H
  H87      1.0000 0.09320  0.76460  0.57580  Biso   1.000  H
  H88      1.0000 0.90680  0.26460  0.92420  Biso   1.000  H
  C81      1.0000 0.02440  0.24026  0.48380  Biso   1.000  C
  C82      1.0000 0.97560  0.74026  0.01620  Biso   1.000  C
  C83      1.0000 0.97560  0.75974  0.51620  Biso   1.000  C
  C84      1.0000 0.02440  0.25974  0.98380  Biso   1.000  C
  C85      1.0000 0.09230  0.22149  0.47450  Biso   1.000  C
  C86      1.0000 0.90770  0.72149  0.02550  Biso   1.000  C
  C87      1.0000 0.90770  0.77851  0.52550  Biso   1.000  C
  C88      1.0000 0.09230  0.27851  0.97450  Biso   1.000  C
  H89      1.0000 0.14160  0.23520  0.51270  Biso   1.000  H
  H90      1.0000 0.85840  0.73520  0.98730  Biso   1.000  H
  H91      1.0000 0.85840  0.76480  0.48730  Biso   1.000  H
  H92      1.0000 0.14160  0.26480  0.01270  Biso   1.000  H
  C89      1.0000 0.08660  0.18325  0.40980  Biso   1.000  C
  C90      1.0000 0.91340  0.68325  0.09020  Biso   1.000  C
  C91      1.0000 0.91340  0.81675  0.59020  Biso   1.000  C
  C92      1.0000 0.08660  0.31675  0.90980  Biso   1.000  C
  H93      1.0000 0.13290  0.17060  0.40450  Biso   1.000  H
  H94      1.0000 0.86710  0.67060  0.09550  Biso   1.000  H
  H95      1.0000 0.86710  0.82940  0.59550  Biso   1.000  H
  H96      1.0000 0.13290  0.32940  0.90450  Biso   1.000  H
  C93      1.0000 0.97310  0.30603  0.65730  Biso   1.000  C
  C94      1.0000 0.02690  0.80603  0.84270  Biso   1.000  C
  C95      1.0000 0.02690  0.69397  0.34270  Biso   1.000  C
  C96      1.0000 0.97310  0.19397  0.15730  Biso   1.000  C
  H97      1.0000 0.93470  0.30070  0.68020  Biso   1.000  H
  H98      1.0000 0.06530  0.80070  0.81980  Biso   1.000  H
  H99      1.0000 0.06530  0.69930  0.31980  Biso   1.000  H
  H100     1.0000 0.93470  0.19930  0.18020  Biso   1.000  H
  C97      1.0000 0.97120  0.27012  0.59100  Biso   1.000  C
  C98      1.0000 0.02880  0.77012  0.90900  Biso   1.000  C
  C99      1.0000 0.02880  0.72988  0.40900  Biso   1.000  C
  C100     1.0000 0.97120  0.22988  0.09100  Biso   1.000  C
  H101     1.0000 0.93180  0.24080  0.56860  Biso   1.000  H
  H102     1.0000 0.06820  0.74080  0.93140  Biso   1.000  H
  H103     1.0000 0.06820  0.75920  0.43140  Biso   1.000  H
  H104     1.0000 0.93180  0.25920  0.06860  Biso   1.000  H
  C101     1.0000 0.02730  0.27711  0.55710  Biso   1.000  C
  C102     1.0000 0.97270  0.77711  0.94290  Biso   1.000  C
  C103     1.0000 0.97270  0.72289  0.44290  Biso   1.000  C
  C104     1.0000 0.02730  0.22289  0.05710  Biso   1.000  C
  C105     1.0000 0.08390  0.31985  0.59310  Biso   1.000  C
  C106     1.0000 0.91610  0.81985  0.90690  Biso   1.000  C
  C107     1.0000 0.91610  0.68015  0.40690  Biso   1.000  C
  C108     1.0000 0.08390  0.18015  0.09310  Biso   1.000  C
  H105     1.0000 0.12370  0.32550  0.57230  Biso   1.000  H
  H106     1.0000 0.87630  0.82550  0.92770  Biso   1.000  H
  H107     1.0000 0.87630  0.67450  0.42770  Biso   1.000  H
  H108     1.0000 0.12370  0.17450  0.07230  Biso   1.000  H
  C109     1.0000 0.08210  0.35432  0.65950  Biso   1.000  C
  C110     1.0000 0.91790  0.85432  0.84050  Biso   1.000  C
  C111     1.0000 0.91790  0.64568  0.34050  Biso   1.000  C
  C112     1.0000 0.08210  0.14568  0.15950  Biso   1.000  C
  H109     1.0000 0.12150  0.38340  0.68400  Biso   1.000  H
  H110     1.0000 0.87850  0.88340  0.81600  Biso   1.000  H
  H111     1.0000 0.87850  0.61660  0.31600  Biso   1.000  H
  H112     1.0000 0.12150  0.11660  0.18400  Biso   1.000  H
  C113     1.0000 0.74520  0.44718  0.36000  Biso   1.000  C
  C114     1.0000 0.25480  0.94718  0.14000  Biso   1.000  C
  C115     1.0000 0.25480  0.55282  0.64000  Biso   1.000  C
  C116     1.0000 0.74520  0.05282  0.86000  Biso   1.000  C
  C117     1.0000 0.80120  0.49120  0.37300  Biso   1.000  C
  C118     1.0000 0.19880  0.99120  0.12700  Biso   1.000  C
  C119     1.0000 0.19880  0.50880  0.62700  Biso   1.000  C
  C120     1.0000 0.80120  0.00880  0.87300  Biso   1.000  C
  H113     1.0000 0.78650  0.52970  0.34870  Biso   1.000  H
  H114     1.0000 0.21350  0.02970  0.15130  Biso   1.000  H
  H115     1.0000 0.21350  0.47030  0.65130  Biso   1.000  H
  H116     1.0000 0.78650  0.97030  0.84870  Biso   1.000  H
  C121     1.0000 0.87770  0.47890  0.42100  Biso   1.000  C
  C122     1.0000 0.12230  0.97890  0.07900  Biso   1.000  C
  C123     1.0000 0.12230  0.52110  0.57900  Biso   1.000  C
  C124     1.0000 0.87770  0.02110  0.92100  Biso   1.000  C
  H117     1.0000 0.91580  0.50900  0.42950  Biso   1.000  H
  H118     1.0000 0.08420  0.00900  0.07050  Biso   1.000  H
  H119     1.0000 0.08420  0.49100  0.57050  Biso   1.000  H
  H120     1.0000 0.91580  0.99100  0.92950  Biso   1.000  H
  C125     1.0000 0.89940  0.42340  0.45670  Biso   1.000  C
  C126     1.0000 0.10060  0.92340  0.04330  Biso   1.000  C
  C127     1.0000 0.10060  0.57660  0.54330  Biso   1.000  C
  C128     1.0000 0.89940  0.07660  0.95670  Biso   1.000  C
  H121     1.0000 0.95240  0.41540  0.49000  Biso   1.000  H
  H122     1.0000 0.04760  0.91540  0.01000  Biso   1.000  H
  H123     1.0000 0.04760  0.58460  0.51000  Biso   1.000  H
  H124     1.0000 0.95240  0.08460  0.99000  Biso   1.000  H
  C129     1.0000 0.84480  0.37950  0.44440  Biso   1.000  C
  C130     1.0000 0.15520  0.87950  0.05560  Biso   1.000  C
  C131     1.0000 0.15520  0.62050  0.55560  Biso   1.000  C
  C132     1.0000 0.84480  0.12050  0.94440  Biso   1.000  C
  H125     1.0000 0.86030  0.34120  0.46910  Biso   1.000  H
  H126     1.0000 0.13970  0.84120  0.03090  Biso   1.000  H
  H127     1.0000 0.13970  0.65880  0.53090  Biso   1.000  H
  H128     1.0000 0.86030  0.15880  0.96910  Biso   1.000  H
  C133     1.0000 0.76820  0.39066  0.39670  Biso   1.000  C
  C134     1.0000 0.23180  0.89066  0.10330  Biso   1.000  C
  C135     1.0000 0.23180  0.60934  0.60330  Biso   1.000  C
  C136     1.0000 0.76820  0.10934  0.89670  Biso   1.000  C
  H129     1.0000 0.73070  0.36010  0.38850  Biso   1.000  H
  H130     1.0000 0.26930  0.86010  0.11150  Biso   1.000  H
  H131     1.0000 0.26930  0.63990  0.61150  Biso   1.000  H
  H132     1.0000 0.73070  0.13990  0.88850  Biso   1.000  H
  C137     1.0000 0.63590  0.49660  0.20070  Biso   1.000  C
  C138     1.0000 0.36410  0.99660  0.29930  Biso   1.000  C
  C139     1.0000 0.36410  0.50340  0.79930  Biso   1.000  C
  C140     1.0000 0.63590  0.00340  0.70070  Biso   1.000  C
  H133     1.0000 0.60820  0.53490  0.19630  Biso   1.000  H
  H134     1.0000 0.39180  0.03490  0.30370  Biso   1.000  H
  H135     1.0000 0.39180  0.46510  0.80370  Biso   1.000  H
  H136     1.0000 0.60820  0.96510  0.69630  Biso   1.000  H
  H137     1.0000 0.68860  0.50590  0.20380  Biso   1.000  H
  H138     1.0000 0.31140  0.00590  0.29620  Biso   1.000  H
  H139     1.0000 0.31140  0.49410  0.79620  Biso   1.000  H
  H140     1.0000 0.68860  0.99410  0.70380  Biso   1.000  H
  C141     1.0000 0.59430  0.46080  0.12180  Biso   1.000  C
  C142     1.0000 0.40570  0.96080  0.37820  Biso   1.000  C
  C143     1.0000 0.40570  0.53920  0.87820  Biso   1.000  C
  C144     1.0000 0.59430  0.03920  0.62180  Biso   1.000  C
  C145     1.0000 0.62960  0.43870  0.06960  Biso   1.000  C
  C146     1.0000 0.37040  0.93870  0.43040  Biso   1.000  C
  C147     1.0000 0.37040  0.56130  0.93040  Biso   1.000  C
  C148     1.0000 0.62960  0.06130  0.56960  Biso   1.000  C
  H141     1.0000 0.68410  0.44240  0.08640  Biso   1.000  H
  H142     1.0000 0.31590  0.94240  0.41360  Biso   1.000  H
  H143     1.0000 0.31590  0.55760  0.91360  Biso   1.000  H
  H144     1.0000 0.68410  0.05760  0.58640  Biso   1.000  H
  C149     1.0000 0.58610  0.41148  0.99340  Biso   1.000  C
  C150     1.0000 0.41390  0.91148  0.50660  Biso   1.000  C
  C151     1.0000 0.41390  0.58852  0.00660  Biso   1.000  C
  C152     1.0000 0.58610  0.08852  0.49340  Biso   1.000  C
  H145     1.0000 0.61060  0.39600  0.95830  Biso   1.000  H
  H146     1.0000 0.38940  0.89600  0.54170  Biso   1.000  H
  H147     1.0000 0.38940  0.60400  0.04170  Biso   1.000  H
  H148     1.0000 0.61060  0.10400  0.45830  Biso   1.000  H
  C153     1.0000 0.50740  0.40674  0.96860  Biso   1.000  C
  C154     1.0000 0.49260  0.90674  0.53140  Biso   1.000  C
  C155     1.0000 0.49260  0.59326  0.03140  Biso   1.000  C
  C156     1.0000 0.50740  0.09326  0.46860  Biso   1.000  C
  H149     1.0000 0.47670  0.38920  0.91540  Biso   1.000  H
  H150     1.0000 0.52330  0.88920  0.58460  Biso   1.000  H
  H151     1.0000 0.52330  0.61080  0.08460  Biso   1.000  H
  H152     1.0000 0.47670  0.11080  0.41540  Biso   1.000  H
  C157     1.0000 0.47340  0.42759  0.02140  Biso   1.000  C
  C158     1.0000 0.52660  0.92759  0.47860  Biso   1.000  C
  C159     1.0000 0.52660  0.57241  0.97860  Biso   1.000  C
  C160     1.0000 0.47340  0.07241  0.52140  Biso   1.000  C
  H153     1.0000 0.41880  0.42470  0.00470  Biso   1.000  H
  H154     1.0000 0.58120  0.92470  0.49530  Biso   1.000  H
  H155     1.0000 0.58120  0.57530  0.99530  Biso   1.000  H
  H156     1.0000 0.41880  0.07530  0.50470  Biso   1.000  H
  C161     1.0000 0.61540  0.51441  0.36050  Biso   1.000  C
  C162     1.0000 0.38460  0.01441  0.13950  Biso   1.000  C
  C163     1.0000 0.38460  0.48559  0.63950  Biso   1.000  C
  C164     1.0000 0.61540  0.98559  0.86050  Biso   1.000  C
  H157     1.0000 0.60680  0.49300  0.40690  Biso   1.000  H
  H158     1.0000 0.39320  0.99300  0.09310  Biso   1.000  H
  H159     1.0000 0.39320  0.50700  0.59310  Biso   1.000  H
  H160     1.0000 0.60680  0.00700  0.90690  Biso   1.000  H
  H161     1.0000 0.65970  0.54180  0.38750  Biso   1.000  H
  H162     1.0000 0.34030  0.04180  0.11250  Biso   1.000  H
  H163     1.0000 0.34030  0.45820  0.61250  Biso   1.000  H
  H164     1.0000 0.65970  0.95820  0.88750  Biso   1.000  H
  C165     1.0000 0.54560  0.55146  0.31490  Biso   1.000  C
  C166     1.0000 0.45440  0.05146  0.18510  Biso   1.000  C
  C167     1.0000 0.45440  0.44854  0.68510  Biso   1.000  C
  C168     1.0000 0.54560  0.94854  0.81490  Biso   1.000  C
  C169     1.0000 0.54840  0.61180  0.29910  Biso   1.000  C
  C170     1.0000 0.45160  0.11180  0.20090  Biso   1.000  C
  C171     1.0000 0.45160  0.38820  0.70090  Biso   1.000  C
  C172     1.0000 0.54840  0.88820  0.79910  Biso   1.000  C
  H165     1.0000 0.59700  0.63160  0.31740  Biso   1.000  H
  H166     1.0000 0.40300  0.13160  0.18260  Biso   1.000  H
  H167     1.0000 0.40300  0.36840  0.68260  Biso   1.000  H
  H168     1.0000 0.59700  0.86840  0.81740  Biso   1.000  H
  C173     1.0000 0.48080  0.64370  0.25670  Biso   1.000  C
  C174     1.0000 0.51920  0.14370  0.24330  Biso   1.000  C
  C175     1.0000 0.51920  0.35630  0.74330  Biso   1.000  C
  C176     1.0000 0.48080  0.85630  0.75670  Biso   1.000  C
  H169     1.0000 0.48310  0.68510  0.24550  Biso   1.000  H
  H170     1.0000 0.51690  0.18510  0.25450  Biso   1.000  H
  H171     1.0000 0.51690  0.31490  0.75450  Biso   1.000  H
  H172     1.0000 0.48310  0.81490  0.74550  Biso   1.000  H
  C177     1.0000 0.41110  0.61510  0.23120  Biso   1.000  C
  C178     1.0000 0.58890  0.11510  0.26880  Biso   1.000  C
  C179     1.0000 0.58890  0.38490  0.76880  Biso   1.000  C
  C180     1.0000 0.41110  0.88490  0.73120  Biso   1.000  C
  H173     1.0000 0.36440  0.63660  0.20240  Biso   1.000  H
  H174     1.0000 0.63560  0.13660  0.29760  Biso   1.000  H
  H175     1.0000 0.63560  0.36340  0.79760  Biso   1.000  H
  H176     1.0000 0.36440  0.86340  0.70240  Biso   1.000  H
  C181     1.0000 0.40870  0.55521  0.24740  Biso   1.000  C
  C182     1.0000 0.59130  0.05521  0.25260  Biso   1.000  C
  C183     1.0000 0.59130  0.44479  0.75260  Biso   1.000  C
  C184     1.0000 0.40870  0.94479  0.74740  Biso   1.000  C
  H177     1.0000 0.36040  0.53490  0.22900  Biso   1.000  H
  H178     1.0000 0.63960  0.03490  0.27100  Biso   1.000  H
  H179     1.0000 0.63960  0.46510  0.77100  Biso   1.000  H
  H180     1.0000 0.36040  0.96510  0.72900  Biso   1.000  H
  C185     1.0000 0.52840  0.18484  0.64180  Biso   1.000  C
  C186     1.0000 0.47160  0.68484  0.85820  Biso   1.000  C
  C187     1.0000 0.47160  0.81516  0.35820  Biso   1.000  C
  C188     1.0000 0.52840  0.31516  0.14180  Biso   1.000  C
  H181     1.0000 0.57690  0.17300  0.68370  Biso   1.000  H
  H182     1.0000 0.42310  0.67300  0.81630  Biso   1.000  H
  H183     1.0000 0.42310  0.82700  0.31630  Biso   1.000  H
  H184     1.0000 0.57690  0.32700  0.18370  Biso   1.000  H
  C189     1.0000 0.52740  0.22384  0.57940  Biso   1.000  C
  C190     1.0000 0.47260  0.72384  0.92060  Biso   1.000  C
  C191     1.0000 0.47260  0.77616  0.42060  Biso   1.000  C
  C192     1.0000 0.52740  0.27616  0.07940  Biso   1.000  C
  H185     1.0000 0.57480  0.23850  0.57880  Biso   1.000  H
  H186     1.0000 0.42520  0.73850  0.92120  Biso   1.000  H
  H187     1.0000 0.42520  0.76150  0.42120  Biso   1.000  H
  H188     1.0000 0.57480  0.26150  0.07880  Biso   1.000  H
  C193     1.0000 0.45800  0.24182  0.51730  Biso   1.000  C
  C194     1.0000 0.54200  0.74182  0.98270  Biso   1.000  C
  C195     1.0000 0.54200  0.75818  0.48270  Biso   1.000  C
  C196     1.0000 0.45800  0.25818  0.01730  Biso   1.000  C
  C197     1.0000 0.39050  0.22185  0.52440  Biso   1.000  C
  C198     1.0000 0.60950  0.72185  0.97560  Biso   1.000  C
  C199     1.0000 0.60950  0.77815  0.47560  Biso   1.000  C
  C200     1.0000 0.39050  0.27815  0.02440  Biso   1.000  C
  H189     1.0000 0.34130  0.23470  0.48490  Biso   1.000  H
  H190     1.0000 0.65870  0.73470  0.01510  Biso   1.000  H
  H191     1.0000 0.65870  0.76530  0.51510  Biso   1.000  H
  H192     1.0000 0.34130  0.26530  0.98490  Biso   1.000  H
  C201     1.0000 0.39540  0.18314  0.58930  Biso   1.000  C
  C202     1.0000 0.60460  0.68314  0.91070  Biso   1.000  C
  C203     1.0000 0.60460  0.81686  0.41070  Biso   1.000  C
  C204     1.0000 0.39540  0.31686  0.08930  Biso   1.000  C
  H193     1.0000 0.34880  0.17040  0.59400  Biso   1.000  H
  H194     1.0000 0.65120  0.67040  0.90600  Biso   1.000  H
  H195     1.0000 0.65120  0.82960  0.40600  Biso   1.000  H
  H196     1.0000 0.34880  0.32960  0.09400  Biso   1.000  H
  C205     1.0000 0.51220  0.30803  0.34640  Biso   1.000  C
  C206     1.0000 0.48780  0.80803  0.15360  Biso   1.000  C
  C207     1.0000 0.48780  0.69197  0.65360  Biso   1.000  C
  C208     1.0000 0.51220  0.19197  0.84640  Biso   1.000  C
  H197     1.0000 0.55150  0.30300  0.32480  Biso   1.000  H
  H198     1.0000 0.44850  0.80300  0.17520  Biso   1.000  H
  H199     1.0000 0.44850  0.69700  0.67520  Biso   1.000  H
  H200     1.0000 0.55150  0.19700  0.82480  Biso   1.000  H
  C209     1.0000 0.51330  0.27214  0.41220  Biso   1.000  C
  C210     1.0000 0.48670  0.77214  0.08780  Biso   1.000  C
  C211     1.0000 0.48670  0.72786  0.58780  Biso   1.000  C
  C212     1.0000 0.51330  0.22786  0.91220  Biso   1.000  C
  H201     1.0000 0.55270  0.24290  0.43520  Biso   1.000  H
  H202     1.0000 0.44730  0.74290  0.06480  Biso   1.000  H
  H203     1.0000 0.44730  0.75710  0.56480  Biso   1.000  H
  H204     1.0000 0.55270  0.25710  0.93520  Biso   1.000  H
  C213     1.0000 0.45580  0.27902  0.44510  Biso   1.000  C
  C214     1.0000 0.54420  0.77902  0.05490  Biso   1.000  C
  C215     1.0000 0.54420  0.72098  0.55490  Biso   1.000  C
  C216     1.0000 0.45580  0.22098  0.94510  Biso   1.000  C
  C217     1.0000 0.39910  0.32195  0.40780  Biso   1.000  C
  C218     1.0000 0.60090  0.82195  0.09220  Biso   1.000  C
  C219     1.0000 0.60090  0.67805  0.59220  Biso   1.000  C
  C220     1.0000 0.39910  0.17805  0.90780  Biso   1.000  C
  H205     1.0000 0.35860  0.32750  0.42750  Biso   1.000  H
  H206     1.0000 0.64140  0.82750  0.07250  Biso   1.000  H
  H207     1.0000 0.64140  0.67250  0.57250  Biso   1.000  H
  H208     1.0000 0.35860  0.17250  0.92750  Biso   1.000  H
  C221     1.0000 0.40170  0.35639  0.34210  Biso   1.000  C
  C222     1.0000 0.59830  0.85639  0.15790  Biso   1.000  C
  C223     1.0000 0.59830  0.64361  0.65790  Biso   1.000  C
  C224     1.0000 0.40170  0.14361  0.84210  Biso   1.000  C
  H209     1.0000 0.36280  0.38580  0.31750  Biso   1.000  H
  H210     1.0000 0.63720  0.88580  0.18250  Biso   1.000  H
  H211     1.0000 0.63720  0.61420  0.68250  Biso   1.000  H
  H212     1.0000 0.36280  0.11420  0.81750  Biso   1.000  H
  C225     1.0000 0.76260  0.23400  0.72670  Biso   1.000  C
  C226     1.0000 0.23740  0.73400  0.77330  Biso   1.000  C
  C227     1.0000 0.23740  0.76600  0.27330  Biso   1.000  C
  C228     1.0000 0.76260  0.26600  0.22670  Biso   1.000  C
  H213     1.0000 0.79320  0.23140  0.78790  Biso   1.000  H
  H214     1.0000 0.20680  0.73140  0.71210  Biso   1.000  H
  H215     1.0000 0.20680  0.76860  0.21210  Biso   1.000  H
  H216     1.0000 0.79320  0.26860  0.28790  Biso   1.000  H
  H217     1.0000 0.73170  0.19760  0.70740  Biso   1.000  H
  H218     1.0000 0.26830  0.69760  0.79260  Biso   1.000  H
  H219     1.0000 0.26830  0.80240  0.29260  Biso   1.000  H
  H220     1.0000 0.73170  0.30240  0.20740  Biso   1.000  H
  H221     1.0000 0.72800  0.26870  0.71500  Biso   1.000  H
  H222     1.0000 0.27200  0.76870  0.78500  Biso   1.000  H
  H223     1.0000 0.27200  0.73130  0.28500  Biso   1.000  H
  H224     1.0000 0.72800  0.23130  0.21500  Biso   1.000  H
  B1       1.0000 0.21690  0.44870  0.92370  Biso   1.000  B
  B2       1.0000 0.78310  0.94870  0.57630  Biso   1.000  B
  B3       1.0000 0.78310  0.55130  0.07630  Biso   1.000  B
  B4       1.0000 0.21690  0.05130  0.42370  Biso   1.000  B
  B5       1.0000 0.72190  0.21420  0.45430  Biso   1.000  B
  B6       1.0000 0.27810  0.71420  0.04570  Biso   1.000  B
  B7       1.0000 0.27810  0.78580  0.54570  Biso   1.000  B
  B8       1.0000 0.72190  0.28580  0.95430  Biso   1.000  B
  F1       1.0000 0.16970  0.42175  0.85070  Biso   1.000  F
  F2       1.0000 0.83030  0.92175  0.64930  Biso   1.000  F
  F3       1.0000 0.83030  0.57825  0.14930  Biso   1.000  F
  F4       1.0000 0.16970  0.07825  0.35070  Biso   1.000  F
  F5       1.0000 0.18540  0.43570  0.98380  Biso   1.000  F
  F6       1.0000 0.81460  0.93570  0.51620  Biso   1.000  F
  F7       1.0000 0.81460  0.56430  0.01620  Biso   1.000  F
  F8       1.0000 0.18540  0.06430  0.48380  Biso   1.000  F
  F9       1.0000 0.29114  0.43501  0.95670  Biso   1.000  F
  F10      1.0000 0.70886  0.93501  0.54330  Biso   1.000  F
  F11      1.0000 0.70886  0.56499  0.04330  Biso   1.000  F
  F12      1.0000 0.29114  0.06499  0.45670  Biso   1.000  F
  F13      1.0000 0.20941  0.51138  0.91330  Biso   1.000  F
  F14      1.0000 0.79059  0.01138  0.58670  Biso   1.000  F
  F15      1.0000 0.79059  0.48862  0.08670  Biso   1.000  F
  F16      1.0000 0.20941  0.98862  0.41330  Biso   1.000  F
  F17      1.0000 0.69368  0.22528  0.51780  Biso   1.000  F
  F18      1.0000 0.30632  0.72528  0.98220  Biso   1.000  F
  F19      1.0000 0.30632  0.77472  0.48220  Biso   1.000  F
  F20      1.0000 0.69368  0.27472  0.01780  Biso   1.000  F
  F21      1.0000 0.72906  0.15331  0.44740  Biso   1.000  F
  F22      1.0000 0.27094  0.65331  0.05260  Biso   1.000  F
  F23      1.0000 0.27094  0.84669  0.55260  Biso   1.000  F
  F24      1.0000 0.72906  0.34669  0.94740  Biso   1.000  F
  F25      1.0000 0.67044  0.23712  0.37670  Biso   1.000  F
  F26      1.0000 0.32956  0.73712  0.12330  Biso   1.000  F
  F27      1.0000 0.32956  0.76288  0.62330  Biso   1.000  F
  F28      1.0000 0.67044  0.26288  0.87670  Biso   1.000  F
  F29      1.0000 0.79278  0.23999  0.47530  Biso   1.000  F
  F30      1.0000 0.20722  0.73999  0.02470  Biso   1.000  F
  F31      1.0000 0.20722  0.76001  0.52470  Biso   1.000  F
  F32      1.0000 0.79278  0.26001  0.97530  Biso   1.000  F
  B9       1.0000 0.19090  0.33850  0.21050  Biso   1.000  B
  B10      1.0000 0.80910  0.83850  0.28950  Biso   1.000  B
  B11      1.0000 0.80910  0.66150  0.78950  Biso   1.000  B
  B12      1.0000 0.19090  0.16150  0.71050  Biso   1.000  B
  F33      1.0000 0.22080  0.38170  0.27250  Biso   1.000  F
  F34      1.0000 0.77920  0.88170  0.22750  Biso   1.000  F
  F35      1.0000 0.77920  0.61830  0.72750  Biso   1.000  F
  F36      1.0000 0.22080  0.11830  0.77250  Biso   1.000  F
  F37      1.0000 0.11930  0.35430  0.15590  Biso   1.000  F
  F38      1.0000 0.88070  0.85430  0.34410  Biso   1.000  F
  F39      1.0000 0.88070  0.64570  0.84410  Biso   1.000  F
  F40      1.0000 0.11930  0.14570  0.65590  Biso   1.000  F
  F41      1.0000 0.24290  0.32970  0.16830  Biso   1.000  F
  F42      1.0000 0.75710  0.82970  0.33170  Biso   1.000  F
  F43      1.0000 0.75710  0.67030  0.83170  Biso   1.000  F
  F44      1.0000 0.24290  0.17030  0.66830  Biso   1.000  F
  F45      1.0000 0.18410  0.28530  0.24580  Biso   1.000  F
  F46      1.0000 0.81590  0.78530  0.25420  Biso   1.000  F
  F47      1.0000 0.81590  0.71470  0.75420  Biso   1.000  F
  F48      1.0000 0.18410  0.21470  0.74580  Biso   1.000  F
  B13      1.0000 0.24590  0.35990  0.52330  Biso   1.000  B
  B14      1.0000 0.75410  0.85990  0.97670  Biso   1.000  B
  B15      1.0000 0.75410  0.64010  0.47670  Biso   1.000  B
  B16      1.0000 0.24590  0.14010  0.02330  Biso   1.000  B
  F49      1.0000 0.28630  0.39520  0.48790  Biso   1.000  F
  F50      1.0000 0.71370  0.89520  0.01210  Biso   1.000  F
  F51      1.0000 0.71370  0.60480  0.51210  Biso   1.000  F
  F52      1.0000 0.28630  0.10480  0.98790  Biso   1.000  F
  F53      1.0000 0.25930  0.37530  0.60580  Biso   1.000  F
  F54      1.0000 0.74070  0.87530  0.89420  Biso   1.000  F
  F55      1.0000 0.74070  0.62470  0.39420  Biso   1.000  F
  F56      1.0000 0.25930  0.12470  0.10580  Biso   1.000  F
  F57      1.0000 0.25590  0.30000  0.52040  Biso   1.000  F
  F58      1.0000 0.74410  0.80000  0.97960  Biso   1.000  F
  F59      1.0000 0.74410  0.70000  0.47960  Biso   1.000  F
  F60      1.0000 0.25590  0.20000  0.02040  Biso   1.000  F
  F61      1.0000 0.16670  0.37190  0.47770  Biso   1.000  F
  F62      1.0000 0.83330  0.87190  0.02230  Biso   1.000  F
  F63      1.0000 0.83330  0.62810  0.52230  Biso   1.000  F
  F64      1.0000 0.16670  0.12810  0.97770  Biso   1.000  F
  B17      1.0000 0.19280  0.34570  0.18690  Biso   1.000  B
  B18      1.0000 0.80720  0.84570  0.31310  Biso   1.000  B
  B19      1.0000 0.80720  0.65430  0.81310  Biso   1.000  B
  B20      1.0000 0.19280  0.15430  0.68690  Biso   1.000  B
  B21      1.0000 0.24940  0.34610  0.50670  Biso   1.000  B
  B22      1.0000 0.75060  0.84610  0.99330  Biso   1.000  B
  B23      1.0000 0.75060  0.65390  0.49330  Biso   1.000  B
  B24      1.0000 0.24940  0.15390  0.00670  Biso   1.000  B
  F65      1.0000 0.22400  0.37200  0.26590  Biso   1.000  F
  F66      1.0000 0.77600  0.87200  0.23410  Biso   1.000  F
  F67      1.0000 0.77600  0.62800  0.73410  Biso   1.000  F
  F68      1.0000 0.22400  0.12800  0.76590  Biso   1.000  F
  F69      1.0000 0.12720  0.31670  0.17700  Biso   1.000  F
  F70      1.0000 0.87280  0.81670  0.32300  Biso   1.000  F
  F71      1.0000 0.87280  0.68330  0.82300  Biso   1.000  F
  F72      1.0000 0.12720  0.18330  0.67700  Biso   1.000  F
  F73      1.0000 0.17790  0.38750  0.12110  Biso   1.000  F
  F74      1.0000 0.82210  0.88750  0.37890  Biso   1.000  F
  F75      1.0000 0.82210  0.61250  0.87890  Biso   1.000  F
  F76      1.0000 0.17790  0.11250  0.62110  Biso   1.000  F
  F77      1.0000 0.23780  0.30060  0.17960  Biso   1.000  F
  F78      1.0000 0.76220  0.80060  0.32040  Biso   1.000  F
  F79      1.0000 0.76220  0.69940  0.82040  Biso   1.000  F
  F80      1.0000 0.23780  0.19940  0.67960  Biso   1.000  F
  F81      1.0000 0.31600  0.37670  0.51570  Biso   1.000  F
  F82      1.0000 0.68400  0.87670  0.98430  Biso   1.000  F
  F83      1.0000 0.68400  0.62330  0.48430  Biso   1.000  F
  F84      1.0000 0.31600  0.12330  0.01570  Biso   1.000  F
  F85      1.0000 0.27650  0.31780  0.58340  Biso   1.000  F
  F86      1.0000 0.72350  0.81780  0.91660  Biso   1.000  F
  F87      1.0000 0.72350  0.68220  0.41660  Biso   1.000  F
  F88      1.0000 0.27650  0.18220  0.08340  Biso   1.000  F
  F89      1.0000 0.22410  0.30760  0.44090  Biso   1.000  F
  F90      1.0000 0.77590  0.80760  0.05910  Biso   1.000  F
  F91      1.0000 0.77590  0.69240  0.55910  Biso   1.000  F
  F92      1.0000 0.22410  0.19240  0.94090  Biso   1.000  F
  F93      1.0000 0.19470  0.38530  0.51170  Biso   1.000  F
  F94      1.0000 0.80530  0.88530  0.98830  Biso   1.000  F
  F95      1.0000 0.80530  0.61470  0.48830  Biso   1.000  F
  F96      1.0000 0.19470  0.11470  0.01170  Biso   1.000  F
