data_image0
_cell_length_a       30.652
_cell_length_b       8.83
_cell_length_c       30.761
_cell_angle_alpha    90
_cell_angle_beta     108.628
_cell_angle_gamma    90

_symmetry_space_group_name_H-M    "P 1"
_symmetry_int_tables_number       1

loop_
  _symmetry_equiv_pos_as_xyz
  'x, y, z'

loop_
  _atom_site_label
  _atom_site_occupancy
  _atom_site_fract_x
  _atom_site_fract_y
  _atom_site_fract_z
  _atom_site_thermal_displace_type
  _atom_site_B_iso_or_equiv
  _atom_site_type_symbol
  Cu1      1.0000 0.18980  0.97638  0.24224  Biso   1.000  Cu
  Cu2      1.0000 0.81020  0.97638  0.25776  Biso   1.000  Cu
  Cu3      1.0000 0.68980  0.47638  0.24224  Biso   1.000  Cu
  Cu4      1.0000 0.31020  0.47638  0.25776  Biso   1.000  Cu
  Cu5      1.0000 0.81020  0.02362  0.75776  Biso   1.000  Cu
  Cu6      1.0000 0.18980  0.02362  0.74224  Biso   1.000  Cu
  Cu7      1.0000 0.31020  0.52362  0.75776  Biso   1.000  Cu
  Cu8      1.0000 0.68980  0.52362  0.74224  Biso   1.000  Cu
  S1       1.0000 0.22044  0.26787  0.20253  Biso   1.000  S
  S2       1.0000 0.77956  0.26787  0.29747  Biso   1.000  S
  S3       1.0000 0.72044  0.76787  0.20253  Biso   1.000  S
  S4       1.0000 0.27956  0.76787  0.29747  Biso   1.000  S
  S5       1.0000 0.77956  0.73213  0.79747  Biso   1.000  S
  S6       1.0000 0.22044  0.73213  0.70253  Biso   1.000  S
  S7       1.0000 0.27956  0.23213  0.79747  Biso   1.000  S
  S8       1.0000 0.72044  0.23213  0.70253  Biso   1.000  S
  O1       1.0000 0.18553  0.18450  0.21841  Biso   1.000  O
  O2       1.0000 0.81447  0.18450  0.28159  Biso   1.000  O
  O3       1.0000 0.68553  0.68450  0.21841  Biso   1.000  O
  O4       1.0000 0.31447  0.68450  0.28159  Biso   1.000  O
  O5       1.0000 0.81447  0.81550  0.78159  Biso   1.000  O
  O6       1.0000 0.18553  0.81550  0.71841  Biso   1.000  O
  O7       1.0000 0.31447  0.31550  0.78159  Biso   1.000  O
  O8       1.0000 0.68553  0.31550  0.71841  Biso   1.000  O
  O9       1.0000 0.19727  0.39760  0.17578  Biso   1.000  O
  O10      1.0000 0.80273  0.39760  0.32422  Biso   1.000  O
  O11      1.0000 0.69727  0.89760  0.17578  Biso   1.000  O
  O12      1.0000 0.30273  0.89760  0.32422  Biso   1.000  O
  O13      1.0000 0.80273  0.60240  0.82422  Biso   1.000  O
  O14      1.0000 0.19727  0.60240  0.67578  Biso   1.000  O
  O15      1.0000 0.30273  0.10240  0.82422  Biso   1.000  O
  O16      1.0000 0.69727  0.10240  0.67578  Biso   1.000  O
  Cl1      1.0000 0.93987  0.05390  0.30250  Biso   1.000  Cl
  Cl2      1.0000 0.06013  0.05390  0.19750  Biso   1.000  Cl
  Cl3      1.0000 0.43987  0.55390  0.30250  Biso   1.000  Cl
  Cl4      1.0000 0.56013  0.55390  0.19750  Biso   1.000  Cl
  Cl5      1.0000 0.06013  0.94610  0.69750  Biso   1.000  Cl
  Cl6      1.0000 0.93987  0.94610  0.80250  Biso   1.000  Cl
  Cl7      1.0000 0.56013  0.44610  0.69750  Biso   1.000  Cl
  Cl8      1.0000 0.43987  0.44610  0.80250  Biso   1.000  Cl
  Cl9      1.0000 0.87828  0.09480  0.03275  Biso   1.000  Cl
  Cl10     1.0000 0.12172  0.09480  0.46725  Biso   1.000  Cl
  Cl11     1.0000 0.37828  0.59480  0.03275  Biso   1.000  Cl
  Cl12     1.0000 0.62172  0.59480  0.46725  Biso   1.000  Cl
  Cl13     1.0000 0.12172  0.90520  0.96725  Biso   1.000  Cl
  Cl14     1.0000 0.87828  0.90520  0.53275  Biso   1.000  Cl
  Cl15     1.0000 0.62172  0.40520  0.96725  Biso   1.000  Cl
  Cl16     1.0000 0.37828  0.40520  0.53275  Biso   1.000  Cl
  O17      1.0000 0.10631  0.46530  0.12762  Biso   1.000  O
  O18      1.0000 0.89369  0.46530  0.37238  Biso   1.000  O
  O19      1.0000 0.60631  0.96530  0.12762  Biso   1.000  O
  O20      1.0000 0.39369  0.96530  0.37238  Biso   1.000  O
  O21      1.0000 0.89369  0.53470  0.87238  Biso   1.000  O
  O22      1.0000 0.10631  0.53470  0.62762  Biso   1.000  O
  O23      1.0000 0.39369  0.03470  0.87238  Biso   1.000  O
  O24      1.0000 0.60631  0.03470  0.62762  Biso   1.000  O
  H1       1.0000 0.13270  0.43420  0.13910  Biso   1.000  H
  H2       1.0000 0.86730  0.43420  0.36090  Biso   1.000  H
  H3       1.0000 0.63270  0.93420  0.13910  Biso   1.000  H
  H4       1.0000 0.36730  0.93420  0.36090  Biso   1.000  H
  H5       1.0000 0.86730  0.56580  0.86090  Biso   1.000  H
  H6       1.0000 0.13270  0.56580  0.63910  Biso   1.000  H
  H7       1.0000 0.36730  0.06580  0.86090  Biso   1.000  H
  H8       1.0000 0.63270  0.06580  0.63910  Biso   1.000  H
  O25      1.0000 0.14205  0.82600  0.25915  Biso   1.000  O
  O26      1.0000 0.85795  0.82600  0.24085  Biso   1.000  O
  O27      1.0000 0.64205  0.32600  0.25915  Biso   1.000  O
  O28      1.0000 0.35795  0.32600  0.24085  Biso   1.000  O
  O29      1.0000 0.85795  0.17400  0.74085  Biso   1.000  O
  O30      1.0000 0.14205  0.17400  0.75915  Biso   1.000  O
  O31      1.0000 0.35795  0.67400  0.74085  Biso   1.000  O
  O32      1.0000 0.64205  0.67400  0.75915  Biso   1.000  O
  N1       1.0000 0.15205  0.75530  0.11830  Biso   1.000  N
  N2       1.0000 0.84795  0.75530  0.38170  Biso   1.000  N
  N3       1.0000 0.65205  0.25530  0.11830  Biso   1.000  N
  N4       1.0000 0.34795  0.25530  0.38170  Biso   1.000  N
  N5       1.0000 0.84795  0.24470  0.88170  Biso   1.000  N
  N6       1.0000 0.15205  0.24470  0.61830  Biso   1.000  N
  N7       1.0000 0.34795  0.74470  0.88170  Biso   1.000  N
  N8       1.0000 0.65205  0.74470  0.61830  Biso   1.000  N
  N9       1.0000 0.16757  0.89920  0.17859  Biso   1.000  N
  N10      1.0000 0.83243  0.89920  0.32141  Biso   1.000  N
  N11      1.0000 0.66757  0.39920  0.17859  Biso   1.000  N
  N12      1.0000 0.33243  0.39920  0.32141  Biso   1.000  N
  N13      1.0000 0.83243  0.10080  0.82141  Biso   1.000  N
  N14      1.0000 0.16757  0.10080  0.67859  Biso   1.000  N
  N15      1.0000 0.33243  0.60080  0.82141  Biso   1.000  N
  N16      1.0000 0.66757  0.60080  0.67859  Biso   1.000  N
  N17      1.0000 0.22940  0.19810  0.36533  Biso   1.000  N
  N18      1.0000 0.77060  0.19810  0.13467  Biso   1.000  N
  N19      1.0000 0.72940  0.69810  0.36533  Biso   1.000  N
  N20      1.0000 0.27060  0.69810  0.13467  Biso   1.000  N
  N21      1.0000 0.77060  0.80190  0.63467  Biso   1.000  N
  N22      1.0000 0.22940  0.80190  0.86533  Biso   1.000  N
  N23      1.0000 0.27060  0.30190  0.63467  Biso   1.000  N
  N24      1.0000 0.72940  0.30190  0.86533  Biso   1.000  N
  C1       1.0000 0.10171  0.53300  0.08436  Biso   1.000  C
  C2       1.0000 0.89829  0.53300  0.41564  Biso   1.000  C
  C3       1.0000 0.60171  0.03300  0.08436  Biso   1.000  C
  C4       1.0000 0.39829  0.03300  0.41564  Biso   1.000  C
  C5       1.0000 0.89829  0.46700  0.91564  Biso   1.000  C
  C6       1.0000 0.10171  0.46700  0.58436  Biso   1.000  C
  C7       1.0000 0.39829  0.96700  0.91564  Biso   1.000  C
  C8       1.0000 0.60171  0.96700  0.58436  Biso   1.000  C
  O33      1.0000 0.19264  0.51660  0.35076  Biso   1.000  O
  O34      1.0000 0.80736  0.51660  0.14924  Biso   1.000  O
  O35      1.0000 0.69264  0.01660  0.35076  Biso   1.000  O
  O36      1.0000 0.30736  0.01660  0.14924  Biso   1.000  O
  O37      1.0000 0.80736  0.48340  0.64924  Biso   1.000  O
  O38      1.0000 0.19264  0.48340  0.85076  Biso   1.000  O
  O39      1.0000 0.30736  0.98340  0.64924  Biso   1.000  O
  O40      1.0000 0.69264  0.98340  0.85076  Biso   1.000  O
  H9       1.0000 0.21510  0.56710  0.35090  Biso   1.000  H
  H10      1.0000 0.78490  0.56710  0.14910  Biso   1.000  H
  H11      1.0000 0.71510  0.06710  0.35090  Biso   1.000  H
  H12      1.0000 0.28490  0.06710  0.14910  Biso   1.000  H
  H13      1.0000 0.78490  0.43290  0.64910  Biso   1.000  H
  H14      1.0000 0.21510  0.43290  0.85090  Biso   1.000  H
  H15      1.0000 0.28490  0.93290  0.64910  Biso   1.000  H
  H16      1.0000 0.71510  0.93290  0.85090  Biso   1.000  H
  O41      1.0000 0.25710  0.31990  0.24410  Biso   1.000  O
  O42      1.0000 0.74290  0.31990  0.25590  Biso   1.000  O
  O43      1.0000 0.75710  0.81990  0.24410  Biso   1.000  O
  O44      1.0000 0.24290  0.81990  0.25590  Biso   1.000  O
  O45      1.0000 0.74290  0.68010  0.75590  Biso   1.000  O
  O46      1.0000 0.25710  0.68010  0.74410  Biso   1.000  O
  O47      1.0000 0.24290  0.18010  0.75590  Biso   1.000  O
  O48      1.0000 0.75710  0.18010  0.74410  Biso   1.000  O
  N25      1.0000 0.20519  0.05570  0.30514  Biso   1.000  N
  N26      1.0000 0.79481  0.05570  0.19486  Biso   1.000  N
  N27      1.0000 0.70519  0.55570  0.30514  Biso   1.000  N
  N28      1.0000 0.29481  0.55570  0.19486  Biso   1.000  N
  N29      1.0000 0.79481  0.94430  0.69486  Biso   1.000  N
  N30      1.0000 0.20519  0.94430  0.80514  Biso   1.000  N
  N31      1.0000 0.29481  0.44430  0.69486  Biso   1.000  N
  N32      1.0000 0.70519  0.44430  0.80514  Biso   1.000  N
  C9       1.0000 0.21878  0.19400  0.31997  Biso   1.000  C
  C10      1.0000 0.78122  0.19400  0.18003  Biso   1.000  C
  C11      1.0000 0.71878  0.69400  0.31997  Biso   1.000  C
  C12      1.0000 0.28122  0.69400  0.18003  Biso   1.000  C
  C13      1.0000 0.78122  0.80600  0.68003  Biso   1.000  C
  C14      1.0000 0.21878  0.80600  0.81997  Biso   1.000  C
  C15      1.0000 0.28122  0.30600  0.68003  Biso   1.000  C
  C16      1.0000 0.71878  0.30600  0.81997  Biso   1.000  C
  H17      1.0000 0.22060  0.27550  0.30150  Biso   1.000  H
  H18      1.0000 0.77940  0.27550  0.19850  Biso   1.000  H
  H19      1.0000 0.72060  0.77550  0.30150  Biso   1.000  H
  H20      1.0000 0.27940  0.77550  0.19850  Biso   1.000  H
  H21      1.0000 0.77940  0.72450  0.69850  Biso   1.000  H
  H22      1.0000 0.22060  0.72450  0.80150  Biso   1.000  H
  H23      1.0000 0.27940  0.22450  0.69850  Biso   1.000  H
  H24      1.0000 0.72060  0.22450  0.80150  Biso   1.000  H
  C17      1.0000 0.17058  0.76050  0.16328  Biso   1.000  C
  C18      1.0000 0.82942  0.76050  0.33672  Biso   1.000  C
  C19      1.0000 0.67058  0.26050  0.16328  Biso   1.000  C
  C20      1.0000 0.32942  0.26050  0.33672  Biso   1.000  C
  C21      1.0000 0.82942  0.23950  0.83672  Biso   1.000  C
  C22      1.0000 0.17058  0.23950  0.66328  Biso   1.000  C
  C23      1.0000 0.32942  0.73950  0.83672  Biso   1.000  C
  C24      1.0000 0.67058  0.73950  0.66328  Biso   1.000  C
  H25      1.0000 0.18390  0.67840  0.18170  Biso   1.000  H
  H26      1.0000 0.81610  0.67840  0.31830  Biso   1.000  H
  H27      1.0000 0.68390  0.17840  0.18170  Biso   1.000  H
  H28      1.0000 0.31610  0.17840  0.31830  Biso   1.000  H
  H29      1.0000 0.81610  0.32160  0.81830  Biso   1.000  H
  H30      1.0000 0.18390  0.32160  0.68170  Biso   1.000  H
  H31      1.0000 0.31610  0.82160  0.81830  Biso   1.000  H
  H32      1.0000 0.68390  0.82160  0.68170  Biso   1.000  H
  N33      1.0000 0.13637  0.89560  0.10207  Biso   1.000  N
  N34      1.0000 0.86363  0.89560  0.39793  Biso   1.000  N
  N35      1.0000 0.63637  0.39560  0.10207  Biso   1.000  N
  N36      1.0000 0.36363  0.39560  0.39793  Biso   1.000  N
  N37      1.0000 0.86363  0.10440  0.89793  Biso   1.000  N
  N38      1.0000 0.13637  0.10440  0.60207  Biso   1.000  N
  N39      1.0000 0.36363  0.60440  0.89793  Biso   1.000  N
  N40      1.0000 0.63637  0.60440  0.60207  Biso   1.000  N
  C25      1.0000 0.20256  0.43520  0.39383  Biso   1.000  C
  C26      1.0000 0.79744  0.43520  0.10617  Biso   1.000  C
  C27      1.0000 0.70256  0.93520  0.39383  Biso   1.000  C
  C28      1.0000 0.29744  0.93520  0.10617  Biso   1.000  C
  C29      1.0000 0.79744  0.56480  0.60617  Biso   1.000  C
  C30      1.0000 0.20256  0.56480  0.89383  Biso   1.000  C
  C31      1.0000 0.29744  0.06480  0.60617  Biso   1.000  C
  C32      1.0000 0.70256  0.06480  0.89383  Biso   1.000  C
  C33      1.0000 0.04780  0.71220  0.11327  Biso   1.000  C
  C34      1.0000 0.95220  0.71220  0.38673  Biso   1.000  C
  C35      1.0000 0.54780  0.21220  0.11327  Biso   1.000  C
  C36      1.0000 0.45220  0.21220  0.38673  Biso   1.000  C
  C37      1.0000 0.95220  0.28780  0.88673  Biso   1.000  C
  C38      1.0000 0.04780  0.28780  0.61327  Biso   1.000  C
  C39      1.0000 0.45220  0.78780  0.88673  Biso   1.000  C
  C40      1.0000 0.54780  0.78780  0.61327  Biso   1.000  C
  H33      1.0000 0.04210  0.63510  0.13320  Biso   1.000  H
  H34      1.0000 0.95790  0.63510  0.36680  Biso   1.000  H
  H35      1.0000 0.54210  0.13510  0.13320  Biso   1.000  H
  H36      1.0000 0.45790  0.13510  0.36680  Biso   1.000  H
  H37      1.0000 0.95790  0.36490  0.86680  Biso   1.000  H
  H38      1.0000 0.04210  0.36490  0.63320  Biso   1.000  H
  H39      1.0000 0.45790  0.86490  0.86680  Biso   1.000  H
  H40      1.0000 0.54210  0.86490  0.63320  Biso   1.000  H
  H41      1.0000 0.07400  0.77190  0.13100  Biso   1.000  H
  H42      1.0000 0.92600  0.77190  0.36900  Biso   1.000  H
  H43      1.0000 0.57400  0.27190  0.13100  Biso   1.000  H
  H44      1.0000 0.42600  0.27190  0.36900  Biso   1.000  H
  H45      1.0000 0.92600  0.22810  0.86900  Biso   1.000  H
  H46      1.0000 0.07400  0.22810  0.63100  Biso   1.000  H
  H47      1.0000 0.42600  0.72810  0.86900  Biso   1.000  H
  H48      1.0000 0.57400  0.72810  0.63100  Biso   1.000  H
  C41      1.0000 0.14037  0.32050  0.05321  Biso   1.000  C
  C42      1.0000 0.85963  0.32050  0.44679  Biso   1.000  C
  C43      1.0000 0.64037  0.82050  0.05321  Biso   1.000  C
  C44      1.0000 0.35963  0.82050  0.44679  Biso   1.000  C
  C45      1.0000 0.85963  0.67950  0.94679  Biso   1.000  C
  C46      1.0000 0.14037  0.67950  0.55321  Biso   1.000  C
  C47      1.0000 0.35963  0.17950  0.94679  Biso   1.000  C
  C48      1.0000 0.64037  0.17950  0.55321  Biso   1.000  C
  H49      1.0000 0.15290  0.29110  0.08480  Biso   1.000  H
  H50      1.0000 0.84710  0.29110  0.41520  Biso   1.000  H
  H51      1.0000 0.65290  0.79110  0.08480  Biso   1.000  H
  H52      1.0000 0.34710  0.79110  0.41520  Biso   1.000  H
  H53      1.0000 0.84710  0.70890  0.91520  Biso   1.000  H
  H54      1.0000 0.15290  0.70890  0.58480  Biso   1.000  H
  H55      1.0000 0.34710  0.20890  0.91520  Biso   1.000  H
  H56      1.0000 0.65290  0.20890  0.58480  Biso   1.000  H
  H57      1.0000 0.16220  0.38290  0.04500  Biso   1.000  H
  H58      1.0000 0.83780  0.38290  0.45500  Biso   1.000  H
  H59      1.0000 0.66220  0.88290  0.04500  Biso   1.000  H
  H60      1.0000 0.33780  0.88290  0.45500  Biso   1.000  H
  H61      1.0000 0.83780  0.61710  0.95500  Biso   1.000  H
  H62      1.0000 0.16220  0.61710  0.54500  Biso   1.000  H
  H63      1.0000 0.33780  0.11710  0.95500  Biso   1.000  H
  H64      1.0000 0.66220  0.11710  0.54500  Biso   1.000  H
  H65      1.0000 0.13400  0.23160  0.03420  Biso   1.000  H
  H66      1.0000 0.86600  0.23160  0.46580  Biso   1.000  H
  H67      1.0000 0.63400  0.73160  0.03420  Biso   1.000  H
  H68      1.0000 0.36600  0.73160  0.46580  Biso   1.000  H
  H69      1.0000 0.86600  0.76840  0.96580  Biso   1.000  H
  H70      1.0000 0.13400  0.76840  0.53420  Biso   1.000  H
  H71      1.0000 0.36600  0.26840  0.96580  Biso   1.000  H
  H72      1.0000 0.63400  0.26840  0.53420  Biso   1.000  H
  N41      1.0000 0.22196  0.05850  0.38115  Biso   1.000  N
  N42      1.0000 0.77804  0.05850  0.11885  Biso   1.000  N
  N43      1.0000 0.72196  0.55850  0.38115  Biso   1.000  N
  N44      1.0000 0.27804  0.55850  0.11885  Biso   1.000  N
  N45      1.0000 0.77804  0.94150  0.61885  Biso   1.000  N
  N46      1.0000 0.22196  0.94150  0.88115  Biso   1.000  N
  N47      1.0000 0.27804  0.44150  0.61885  Biso   1.000  N
  N48      1.0000 0.72196  0.44150  0.88115  Biso   1.000  N
  C49      1.0000 0.20810  0.97860  0.34405  Biso   1.000  C
  C50      1.0000 0.79190  0.97860  0.15595  Biso   1.000  C
  C51      1.0000 0.70810  0.47860  0.34405  Biso   1.000  C
  C52      1.0000 0.29190  0.47860  0.15595  Biso   1.000  C
  C53      1.0000 0.79190  0.02140  0.65595  Biso   1.000  C
  C54      1.0000 0.20810  0.02140  0.84405  Biso   1.000  C
  C55      1.0000 0.29190  0.52140  0.65595  Biso   1.000  C
  C56      1.0000 0.70810  0.52140  0.84405  Biso   1.000  C
  H73      1.0000 0.20080  0.87640  0.34410  Biso   1.000  H
  H74      1.0000 0.79920  0.87640  0.15590  Biso   1.000  H
  H75      1.0000 0.70080  0.37640  0.34410  Biso   1.000  H
  H76      1.0000 0.29920  0.37640  0.15590  Biso   1.000  H
  H77      1.0000 0.79920  0.12360  0.65590  Biso   1.000  H
  H78      1.0000 0.20080  0.12360  0.84410  Biso   1.000  H
  H79      1.0000 0.29920  0.62360  0.65590  Biso   1.000  H
  H80      1.0000 0.70080  0.62360  0.84410  Biso   1.000  H
  C57      1.0000 0.07050  0.31990  0.35730  Biso   1.000  C
  C58      1.0000 0.92950  0.31990  0.14270  Biso   1.000  C
  C59      1.0000 0.57050  0.81990  0.35730  Biso   1.000  C
  C60      1.0000 0.42950  0.81990  0.14270  Biso   1.000  C
  C61      1.0000 0.92950  0.68010  0.64270  Biso   1.000  C
  C62      1.0000 0.07050  0.68010  0.85730  Biso   1.000  C
  C63      1.0000 0.42950  0.18010  0.64270  Biso   1.000  C
  C64      1.0000 0.57050  0.18010  0.85730  Biso   1.000  C
  C65      1.0000 0.00603  0.81320  0.09587  Biso   1.000  C
  C66      1.0000 0.99397  0.81320  0.40413  Biso   1.000  C
  C67      1.0000 0.50603  0.31320  0.09587  Biso   1.000  C
  C68      1.0000 0.49397  0.31320  0.40413  Biso   1.000  C
  C69      1.0000 0.99397  0.18680  0.90413  Biso   1.000  C
  C70      1.0000 0.00603  0.18680  0.59587  Biso   1.000  C
  C71      1.0000 0.49397  0.68680  0.90413  Biso   1.000  C
  C72      1.0000 0.50603  0.68680  0.59587  Biso   1.000  C
  C73      1.0000 0.21830  0.54810  0.43532  Biso   1.000  C
  C74      1.0000 0.78170  0.54810  0.06468  Biso   1.000  C
  C75      1.0000 0.71830  0.04810  0.43532  Biso   1.000  C
  C76      1.0000 0.28170  0.04810  0.06468  Biso   1.000  C
  C77      1.0000 0.78170  0.45190  0.56468  Biso   1.000  C
  C78      1.0000 0.21830  0.45190  0.93532  Biso   1.000  C
  C79      1.0000 0.28170  0.95190  0.56468  Biso   1.000  C
  C80      1.0000 0.71830  0.95190  0.93532  Biso   1.000  C
  C81      1.0000 0.00603  0.93380  0.06680  Biso   1.000  C
  C82      1.0000 0.99397  0.93380  0.43320  Biso   1.000  C
  C83      1.0000 0.50603  0.43380  0.06680  Biso   1.000  C
  C84      1.0000 0.49397  0.43380  0.43320  Biso   1.000  C
  C85      1.0000 0.99397  0.06620  0.93320  Biso   1.000  C
  C86      1.0000 0.00603  0.06620  0.56680  Biso   1.000  C
  C87      1.0000 0.49397  0.56620  0.93320  Biso   1.000  C
  C88      1.0000 0.50603  0.56620  0.56680  Biso   1.000  C
  H81      1.0000 0.03270  0.95550  0.05990  Biso   1.000  H
  H82      1.0000 0.96730  0.95550  0.44010  Biso   1.000  H
  H83      1.0000 0.53270  0.45550  0.05990  Biso   1.000  H
  H84      1.0000 0.46730  0.45550  0.44010  Biso   1.000  H
  H85      1.0000 0.96730  0.04450  0.94010  Biso   1.000  H
  H86      1.0000 0.03270  0.04450  0.55990  Biso   1.000  H
  H87      1.0000 0.46730  0.54450  0.94010  Biso   1.000  H
  H88      1.0000 0.53270  0.54450  0.55990  Biso   1.000  H
  N49      1.0000 0.10756  0.59660  0.24930  Biso   1.000  N
  N50      1.0000 0.89244  0.59660  0.25070  Biso   1.000  N
  N51      1.0000 0.60756  0.09660  0.24930  Biso   1.000  N
  N52      1.0000 0.39244  0.09660  0.25070  Biso   1.000  N
  N53      1.0000 0.89244  0.40340  0.75070  Biso   1.000  N
  N54      1.0000 0.10756  0.40340  0.74930  Biso   1.000  N
  N55      1.0000 0.39244  0.90340  0.75070  Biso   1.000  N
  N56      1.0000 0.60756  0.90340  0.74930  Biso   1.000  N
  C89      1.0000 0.14263  0.68670  0.25453  Biso   1.000  C
  C90      1.0000 0.85737  0.68670  0.24547  Biso   1.000  C
  C91      1.0000 0.64263  0.18670  0.25453  Biso   1.000  C
  C92      1.0000 0.35737  0.18670  0.24547  Biso   1.000  C
  C93      1.0000 0.85737  0.31330  0.74547  Biso   1.000  C
  C94      1.0000 0.14263  0.31330  0.75453  Biso   1.000  C
  C95      1.0000 0.35737  0.81330  0.74547  Biso   1.000  C
  C96      1.0000 0.64263  0.81330  0.75453  Biso   1.000  C
  H89      1.0000 0.17030  0.64280  0.25480  Biso   1.000  H
  H90      1.0000 0.82970  0.64280  0.24520  Biso   1.000  H
  H91      1.0000 0.67030  0.14280  0.25480  Biso   1.000  H
  H92      1.0000 0.32970  0.14280  0.24520  Biso   1.000  H
  H93      1.0000 0.82970  0.35720  0.74520  Biso   1.000  H
  H94      1.0000 0.17030  0.35720  0.75480  Biso   1.000  H
  H95      1.0000 0.32970  0.85720  0.74520  Biso   1.000  H
  H96      1.0000 0.67030  0.85720  0.75480  Biso   1.000  H
  C97      1.0000 0.14554  0.62590  0.08802  Biso   1.000  C
  C98      1.0000 0.85446  0.62590  0.41198  Biso   1.000  C
  C99      1.0000 0.64554  0.12590  0.08802  Biso   1.000  C
  C100     1.0000 0.35446  0.12590  0.41198  Biso   1.000  C
  C101     1.0000 0.85446  0.37410  0.91198  Biso   1.000  C
  C102     1.0000 0.14554  0.37410  0.58802  Biso   1.000  C
  C103     1.0000 0.35446  0.87410  0.91198  Biso   1.000  C
  C104     1.0000 0.64554  0.87410  0.58802  Biso   1.000  C
  H97      1.0000 0.17220  0.56010  0.09890  Biso   1.000  H
  H98      1.0000 0.82780  0.56010  0.40110  Biso   1.000  H
  H99      1.0000 0.67220  0.06010  0.09890  Biso   1.000  H
  H100     1.0000 0.32780  0.06010  0.40110  Biso   1.000  H
  H101     1.0000 0.82780  0.43990  0.90110  Biso   1.000  H
  H102     1.0000 0.17220  0.43990  0.59890  Biso   1.000  H
  H103     1.0000 0.32780  0.93990  0.90110  Biso   1.000  H
  H104     1.0000 0.67220  0.93990  0.59890  Biso   1.000  H
  H105     1.0000 0.14390  0.66090  0.05770  Biso   1.000  H
  H106     1.0000 0.85610  0.66090  0.44230  Biso   1.000  H
  H107     1.0000 0.64390  0.16090  0.05770  Biso   1.000  H
  H108     1.0000 0.35610  0.16090  0.44230  Biso   1.000  H
  H109     1.0000 0.85610  0.33910  0.94230  Biso   1.000  H
  H110     1.0000 0.14390  0.33910  0.55770  Biso   1.000  H
  H111     1.0000 0.35610  0.83910  0.94230  Biso   1.000  H
  H112     1.0000 0.64390  0.83910  0.55770  Biso   1.000  H
  C105     1.0000 0.15863  0.34760  0.38889  Biso   1.000  C
  C106     1.0000 0.84137  0.34760  0.11111  Biso   1.000  C
  C107     1.0000 0.65863  0.84760  0.38889  Biso   1.000  C
  C108     1.0000 0.34137  0.84760  0.11111  Biso   1.000  C
  C109     1.0000 0.84137  0.65240  0.61111  Biso   1.000  C
  C110     1.0000 0.15863  0.65240  0.88889  Biso   1.000  C
  C111     1.0000 0.34137  0.15240  0.61111  Biso   1.000  C
  C112     1.0000 0.65863  0.15240  0.88889  Biso   1.000  C
  H113     1.0000 0.15680  0.26810  0.36660  Biso   1.000  H
  H114     1.0000 0.84320  0.26810  0.13340  Biso   1.000  H
  H115     1.0000 0.65680  0.76810  0.36660  Biso   1.000  H
  H116     1.0000 0.34320  0.76810  0.13340  Biso   1.000  H
  H117     1.0000 0.84320  0.73190  0.63340  Biso   1.000  H
  H118     1.0000 0.15680  0.73190  0.86660  Biso   1.000  H
  H119     1.0000 0.34320  0.23190  0.63340  Biso   1.000  H
  H120     1.0000 0.65680  0.23190  0.86660  Biso   1.000  H
  H121     1.0000 0.16270  0.29790  0.41800  Biso   1.000  H
  H122     1.0000 0.83730  0.29790  0.08200  Biso   1.000  H
  H123     1.0000 0.66270  0.79790  0.41800  Biso   1.000  H
  H124     1.0000 0.33730  0.79790  0.08200  Biso   1.000  H
  H125     1.0000 0.83730  0.70210  0.58200  Biso   1.000  H
  H126     1.0000 0.16270  0.70210  0.91800  Biso   1.000  H
  H127     1.0000 0.33730  0.20210  0.58200  Biso   1.000  H
  H128     1.0000 0.66270  0.20210  0.91800  Biso   1.000  H
  C113     1.0000 0.24237  0.32700  0.39649  Biso   1.000  C
  C114     1.0000 0.75763  0.32700  0.10351  Biso   1.000  C
  C115     1.0000 0.74237  0.82700  0.39649  Biso   1.000  C
  C116     1.0000 0.25763  0.82700  0.10351  Biso   1.000  C
  C117     1.0000 0.75763  0.67300  0.60351  Biso   1.000  C
  C118     1.0000 0.24237  0.67300  0.89649  Biso   1.000  C
  C119     1.0000 0.25763  0.17300  0.60351  Biso   1.000  C
  C120     1.0000 0.74237  0.17300  0.89649  Biso   1.000  C
  H129     1.0000 0.26660  0.38310  0.38960  Biso   1.000  H
  H130     1.0000 0.73340  0.38310  0.11040  Biso   1.000  H
  H131     1.0000 0.76660  0.88310  0.38960  Biso   1.000  H
  H132     1.0000 0.23340  0.88310  0.11040  Biso   1.000  H
  H133     1.0000 0.73340  0.61690  0.61040  Biso   1.000  H
  H134     1.0000 0.26660  0.61690  0.88960  Biso   1.000  H
  H135     1.0000 0.23340  0.11690  0.61040  Biso   1.000  H
  H136     1.0000 0.76660  0.11690  0.88960  Biso   1.000  H
  H137     1.0000 0.25480  0.28950  0.42770  Biso   1.000  H
  H138     1.0000 0.74520  0.28950  0.07230  Biso   1.000  H
  H139     1.0000 0.75480  0.78950  0.42770  Biso   1.000  H
  H140     1.0000 0.24520  0.78950  0.07230  Biso   1.000  H
  H141     1.0000 0.74520  0.71050  0.57230  Biso   1.000  H
  H142     1.0000 0.25480  0.71050  0.92770  Biso   1.000  H
  H143     1.0000 0.24520  0.21050  0.57230  Biso   1.000  H
  H144     1.0000 0.75480  0.21050  0.92770  Biso   1.000  H
  C121     1.0000 0.09575  0.40940  0.04610  Biso   1.000  C
  C122     1.0000 0.90425  0.40940  0.45390  Biso   1.000  C
  C123     1.0000 0.59575  0.90940  0.04610  Biso   1.000  C
  C124     1.0000 0.40425  0.90940  0.45390  Biso   1.000  C
  C125     1.0000 0.90425  0.59060  0.95390  Biso   1.000  C
  C126     1.0000 0.09575  0.59060  0.54610  Biso   1.000  C
  C127     1.0000 0.40425  0.09060  0.95390  Biso   1.000  C
  C128     1.0000 0.59575  0.09060  0.54610  Biso   1.000  C
  C129     1.0000 0.99156  0.15530  0.32470  Biso   1.000  C
  C130     1.0000 0.00844  0.15530  0.17530  Biso   1.000  C
  C131     1.0000 0.49156  0.65530  0.32470  Biso   1.000  C
  C132     1.0000 0.50844  0.65530  0.17530  Biso   1.000  C
  C133     1.0000 0.00844  0.84470  0.67530  Biso   1.000  C
  C134     1.0000 0.99156  0.84470  0.82470  Biso   1.000  C
  C135     1.0000 0.50844  0.34470  0.67530  Biso   1.000  C
  C136     1.0000 0.49156  0.34470  0.82470  Biso   1.000  C
  C137     1.0000 0.96644  0.78750  0.10710  Biso   1.000  C
  C138     1.0000 0.03356  0.78750  0.39290  Biso   1.000  C
  C139     1.0000 0.46644  0.28750  0.10710  Biso   1.000  C
  C140     1.0000 0.53356  0.28750  0.39290  Biso   1.000  C
  C141     1.0000 0.03356  0.21250  0.89290  Biso   1.000  C
  C142     1.0000 0.96644  0.21250  0.60710  Biso   1.000  C
  C143     1.0000 0.53356  0.71250  0.89290  Biso   1.000  C
  C144     1.0000 0.46644  0.71250  0.60710  Biso   1.000  C
  H145     1.0000 0.96550  0.70960  0.12720  Biso   1.000  H
  H146     1.0000 0.03450  0.70960  0.37280  Biso   1.000  H
  H147     1.0000 0.46550  0.20960  0.12720  Biso   1.000  H
  H148     1.0000 0.53450  0.20960  0.37280  Biso   1.000  H
  H149     1.0000 0.03450  0.29040  0.87280  Biso   1.000  H
  H150     1.0000 0.96550  0.29040  0.62720  Biso   1.000  H
  H151     1.0000 0.53450  0.79040  0.87280  Biso   1.000  H
  H152     1.0000 0.46550  0.79040  0.62720  Biso   1.000  H
  C145     1.0000 0.92740  0.88020  0.08800  Biso   1.000  C
  C146     1.0000 0.07260  0.88020  0.41200  Biso   1.000  C
  C147     1.0000 0.42740  0.38020  0.08800  Biso   1.000  C
  C148     1.0000 0.57260  0.38020  0.41200  Biso   1.000  C
  C149     1.0000 0.07260  0.11980  0.91200  Biso   1.000  C
  C150     1.0000 0.92740  0.11980  0.58800  Biso   1.000  C
  C151     1.0000 0.57260  0.61980  0.91200  Biso   1.000  C
  C152     1.0000 0.42740  0.61980  0.58800  Biso   1.000  C
  H153     1.0000 0.90090  0.86420  0.09590  Biso   1.000  H
  H154     1.0000 0.09910  0.86420  0.40410  Biso   1.000  H
  H155     1.0000 0.40090  0.36420  0.09590  Biso   1.000  H
  H156     1.0000 0.59910  0.36420  0.40410  Biso   1.000  H
  H157     1.0000 0.09910  0.13580  0.90410  Biso   1.000  H
  H158     1.0000 0.90090  0.13580  0.59590  Biso   1.000  H
  H159     1.0000 0.59910  0.63580  0.90410  Biso   1.000  H
  H160     1.0000 0.40090  0.63580  0.59590  Biso   1.000  H
  C153     1.0000 0.08130  0.47910  0.99795  Biso   1.000  C
  C154     1.0000 0.91870  0.47910  0.50205  Biso   1.000  C
  C155     1.0000 0.58130  0.97910  0.99795  Biso   1.000  C
  C156     1.0000 0.41870  0.97910  0.50205  Biso   1.000  C
  C157     1.0000 0.91870  0.52090  0.00205  Biso   1.000  C
  C158     1.0000 0.08130  0.52090  0.49795  Biso   1.000  C
  C159     1.0000 0.41870  0.02090  0.00205  Biso   1.000  C
  C160     1.0000 0.58130  0.02090  0.49795  Biso   1.000  C
  H161     1.0000 0.08000  0.40130  0.97580  Biso   1.000  H
  H162     1.0000 0.92000  0.40130  0.52420  Biso   1.000  H
  H163     1.0000 0.58000  0.90130  0.97580  Biso   1.000  H
  H164     1.0000 0.42000  0.90130  0.52420  Biso   1.000  H
  H165     1.0000 0.92000  0.59870  0.02420  Biso   1.000  H
  H166     1.0000 0.08000  0.59870  0.47580  Biso   1.000  H
  H167     1.0000 0.42000  0.09870  0.02420  Biso   1.000  H
  H168     1.0000 0.58000  0.09870  0.47580  Biso   1.000  H
  H169     1.0000 0.10320  0.55470  0.99650  Biso   1.000  H
  H170     1.0000 0.89680  0.55470  0.50350  Biso   1.000  H
  H171     1.0000 0.60320  0.05470  0.99650  Biso   1.000  H
  H172     1.0000 0.39680  0.05470  0.50350  Biso   1.000  H
  H173     1.0000 0.89680  0.44530  0.00350  Biso   1.000  H
  H174     1.0000 0.10320  0.44530  0.49650  Biso   1.000  H
  H175     1.0000 0.39680  0.94530  0.00350  Biso   1.000  H
  H176     1.0000 0.60320  0.94530  0.49650  Biso   1.000  H
  H177     1.0000 0.05140  0.52470  0.99140  Biso   1.000  H
  H178     1.0000 0.94860  0.52470  0.50860  Biso   1.000  H
  H179     1.0000 0.55140  0.02470  0.99140  Biso   1.000  H
  H180     1.0000 0.44860  0.02470  0.50860  Biso   1.000  H
  H181     1.0000 0.94860  0.47530  0.00860  Biso   1.000  H
  H182     1.0000 0.05140  0.47530  0.49140  Biso   1.000  H
  H183     1.0000 0.44860  0.97530  0.00860  Biso   1.000  H
  H184     1.0000 0.55140  0.97530  0.49140  Biso   1.000  H
  C161     1.0000 0.05890  0.63590  0.07289  Biso   1.000  C
  C162     1.0000 0.94110  0.63590  0.42711  Biso   1.000  C
  C163     1.0000 0.55890  0.13590  0.07289  Biso   1.000  C
  C164     1.0000 0.44110  0.13590  0.42711  Biso   1.000  C
  C165     1.0000 0.94110  0.36410  0.92711  Biso   1.000  C
  C166     1.0000 0.05890  0.36410  0.57289  Biso   1.000  C
  C167     1.0000 0.44110  0.86410  0.92711  Biso   1.000  C
  C168     1.0000 0.55890  0.86410  0.57289  Biso   1.000  C
  H185     1.0000 0.03240  0.57590  0.05600  Biso   1.000  H
  H186     1.0000 0.96760  0.57590  0.44400  Biso   1.000  H
  H187     1.0000 0.53240  0.07590  0.05600  Biso   1.000  H
  H188     1.0000 0.46760  0.07590  0.44400  Biso   1.000  H
  H189     1.0000 0.96760  0.42410  0.94400  Biso   1.000  H
  H190     1.0000 0.03240  0.42410  0.55600  Biso   1.000  H
  H191     1.0000 0.46760  0.92410  0.94400  Biso   1.000  H
  H192     1.0000 0.53240  0.92410  0.55600  Biso   1.000  H
  H193     1.0000 0.06250  0.71500  0.05250  Biso   1.000  H
  H194     1.0000 0.93750  0.71500  0.44750  Biso   1.000  H
  H195     1.0000 0.56250  0.21500  0.05250  Biso   1.000  H
  H196     1.0000 0.43750  0.21500  0.44750  Biso   1.000  H
  H197     1.0000 0.93750  0.28500  0.94750  Biso   1.000  H
  H198     1.0000 0.06250  0.28500  0.55250  Biso   1.000  H
  H199     1.0000 0.43750  0.78500  0.94750  Biso   1.000  H
  H200     1.0000 0.56250  0.78500  0.55250  Biso   1.000  H
  C169     1.0000 0.96750  0.02200  0.04810  Biso   1.000  C
  C170     1.0000 0.03250  0.02200  0.45190  Biso   1.000  C
  C171     1.0000 0.46750  0.52200  0.04810  Biso   1.000  C
  C172     1.0000 0.53250  0.52200  0.45190  Biso   1.000  C
  C173     1.0000 0.03250  0.97800  0.95190  Biso   1.000  C
  C174     1.0000 0.96750  0.97800  0.54810  Biso   1.000  C
  C175     1.0000 0.53250  0.47800  0.95190  Biso   1.000  C
  C176     1.0000 0.46750  0.47800  0.54810  Biso   1.000  C
  H201     1.0000 0.96820  0.10160  0.02860  Biso   1.000  H
  H202     1.0000 0.03180  0.10160  0.47140  Biso   1.000  H
  H203     1.0000 0.46820  0.60160  0.02860  Biso   1.000  H
  H204     1.0000 0.53180  0.60160  0.47140  Biso   1.000  H
  H205     1.0000 0.03180  0.89840  0.97140  Biso   1.000  H
  H206     1.0000 0.96820  0.89840  0.52860  Biso   1.000  H
  H207     1.0000 0.53180  0.39840  0.97140  Biso   1.000  H
  H208     1.0000 0.46820  0.39840  0.52860  Biso   1.000  H
  C177     1.0000 0.05948  0.29360  0.04860  Biso   1.000  C
  C178     1.0000 0.94052  0.29360  0.45140  Biso   1.000  C
  C179     1.0000 0.55948  0.79360  0.04860  Biso   1.000  C
  C180     1.0000 0.44052  0.79360  0.45140  Biso   1.000  C
  C181     1.0000 0.94052  0.70640  0.95140  Biso   1.000  C
  C182     1.0000 0.05948  0.70640  0.54860  Biso   1.000  C
  C183     1.0000 0.44052  0.20640  0.95140  Biso   1.000  C
  C184     1.0000 0.55948  0.20640  0.54860  Biso   1.000  C
  H209     1.0000 0.05710  0.21560  0.02620  Biso   1.000  H
  H210     1.0000 0.94290  0.21560  0.47380  Biso   1.000  H
  H211     1.0000 0.55710  0.71560  0.02620  Biso   1.000  H
  H212     1.0000 0.44290  0.71560  0.47380  Biso   1.000  H
  H213     1.0000 0.94290  0.78440  0.97380  Biso   1.000  H
  H214     1.0000 0.05710  0.78440  0.52620  Biso   1.000  H
  H215     1.0000 0.44290  0.28440  0.97380  Biso   1.000  H
  H216     1.0000 0.55710  0.28440  0.52620  Biso   1.000  H
  H217     1.0000 0.03020  0.34310  0.04240  Biso   1.000  H
  H218     1.0000 0.96980  0.34310  0.45760  Biso   1.000  H
  H219     1.0000 0.53020  0.84310  0.04240  Biso   1.000  H
  H220     1.0000 0.46980  0.84310  0.45760  Biso   1.000  H
  H221     1.0000 0.96980  0.65690  0.95760  Biso   1.000  H
  H222     1.0000 0.03020  0.65690  0.54240  Biso   1.000  H
  H223     1.0000 0.46980  0.15690  0.95760  Biso   1.000  H
  H224     1.0000 0.53020  0.15690  0.54240  Biso   1.000  H
  H225     1.0000 0.06830  0.24940  0.07870  Biso   1.000  H
  H226     1.0000 0.93170  0.24940  0.42130  Biso   1.000  H
  H227     1.0000 0.56830  0.74940  0.07870  Biso   1.000  H
  H228     1.0000 0.43170  0.74940  0.42130  Biso   1.000  H
  H229     1.0000 0.93170  0.75060  0.92130  Biso   1.000  H
  H230     1.0000 0.06830  0.75060  0.57870  Biso   1.000  H
  H231     1.0000 0.43170  0.25060  0.92130  Biso   1.000  H
  H232     1.0000 0.56830  0.25060  0.57870  Biso   1.000  H
  C185     1.0000 0.99390  0.27350  0.35280  Biso   1.000  C
  C186     1.0000 0.00610  0.27350  0.14720  Biso   1.000  C
  C187     1.0000 0.49390  0.77350  0.35280  Biso   1.000  C
  C188     1.0000 0.50610  0.77350  0.14720  Biso   1.000  C
  C189     1.0000 0.00610  0.72650  0.64720  Biso   1.000  C
  C190     1.0000 0.99390  0.72650  0.85280  Biso   1.000  C
  C191     1.0000 0.50610  0.22650  0.64720  Biso   1.000  C
  C192     1.0000 0.49390  0.22650  0.85280  Biso   1.000  C
  H233     1.0000 0.96800  0.30070  0.36060  Biso   1.000  H
  H234     1.0000 0.03200  0.30070  0.13940  Biso   1.000  H
  H235     1.0000 0.46800  0.80070  0.36060  Biso   1.000  H
  H236     1.0000 0.53200  0.80070  0.13940  Biso   1.000  H
  H237     1.0000 0.03200  0.69930  0.63940  Biso   1.000  H
  H238     1.0000 0.96800  0.69930  0.86060  Biso   1.000  H
  H239     1.0000 0.53200  0.19930  0.63940  Biso   1.000  H
  H240     1.0000 0.46800  0.19930  0.86060  Biso   1.000  H
  C193     1.0000 0.92850  0.99230  0.05830  Biso   1.000  C
  C194     1.0000 0.07150  0.99230  0.44170  Biso   1.000  C
  C195     1.0000 0.42850  0.49230  0.05830  Biso   1.000  C
  C196     1.0000 0.57150  0.49230  0.44170  Biso   1.000  C
  C197     1.0000 0.07150  0.00770  0.94170  Biso   1.000  C
  C198     1.0000 0.92850  0.00770  0.55830  Biso   1.000  C
  C199     1.0000 0.57150  0.50770  0.94170  Biso   1.000  C
  C200     1.0000 0.42850  0.50770  0.55830  Biso   1.000  C
  C201     1.0000 0.03310  0.35310  0.36970  Biso   1.000  C
  C202     1.0000 0.96690  0.35310  0.13030  Biso   1.000  C
  C203     1.0000 0.53310  0.85310  0.36970  Biso   1.000  C
  C204     1.0000 0.46690  0.85310  0.13030  Biso   1.000  C
  C205     1.0000 0.96690  0.64690  0.63030  Biso   1.000  C
  C206     1.0000 0.03310  0.64690  0.86970  Biso   1.000  C
  C207     1.0000 0.46690  0.14690  0.63030  Biso   1.000  C
  C208     1.0000 0.53310  0.14690  0.86970  Biso   1.000  C
  H241     1.0000 0.03440  0.43190  0.39020  Biso   1.000  H
  H242     1.0000 0.96560  0.43190  0.10980  Biso   1.000  H
  H243     1.0000 0.53440  0.93190  0.39020  Biso   1.000  H
  H244     1.0000 0.46560  0.93190  0.10980  Biso   1.000  H
  H245     1.0000 0.96560  0.56810  0.60980  Biso   1.000  H
  H246     1.0000 0.03440  0.56810  0.89020  Biso   1.000  H
  H247     1.0000 0.46560  0.06810  0.60980  Biso   1.000  H
  H248     1.0000 0.53440  0.06810  0.89020  Biso   1.000  H
  C209     1.0000 0.02860  0.11350  0.31110  Biso   1.000  C
  C210     1.0000 0.97140  0.11350  0.18890  Biso   1.000  C
  C211     1.0000 0.52860  0.61350  0.31110  Biso   1.000  C
  C212     1.0000 0.47140  0.61350  0.18890  Biso   1.000  C
  C213     1.0000 0.97140  0.88650  0.68890  Biso   1.000  C
  C214     1.0000 0.02860  0.88650  0.81110  Biso   1.000  C
  C215     1.0000 0.47140  0.38650  0.68890  Biso   1.000  C
  C216     1.0000 0.52860  0.38650  0.81110  Biso   1.000  C
  H249     1.0000 0.02690  0.03190  0.29160  Biso   1.000  H
  H250     1.0000 0.97310  0.03190  0.20840  Biso   1.000  H
  H251     1.0000 0.52690  0.53190  0.29160  Biso   1.000  H
  H252     1.0000 0.47310  0.53190  0.20840  Biso   1.000  H
  H253     1.0000 0.97310  0.96810  0.70840  Biso   1.000  H
  H254     1.0000 0.02690  0.96810  0.79160  Biso   1.000  H
  H255     1.0000 0.47310  0.46810  0.70840  Biso   1.000  H
  H256     1.0000 0.52690  0.46810  0.79160  Biso   1.000  H
  C217     1.0000 0.22220  0.46790  0.47940  Biso   1.000  C
  C218     1.0000 0.77780  0.46790  0.02060  Biso   1.000  C
  C219     1.0000 0.72220  0.96790  0.47940  Biso   1.000  C
  C220     1.0000 0.27780  0.96790  0.02060  Biso   1.000  C
  C221     1.0000 0.77780  0.53210  0.52060  Biso   1.000  C
  C222     1.0000 0.22220  0.53210  0.97940  Biso   1.000  C
  C223     1.0000 0.27780  0.03210  0.52060  Biso   1.000  C
  C224     1.0000 0.72220  0.03210  0.97940  Biso   1.000  C
  H257     1.0000 0.22840  0.54040  0.50390  Biso   1.000  H
  H258     1.0000 0.77160  0.54040  0.99610  Biso   1.000  H
  H259     1.0000 0.72840  0.04040  0.50390  Biso   1.000  H
  H260     1.0000 0.27160  0.04040  0.99610  Biso   1.000  H
  H261     1.0000 0.77160  0.45960  0.49610  Biso   1.000  H
  H262     1.0000 0.22840  0.45960  0.00390  Biso   1.000  H
  H263     1.0000 0.27160  0.95960  0.49610  Biso   1.000  H
  H264     1.0000 0.72840  0.95960  0.00390  Biso   1.000  H
  H265     1.0000 0.24690  0.39570  0.48600  Biso   1.000  H
  H266     1.0000 0.75310  0.39570  0.01400  Biso   1.000  H
  H267     1.0000 0.74690  0.89570  0.48600  Biso   1.000  H
  H268     1.0000 0.25310  0.89570  0.01400  Biso   1.000  H
  H269     1.0000 0.75310  0.60430  0.51400  Biso   1.000  H
  H270     1.0000 0.24690  0.60430  0.98600  Biso   1.000  H
  H271     1.0000 0.25310  0.10430  0.51400  Biso   1.000  H
  H272     1.0000 0.74690  0.10430  0.98600  Biso   1.000  H
  H273     1.0000 0.19380  0.41630  0.47660  Biso   1.000  H
  H274     1.0000 0.80620  0.41630  0.02340  Biso   1.000  H
  H275     1.0000 0.69380  0.91630  0.47660  Biso   1.000  H
  H276     1.0000 0.30620  0.91630  0.02340  Biso   1.000  H
  H277     1.0000 0.80620  0.58370  0.52340  Biso   1.000  H
  H278     1.0000 0.19380  0.58370  0.97660  Biso   1.000  H
  H279     1.0000 0.30620  0.08370  0.52340  Biso   1.000  H
  H280     1.0000 0.69380  0.08370  0.97660  Biso   1.000  H
  C225     1.0000 0.18330  0.67750  0.42920  Biso   1.000  C
  C226     1.0000 0.81670  0.67750  0.07080  Biso   1.000  C
  C227     1.0000 0.68330  0.17750  0.42920  Biso   1.000  C
  C228     1.0000 0.31670  0.17750  0.07080  Biso   1.000  C
  C229     1.0000 0.81670  0.32250  0.57080  Biso   1.000  C
  C230     1.0000 0.18330  0.32250  0.92920  Biso   1.000  C
  C231     1.0000 0.31670  0.82250  0.57080  Biso   1.000  C
  C232     1.0000 0.68330  0.82250  0.92920  Biso   1.000  C
  H281     1.0000 0.15570  0.63930  0.43370  Biso   1.000  H
  H282     1.0000 0.84430  0.63930  0.06630  Biso   1.000  H
  H283     1.0000 0.65570  0.13930  0.43370  Biso   1.000  H
  H284     1.0000 0.34430  0.13930  0.06630  Biso   1.000  H
  H285     1.0000 0.84430  0.36070  0.56630  Biso   1.000  H
  H286     1.0000 0.15570  0.36070  0.93370  Biso   1.000  H
  H287     1.0000 0.34430  0.86070  0.56630  Biso   1.000  H
  H288     1.0000 0.65570  0.86070  0.93370  Biso   1.000  H
  H289     1.0000 0.17620  0.71860  0.39890  Biso   1.000  H
  H290     1.0000 0.82380  0.71860  0.10110  Biso   1.000  H
  H291     1.0000 0.67620  0.21860  0.39890  Biso   1.000  H
  H292     1.0000 0.32380  0.21860  0.10110  Biso   1.000  H
  H293     1.0000 0.82380  0.28140  0.60110  Biso   1.000  H
  H294     1.0000 0.17620  0.28140  0.89890  Biso   1.000  H
  H295     1.0000 0.32380  0.78140  0.60110  Biso   1.000  H
  H296     1.0000 0.67620  0.78140  0.89890  Biso   1.000  H
  H297     1.0000 0.19630  0.75540  0.45140  Biso   1.000  H
  H298     1.0000 0.80370  0.75540  0.04860  Biso   1.000  H
  H299     1.0000 0.69630  0.25540  0.45140  Biso   1.000  H
  H300     1.0000 0.30370  0.25540  0.04860  Biso   1.000  H
  H301     1.0000 0.80370  0.24460  0.54860  Biso   1.000  H
  H302     1.0000 0.19630  0.24460  0.95140  Biso   1.000  H
  H303     1.0000 0.30370  0.74460  0.54860  Biso   1.000  H
  H304     1.0000 0.69630  0.74460  0.95140  Biso   1.000  H
  C233     1.0000 0.06970  0.20090  0.32840  Biso   1.000  C
  C234     1.0000 0.93030  0.20090  0.17160  Biso   1.000  C
  C235     1.0000 0.56970  0.70090  0.32840  Biso   1.000  C
  C236     1.0000 0.43030  0.70090  0.17160  Biso   1.000  C
  C237     1.0000 0.93030  0.79910  0.67160  Biso   1.000  C
  C238     1.0000 0.06970  0.79910  0.82840  Biso   1.000  C
  C239     1.0000 0.43030  0.29910  0.67160  Biso   1.000  C
  C240     1.0000 0.56970  0.29910  0.82840  Biso   1.000  C
  H305     1.0000 0.09560  0.17750  0.32020  Biso   1.000  H
  H306     1.0000 0.90440  0.17750  0.17980  Biso   1.000  H
  H307     1.0000 0.59560  0.67750  0.32020  Biso   1.000  H
  H308     1.0000 0.40440  0.67750  0.17980  Biso   1.000  H
  H309     1.0000 0.90440  0.82250  0.67980  Biso   1.000  H
  H310     1.0000 0.09560  0.82250  0.82020  Biso   1.000  H
  H311     1.0000 0.40440  0.32250  0.67980  Biso   1.000  H
  H312     1.0000 0.59560  0.32250  0.82020  Biso   1.000  H
  C241     1.0000 0.11360  0.42180  0.37570  Biso   1.000  C
  C242     1.0000 0.88640  0.42180  0.12430  Biso   1.000  C
  C243     1.0000 0.61360  0.92180  0.37570  Biso   1.000  C
  C244     1.0000 0.38640  0.92180  0.12430  Biso   1.000  C
  C245     1.0000 0.88640  0.57820  0.62430  Biso   1.000  C
  C246     1.0000 0.11360  0.57820  0.87570  Biso   1.000  C
  C247     1.0000 0.38640  0.07820  0.62430  Biso   1.000  C
  C248     1.0000 0.61360  0.07820  0.87570  Biso   1.000  C
  H313     1.0000 0.11280  0.49650  0.35240  Biso   1.000  H
  H314     1.0000 0.88720  0.49650  0.14760  Biso   1.000  H
  H315     1.0000 0.61280  0.99650  0.35240  Biso   1.000  H
  H316     1.0000 0.38720  0.99650  0.14760  Biso   1.000  H
  H317     1.0000 0.88720  0.50350  0.64760  Biso   1.000  H
  H318     1.0000 0.11280  0.50350  0.85240  Biso   1.000  H
  H319     1.0000 0.38720  0.00350  0.64760  Biso   1.000  H
  H320     1.0000 0.61280  0.00350  0.85240  Biso   1.000  H
  H321     1.0000 0.11120  0.47610  0.40220  Biso   1.000  H
  H322     1.0000 0.88880  0.47610  0.09780  Biso   1.000  H
  H323     1.0000 0.61120  0.97610  0.40220  Biso   1.000  H
  H324     1.0000 0.38880  0.97610  0.09780  Biso   1.000  H
  H325     1.0000 0.88880  0.52390  0.59780  Biso   1.000  H
  H326     1.0000 0.11120  0.52390  0.90220  Biso   1.000  H
  H327     1.0000 0.38880  0.02390  0.59780  Biso   1.000  H
  H328     1.0000 0.61120  0.02390  0.90220  Biso   1.000  H
  C249     1.0000 0.14647  0.97790  0.13945  Biso   1.000  C
  C250     1.0000 0.85353  0.97790  0.36055  Biso   1.000  C
  C251     1.0000 0.64647  0.47790  0.13945  Biso   1.000  C
  C252     1.0000 0.35353  0.47790  0.36055  Biso   1.000  C
  C253     1.0000 0.85353  0.02210  0.86055  Biso   1.000  C
  C254     1.0000 0.14647  0.02210  0.63945  Biso   1.000  C
  C255     1.0000 0.35353  0.52210  0.86055  Biso   1.000  C
  C256     1.0000 0.64647  0.52210  0.63945  Biso   1.000  C
  H329     1.0000 0.13980  0.08070  0.13920  Biso   1.000  H
  H330     1.0000 0.86020  0.08070  0.36080  Biso   1.000  H
  H331     1.0000 0.63980  0.58070  0.13920  Biso   1.000  H
  H332     1.0000 0.36020  0.58070  0.36080  Biso   1.000  H
  H333     1.0000 0.86020  0.91930  0.86080  Biso   1.000  H
  H334     1.0000 0.13980  0.91930  0.63920  Biso   1.000  H
  H335     1.0000 0.36020  0.41930  0.86080  Biso   1.000  H
  H336     1.0000 0.63980  0.41930  0.63920  Biso   1.000  H
  O49      1.0000 0.23950  0.16780  0.17610  Biso   1.000  O
  O50      1.0000 0.76050  0.16780  0.32390  Biso   1.000  O
  O51      1.0000 0.73950  0.66780  0.17610  Biso   1.000  O
  O52      1.0000 0.26050  0.66780  0.32390  Biso   1.000  O
  O53      1.0000 0.76050  0.83220  0.82390  Biso   1.000  O
  O54      1.0000 0.23950  0.83220  0.67610  Biso   1.000  O
  O55      1.0000 0.26050  0.33220  0.82390  Biso   1.000  O
  O56      1.0000 0.73950  0.33220  0.67610  Biso   1.000  O
  C257     1.0000 0.11020  0.43610  0.24150  Biso   1.000  C
  C258     1.0000 0.88980  0.43610  0.25850  Biso   1.000  C
  C259     1.0000 0.61020  0.93610  0.24150  Biso   1.000  C
  C260     1.0000 0.38980  0.93610  0.25850  Biso   1.000  C
  C261     1.0000 0.88980  0.56390  0.75850  Biso   1.000  C
  C262     1.0000 0.11020  0.56390  0.74150  Biso   1.000  C
  C263     1.0000 0.38980  0.06390  0.75850  Biso   1.000  C
  C264     1.0000 0.61020  0.06390  0.74150  Biso   1.000  C
  H337     1.0000 0.14160  0.40860  0.24560  Biso   1.000  H
  H338     1.0000 0.85840  0.40860  0.25440  Biso   1.000  H
  H339     1.0000 0.64160  0.90860  0.24560  Biso   1.000  H
  H340     1.0000 0.35840  0.90860  0.25440  Biso   1.000  H
  H341     1.0000 0.85840  0.59140  0.75440  Biso   1.000  H
  H342     1.0000 0.14160  0.59140  0.74560  Biso   1.000  H
  H343     1.0000 0.35840  0.09140  0.75440  Biso   1.000  H
  H344     1.0000 0.64160  0.09140  0.74560  Biso   1.000  H
  H345     1.0000 0.09150  0.41210  0.21070  Biso   1.000  H
  H346     1.0000 0.90850  0.41210  0.28930  Biso   1.000  H
  H347     1.0000 0.59150  0.91210  0.21070  Biso   1.000  H
  H348     1.0000 0.40850  0.91210  0.28930  Biso   1.000  H
  H349     1.0000 0.90850  0.58790  0.78930  Biso   1.000  H
  H350     1.0000 0.09150  0.58790  0.71070  Biso   1.000  H
  H351     1.0000 0.40850  0.08790  0.78930  Biso   1.000  H
  H352     1.0000 0.59150  0.08790  0.71070  Biso   1.000  H
  H353     1.0000 0.09930  0.38100  0.26290  Biso   1.000  H
  H354     1.0000 0.90070  0.38100  0.23710  Biso   1.000  H
  H355     1.0000 0.59930  0.88100  0.26290  Biso   1.000  H
  H356     1.0000 0.40070  0.88100  0.23710  Biso   1.000  H
  H357     1.0000 0.90070  0.61900  0.73710  Biso   1.000  H
  H358     1.0000 0.09930  0.61900  0.76290  Biso   1.000  H
  H359     1.0000 0.40070  0.11900  0.73710  Biso   1.000  H
  H360     1.0000 0.59930  0.11900  0.76290  Biso   1.000  H
  C265     1.0000 0.06440  0.65630  0.25040  Biso   1.000  C
  C266     1.0000 0.93560  0.65630  0.24960  Biso   1.000  C
  C267     1.0000 0.56440  0.15630  0.25040  Biso   1.000  C
  C268     1.0000 0.43560  0.15630  0.24960  Biso   1.000  C
  C269     1.0000 0.93560  0.34370  0.74960  Biso   1.000  C
  C270     1.0000 0.06440  0.34370  0.75040  Biso   1.000  C
  C271     1.0000 0.43560  0.84370  0.74960  Biso   1.000  C
  C272     1.0000 0.56440  0.84370  0.75040  Biso   1.000  C
  H361     1.0000 0.06990  0.73320  0.27360  Biso   1.000  H
  H362     1.0000 0.93010  0.73320  0.22640  Biso   1.000  H
  H363     1.0000 0.56990  0.23320  0.27360  Biso   1.000  H
  H364     1.0000 0.43010  0.23320  0.22640  Biso   1.000  H
  H365     1.0000 0.93010  0.26680  0.72640  Biso   1.000  H
  H366     1.0000 0.06990  0.26680  0.77360  Biso   1.000  H
  H367     1.0000 0.43010  0.76680  0.72640  Biso   1.000  H
  H368     1.0000 0.56990  0.76680  0.77360  Biso   1.000  H
  H369     1.0000 0.04640  0.57630  0.25730  Biso   1.000  H
  H370     1.0000 0.95360  0.57630  0.24270  Biso   1.000  H
  H371     1.0000 0.54640  0.07630  0.25730  Biso   1.000  H
  H372     1.0000 0.45360  0.07630  0.24270  Biso   1.000  H
  H373     1.0000 0.95360  0.42370  0.74270  Biso   1.000  H
  H374     1.0000 0.04640  0.42370  0.75730  Biso   1.000  H
  H375     1.0000 0.45360  0.92370  0.74270  Biso   1.000  H
  H376     1.0000 0.54640  0.92370  0.75730  Biso   1.000  H
  H377     1.0000 0.04800  0.69920  0.22110  Biso   1.000  H
  H378     1.0000 0.95200  0.69920  0.27890  Biso   1.000  H
  H379     1.0000 0.54800  0.19920  0.22110  Biso   1.000  H
  H380     1.0000 0.45200  0.19920  0.27890  Biso   1.000  H
  H381     1.0000 0.95200  0.30080  0.77890  Biso   1.000  H
  H382     1.0000 0.04800  0.30080  0.72110  Biso   1.000  H
  H383     1.0000 0.45200  0.80080  0.77890  Biso   1.000  H
  H384     1.0000 0.54800  0.80080  0.72110  Biso   1.000  H
  C273     1.0000 0.26496  0.61940  0.43890  Biso   1.000  C
  C274     1.0000 0.73504  0.61940  0.06110  Biso   1.000  C
  C275     1.0000 0.76496  0.11940  0.43890  Biso   1.000  C
  C276     1.0000 0.23504  0.11940  0.06110  Biso   1.000  C
  C277     1.0000 0.73504  0.38060  0.56110  Biso   1.000  C
  C278     1.0000 0.26496  0.38060  0.93890  Biso   1.000  C
  C279     1.0000 0.23504  0.88060  0.56110  Biso   1.000  C
  C280     1.0000 0.76496  0.88060  0.93890  Biso   1.000  C
  H385     1.0000 0.27300  0.69230  0.46330  Biso   1.000  H
  H386     1.0000 0.72700  0.69230  0.03670  Biso   1.000  H
  H387     1.0000 0.77300  0.19230  0.46330  Biso   1.000  H
  H388     1.0000 0.22700  0.19230  0.03670  Biso   1.000  H
  H389     1.0000 0.72700  0.30770  0.53670  Biso   1.000  H
  H390     1.0000 0.27300  0.30770  0.96330  Biso   1.000  H
  H391     1.0000 0.22700  0.80770  0.53670  Biso   1.000  H
  H392     1.0000 0.77300  0.80770  0.96330  Biso   1.000  H
  H393     1.0000 0.26290  0.66870  0.41050  Biso   1.000  H
  H394     1.0000 0.73710  0.66870  0.08950  Biso   1.000  H
  H395     1.0000 0.76290  0.16870  0.41050  Biso   1.000  H
  H396     1.0000 0.23710  0.16870  0.08950  Biso   1.000  H
  H397     1.0000 0.73710  0.33130  0.58950  Biso   1.000  H
  H398     1.0000 0.26290  0.33130  0.91050  Biso   1.000  H
  H399     1.0000 0.23710  0.83130  0.58950  Biso   1.000  H
  H400     1.0000 0.76290  0.83130  0.91050  Biso   1.000  H
  H401     1.0000 0.28810  0.54180  0.44510  Biso   1.000  H
  H402     1.0000 0.71190  0.54180  0.05490  Biso   1.000  H
  H403     1.0000 0.78810  0.04180  0.44510  Biso   1.000  H
  H404     1.0000 0.21190  0.04180  0.05490  Biso   1.000  H
  H405     1.0000 0.71190  0.45820  0.55490  Biso   1.000  H
  H406     1.0000 0.28810  0.45820  0.94510  Biso   1.000  H
  H407     1.0000 0.21190  0.95820  0.55490  Biso   1.000  H
  H408     1.0000 0.78810  0.95820  0.94510  Biso   1.000  H
