data_image0
_cell_length_a       31.962
_cell_length_b       31.962
_cell_length_c       12.6995
_cell_angle_alpha    90
_cell_angle_beta     90
_cell_angle_gamma    90

_symmetry_space_group_name_H-M    "P 1"
_symmetry_int_tables_number       1

loop_
  _symmetry_equiv_pos_as_xyz
  'x, y, z'

loop_
  _atom_site_label
  _atom_site_occupancy
  _atom_site_fract_x
  _atom_site_fract_y
  _atom_site_fract_z
  _atom_site_thermal_displace_type
  _atom_site_B_iso_or_equiv
  _atom_site_type_symbol
  Cu1      1.0000 0.25000  0.30532  0.00000  Biso   1.000  Cu
  Cu2      1.0000 0.25000  0.69468  0.50000  Biso   1.000  Cu
  Cu3      1.0000 0.94468  0.00000  0.25000  Biso   1.000  Cu
  Cu4      1.0000 0.55532  0.00000  0.75000  Biso   1.000  Cu
  Cu5      1.0000 0.75000  0.80532  0.50000  Biso   1.000  Cu
  Cu6      1.0000 0.75000  0.19468  0.00000  Biso   1.000  Cu
  Cu7      1.0000 0.44468  0.50000  0.75000  Biso   1.000  Cu
  Cu8      1.0000 0.05532  0.50000  0.25000  Biso   1.000  Cu
  Cu9      1.0000 0.75000  0.69468  0.00000  Biso   1.000  Cu
  Cu10     1.0000 0.75000  0.30532  0.50000  Biso   1.000  Cu
  Cu11     1.0000 0.55532  0.50000  0.25000  Biso   1.000  Cu
  Cu12     1.0000 0.94468  0.50000  0.75000  Biso   1.000  Cu
  Cu13     1.0000 0.25000  0.19468  0.50000  Biso   1.000  Cu
  Cu14     1.0000 0.25000  0.80532  0.00000  Biso   1.000  Cu
  Cu15     1.0000 0.05532  0.00000  0.75000  Biso   1.000  Cu
  Cu16     1.0000 0.44468  0.00000  0.25000  Biso   1.000  Cu
  C1       1.0000 0.31003  0.33342  0.14686  Biso   1.000  C
  C2       1.0000 0.18997  0.66658  0.64686  Biso   1.000  C
  C3       1.0000 0.91658  0.06003  0.39686  Biso   1.000  C
  C4       1.0000 0.58342  0.93997  0.89686  Biso   1.000  C
  C5       1.0000 0.18997  0.33342  0.85314  Biso   1.000  C
  C6       1.0000 0.31003  0.66658  0.35314  Biso   1.000  C
  C7       1.0000 0.58342  0.06003  0.60314  Biso   1.000  C
  C8       1.0000 0.91658  0.93997  0.10314  Biso   1.000  C
  C9       1.0000 0.81003  0.83342  0.64686  Biso   1.000  C
  C10      1.0000 0.68997  0.16658  0.14686  Biso   1.000  C
  C11      1.0000 0.41658  0.56003  0.89686  Biso   1.000  C
  C12      1.0000 0.08342  0.43997  0.39686  Biso   1.000  C
  C13      1.0000 0.68997  0.83342  0.35314  Biso   1.000  C
  C14      1.0000 0.81003  0.16658  0.85314  Biso   1.000  C
  C15      1.0000 0.08342  0.56003  0.10314  Biso   1.000  C
  C16      1.0000 0.41658  0.43997  0.60314  Biso   1.000  C
  C17      1.0000 0.68997  0.66658  0.85314  Biso   1.000  C
  C18      1.0000 0.81003  0.33342  0.35314  Biso   1.000  C
  C19      1.0000 0.58342  0.43997  0.10314  Biso   1.000  C
  C20      1.0000 0.91658  0.56003  0.60314  Biso   1.000  C
  C21      1.0000 0.81003  0.66658  0.14686  Biso   1.000  C
  C22      1.0000 0.68997  0.33342  0.64686  Biso   1.000  C
  C23      1.0000 0.91658  0.43997  0.89686  Biso   1.000  C
  C24      1.0000 0.58342  0.56003  0.39686  Biso   1.000  C
  C25      1.0000 0.18997  0.16658  0.35314  Biso   1.000  C
  C26      1.0000 0.31003  0.83342  0.85314  Biso   1.000  C
  C27      1.0000 0.08342  0.93997  0.60314  Biso   1.000  C
  C28      1.0000 0.41658  0.06003  0.10314  Biso   1.000  C
  C29      1.0000 0.31003  0.16658  0.64686  Biso   1.000  C
  C30      1.0000 0.18997  0.83342  0.14686  Biso   1.000  C
  C31      1.0000 0.41658  0.93997  0.39686  Biso   1.000  C
  C32      1.0000 0.08342  0.06003  0.89686  Biso   1.000  C
  C33      1.0000 0.34347  0.32579  0.23069  Biso   1.000  C
  C34      1.0000 0.15653  0.67421  0.73069  Biso   1.000  C
  C35      1.0000 0.92421  0.09347  0.48069  Biso   1.000  C
  C36      1.0000 0.57579  0.90653  0.98069  Biso   1.000  C
  C37      1.0000 0.15653  0.32579  0.76931  Biso   1.000  C
  C38      1.0000 0.34347  0.67421  0.26931  Biso   1.000  C
  C39      1.0000 0.57579  0.09347  0.51931  Biso   1.000  C
  C40      1.0000 0.92421  0.90653  0.01931  Biso   1.000  C
  C41      1.0000 0.84347  0.82579  0.73069  Biso   1.000  C
  C42      1.0000 0.65653  0.17421  0.23069  Biso   1.000  C
  C43      1.0000 0.42421  0.59347  0.98069  Biso   1.000  C
  C44      1.0000 0.07579  0.40653  0.48069  Biso   1.000  C
  C45      1.0000 0.65653  0.82579  0.26931  Biso   1.000  C
  C46      1.0000 0.84347  0.17421  0.76931  Biso   1.000  C
  C47      1.0000 0.07579  0.59347  0.01931  Biso   1.000  C
  C48      1.0000 0.42421  0.40653  0.51931  Biso   1.000  C
  C49      1.0000 0.65653  0.67421  0.76931  Biso   1.000  C
  C50      1.0000 0.84347  0.32579  0.26931  Biso   1.000  C
  C51      1.0000 0.57579  0.40653  0.01931  Biso   1.000  C
  C52      1.0000 0.92421  0.59347  0.51931  Biso   1.000  C
  C53      1.0000 0.84347  0.67421  0.23069  Biso   1.000  C
  C54      1.0000 0.65653  0.32579  0.73069  Biso   1.000  C
  C55      1.0000 0.92421  0.40653  0.98069  Biso   1.000  C
  C56      1.0000 0.57579  0.59347  0.48069  Biso   1.000  C
  C57      1.0000 0.15653  0.17421  0.26931  Biso   1.000  C
  C58      1.0000 0.34347  0.82579  0.76931  Biso   1.000  C
  C59      1.0000 0.07579  0.90653  0.51931  Biso   1.000  C
  C60      1.0000 0.42421  0.09347  0.01931  Biso   1.000  C
  C61      1.0000 0.34347  0.17421  0.73069  Biso   1.000  C
  C62      1.0000 0.15653  0.82579  0.23069  Biso   1.000  C
  C63      1.0000 0.42421  0.90653  0.48069  Biso   1.000  C
  C64      1.0000 0.07579  0.09347  0.98069  Biso   1.000  C
  H1       1.0000 0.33510  0.30150  0.27420  Biso   1.000  H
  H2       1.0000 0.16490  0.69850  0.77420  Biso   1.000  H
  H3       1.0000 0.94850  0.08510  0.52420  Biso   1.000  H
  H4       1.0000 0.55150  0.91490  0.02420  Biso   1.000  H
  H5       1.0000 0.16490  0.30150  0.72580  Biso   1.000  H
  H6       1.0000 0.33510  0.69850  0.22580  Biso   1.000  H
  H7       1.0000 0.55150  0.08510  0.47580  Biso   1.000  H
  H8       1.0000 0.94850  0.91490  0.97580  Biso   1.000  H
  H9       1.0000 0.83510  0.80150  0.77420  Biso   1.000  H
  H10      1.0000 0.66490  0.19850  0.27420  Biso   1.000  H
  H11      1.0000 0.44850  0.58510  0.02420  Biso   1.000  H
  H12      1.0000 0.05150  0.41490  0.52420  Biso   1.000  H
  H13      1.0000 0.66490  0.80150  0.22580  Biso   1.000  H
  H14      1.0000 0.83510  0.19850  0.72580  Biso   1.000  H
  H15      1.0000 0.05150  0.58510  0.97580  Biso   1.000  H
  H16      1.0000 0.44850  0.41490  0.47580  Biso   1.000  H
  H17      1.0000 0.66490  0.69850  0.72580  Biso   1.000  H
  H18      1.0000 0.83510  0.30150  0.22580  Biso   1.000  H
  H19      1.0000 0.55150  0.41490  0.97580  Biso   1.000  H
  H20      1.0000 0.94850  0.58510  0.47580  Biso   1.000  H
  H21      1.0000 0.83510  0.69850  0.27420  Biso   1.000  H
  H22      1.0000 0.66490  0.30150  0.77420  Biso   1.000  H
  H23      1.0000 0.94850  0.41490  0.02420  Biso   1.000  H
  H24      1.0000 0.55150  0.58510  0.52420  Biso   1.000  H
  H25      1.0000 0.16490  0.19850  0.22580  Biso   1.000  H
  H26      1.0000 0.33510  0.80150  0.72580  Biso   1.000  H
  H27      1.0000 0.05150  0.91490  0.47580  Biso   1.000  H
  H28      1.0000 0.44850  0.08510  0.97580  Biso   1.000  H
  H29      1.0000 0.33510  0.19850  0.77420  Biso   1.000  H
  H30      1.0000 0.16490  0.80150  0.27420  Biso   1.000  H
  H31      1.0000 0.44850  0.91490  0.52420  Biso   1.000  H
  H32      1.0000 0.05150  0.08510  0.02420  Biso   1.000  H
  H33      1.0000 0.37020  0.31870  0.19550  Biso   1.000  H
  H34      1.0000 0.12980  0.68130  0.69550  Biso   1.000  H
  H35      1.0000 0.93130  0.12020  0.44550  Biso   1.000  H
  H36      1.0000 0.56870  0.87980  0.94550  Biso   1.000  H
  H37      1.0000 0.12980  0.31870  0.80450  Biso   1.000  H
  H38      1.0000 0.37020  0.68130  0.30450  Biso   1.000  H
  H39      1.0000 0.56870  0.12020  0.55450  Biso   1.000  H
  H40      1.0000 0.93130  0.87980  0.05450  Biso   1.000  H
  H41      1.0000 0.87020  0.81870  0.69550  Biso   1.000  H
  H42      1.0000 0.62980  0.18130  0.19550  Biso   1.000  H
  H43      1.0000 0.43130  0.62020  0.94550  Biso   1.000  H
  H44      1.0000 0.06870  0.37980  0.44550  Biso   1.000  H
  H45      1.0000 0.62980  0.81870  0.30450  Biso   1.000  H
  H46      1.0000 0.87020  0.18130  0.80450  Biso   1.000  H
  H47      1.0000 0.06870  0.62020  0.05450  Biso   1.000  H
  H48      1.0000 0.43130  0.37980  0.55450  Biso   1.000  H
  H49      1.0000 0.62980  0.68130  0.80450  Biso   1.000  H
  H50      1.0000 0.87020  0.31870  0.30450  Biso   1.000  H
  H51      1.0000 0.56870  0.37980  0.05450  Biso   1.000  H
  H52      1.0000 0.93130  0.62020  0.55450  Biso   1.000  H
  H53      1.0000 0.87020  0.68130  0.19550  Biso   1.000  H
  H54      1.0000 0.62980  0.31870  0.69550  Biso   1.000  H
  H55      1.0000 0.93130  0.37980  0.94550  Biso   1.000  H
  H56      1.0000 0.56870  0.62020  0.44550  Biso   1.000  H
  H57      1.0000 0.12980  0.18130  0.30450  Biso   1.000  H
  H58      1.0000 0.37020  0.81870  0.80450  Biso   1.000  H
  H59      1.0000 0.06870  0.87980  0.55450  Biso   1.000  H
  H60      1.0000 0.43130  0.12020  0.05450  Biso   1.000  H
  H61      1.0000 0.37020  0.18130  0.69550  Biso   1.000  H
  H62      1.0000 0.12980  0.81870  0.19550  Biso   1.000  H
  H63      1.0000 0.43130  0.87980  0.44550  Biso   1.000  H
  H64      1.0000 0.06870  0.12020  0.94550  Biso   1.000  H
  C65      1.0000 0.35027  0.36332  0.30210  Biso   1.000  C
  C66      1.0000 0.14973  0.63668  0.80210  Biso   1.000  C
  C67      1.0000 0.88668  0.10027  0.55210  Biso   1.000  C
  C68      1.0000 0.61332  0.89973  0.05210  Biso   1.000  C
  C69      1.0000 0.14973  0.36332  0.69790  Biso   1.000  C
  C70      1.0000 0.35027  0.63668  0.19790  Biso   1.000  C
  C71      1.0000 0.61332  0.10027  0.44790  Biso   1.000  C
  C72      1.0000 0.88668  0.89973  0.94790  Biso   1.000  C
  C73      1.0000 0.85027  0.86332  0.80210  Biso   1.000  C
  C74      1.0000 0.64973  0.13668  0.30210  Biso   1.000  C
  C75      1.0000 0.38668  0.60027  0.05210  Biso   1.000  C
  C76      1.0000 0.11332  0.39973  0.55210  Biso   1.000  C
  C77      1.0000 0.64973  0.86332  0.19790  Biso   1.000  C
  C78      1.0000 0.85027  0.13668  0.69790  Biso   1.000  C
  C79      1.0000 0.11332  0.60027  0.94790  Biso   1.000  C
  C80      1.0000 0.38668  0.39973  0.44790  Biso   1.000  C
  C81      1.0000 0.64973  0.63668  0.69790  Biso   1.000  C
  C82      1.0000 0.85027  0.36332  0.19790  Biso   1.000  C
  C83      1.0000 0.61332  0.39973  0.94790  Biso   1.000  C
  C84      1.0000 0.88668  0.60027  0.44790  Biso   1.000  C
  C85      1.0000 0.85027  0.63668  0.30210  Biso   1.000  C
  C86      1.0000 0.64973  0.36332  0.80210  Biso   1.000  C
  C87      1.0000 0.88668  0.39973  0.05210  Biso   1.000  C
  C88      1.0000 0.61332  0.60027  0.55210  Biso   1.000  C
  C89      1.0000 0.14973  0.13668  0.19790  Biso   1.000  C
  C90      1.0000 0.35027  0.86332  0.69790  Biso   1.000  C
  C91      1.0000 0.11332  0.89973  0.44790  Biso   1.000  C
  C92      1.0000 0.38668  0.10027  0.94790  Biso   1.000  C
  C93      1.0000 0.35027  0.13668  0.80210  Biso   1.000  C
  C94      1.0000 0.14973  0.86332  0.30210  Biso   1.000  C
  C95      1.0000 0.38668  0.89973  0.55210  Biso   1.000  C
  C96      1.0000 0.11332  0.10027  0.05210  Biso   1.000  C
  H65      1.0000 0.32510  0.36690  0.34650  Biso   1.000  H
  H66      1.0000 0.17490  0.63310  0.84650  Biso   1.000  H
  H67      1.0000 0.88310  0.07510  0.59650  Biso   1.000  H
  H68      1.0000 0.61690  0.92490  0.09650  Biso   1.000  H
  H69      1.0000 0.17490  0.36690  0.65350  Biso   1.000  H
  H70      1.0000 0.32510  0.63310  0.15350  Biso   1.000  H
  H71      1.0000 0.61690  0.07510  0.40350  Biso   1.000  H
  H72      1.0000 0.88310  0.92490  0.90350  Biso   1.000  H
  H73      1.0000 0.82510  0.86690  0.84650  Biso   1.000  H
  H74      1.0000 0.67490  0.13310  0.34650  Biso   1.000  H
  H75      1.0000 0.38310  0.57510  0.09650  Biso   1.000  H
  H76      1.0000 0.11690  0.42490  0.59650  Biso   1.000  H
  H77      1.0000 0.67490  0.86690  0.15350  Biso   1.000  H
  H78      1.0000 0.82510  0.13310  0.65350  Biso   1.000  H
  H79      1.0000 0.11690  0.57510  0.90350  Biso   1.000  H
  H80      1.0000 0.38310  0.42490  0.40350  Biso   1.000  H
  H81      1.0000 0.67490  0.63310  0.65350  Biso   1.000  H
  H82      1.0000 0.82510  0.36690  0.15350  Biso   1.000  H
  H83      1.0000 0.61690  0.42490  0.90350  Biso   1.000  H
  H84      1.0000 0.88310  0.57510  0.40350  Biso   1.000  H
  H85      1.0000 0.82510  0.63310  0.34650  Biso   1.000  H
  H86      1.0000 0.67490  0.36690  0.84650  Biso   1.000  H
  H87      1.0000 0.88310  0.42490  0.09650  Biso   1.000  H
  H88      1.0000 0.61690  0.57510  0.59650  Biso   1.000  H
  H89      1.0000 0.17490  0.13310  0.15350  Biso   1.000  H
  H90      1.0000 0.32510  0.86690  0.65350  Biso   1.000  H
  H91      1.0000 0.11690  0.92490  0.40350  Biso   1.000  H
  H92      1.0000 0.38310  0.07510  0.90350  Biso   1.000  H
  H93      1.0000 0.32510  0.13310  0.84650  Biso   1.000  H
  H94      1.0000 0.17490  0.86690  0.34650  Biso   1.000  H
  H95      1.0000 0.38310  0.92490  0.59650  Biso   1.000  H
  H96      1.0000 0.11690  0.07510  0.09650  Biso   1.000  H
  H97      1.0000 0.35280  0.38860  0.25750  Biso   1.000  H
  H98      1.0000 0.14720  0.61140  0.75750  Biso   1.000  H
  H99      1.0000 0.86140  0.10280  0.50750  Biso   1.000  H
  H100     1.0000 0.63860  0.89720  0.00750  Biso   1.000  H
  H101     1.0000 0.14720  0.38860  0.74250  Biso   1.000  H
  H102     1.0000 0.35280  0.61140  0.24250  Biso   1.000  H
  H103     1.0000 0.63860  0.10280  0.49250  Biso   1.000  H
  H104     1.0000 0.86140  0.89720  0.99250  Biso   1.000  H
  H105     1.0000 0.85280  0.88860  0.75750  Biso   1.000  H
  H106     1.0000 0.64720  0.11140  0.25750  Biso   1.000  H
  H107     1.0000 0.36140  0.60280  0.00750  Biso   1.000  H
  H108     1.0000 0.13860  0.39720  0.50750  Biso   1.000  H
  H109     1.0000 0.64720  0.88860  0.24250  Biso   1.000  H
  H110     1.0000 0.85280  0.11140  0.74250  Biso   1.000  H
  H111     1.0000 0.13860  0.60280  0.99250  Biso   1.000  H
  H112     1.0000 0.36140  0.39720  0.49250  Biso   1.000  H
  H113     1.0000 0.64720  0.61140  0.74250  Biso   1.000  H
  H114     1.0000 0.85280  0.38860  0.24250  Biso   1.000  H
  H115     1.0000 0.63860  0.39720  0.99250  Biso   1.000  H
  H116     1.0000 0.86140  0.60280  0.49250  Biso   1.000  H
  H117     1.0000 0.85280  0.61140  0.25750  Biso   1.000  H
  H118     1.0000 0.64720  0.38860  0.75750  Biso   1.000  H
  H119     1.0000 0.86140  0.39720  0.00750  Biso   1.000  H
  H120     1.0000 0.63860  0.60280  0.50750  Biso   1.000  H
  H121     1.0000 0.14720  0.11140  0.24250  Biso   1.000  H
  H122     1.0000 0.35280  0.88860  0.74250  Biso   1.000  H
  H123     1.0000 0.13860  0.89720  0.49250  Biso   1.000  H
  H124     1.0000 0.36140  0.10280  0.99250  Biso   1.000  H
  H125     1.0000 0.35280  0.11140  0.75750  Biso   1.000  H
  H126     1.0000 0.14720  0.88860  0.25750  Biso   1.000  H
  H127     1.0000 0.36140  0.89720  0.50750  Biso   1.000  H
  H128     1.0000 0.13860  0.10280  0.00750  Biso   1.000  H
  C97      1.0000 0.38893  0.36107  0.37500  Biso   1.000  C
  C98      1.0000 0.11107  0.63893  0.87500  Biso   1.000  C
  C99      1.0000 0.88893  0.13893  0.62500  Biso   1.000  C
  C100     1.0000 0.61107  0.86107  0.12500  Biso   1.000  C
  C101     1.0000 0.11107  0.36107  0.62500  Biso   1.000  C
  C102     1.0000 0.38893  0.63893  0.12500  Biso   1.000  C
  C103     1.0000 0.61107  0.13893  0.37500  Biso   1.000  C
  C104     1.0000 0.88893  0.86107  0.87500  Biso   1.000  C
  C105     1.0000 0.61107  0.63893  0.62500  Biso   1.000  C
  C106     1.0000 0.88893  0.36107  0.12500  Biso   1.000  C
  C107     1.0000 0.61107  0.36107  0.87500  Biso   1.000  C
  C108     1.0000 0.88893  0.63893  0.37500  Biso   1.000  C
  C109     1.0000 0.11107  0.13893  0.12500  Biso   1.000  C
  C110     1.0000 0.38893  0.86107  0.62500  Biso   1.000  C
  C111     1.0000 0.11107  0.86107  0.37500  Biso   1.000  C
  C112     1.0000 0.38893  0.13893  0.87500  Biso   1.000  C
  C113     1.0000 0.39170  0.32079  0.43907  Biso   1.000  C
  C114     1.0000 0.10830  0.67921  0.93907  Biso   1.000  C
  C115     1.0000 0.92921  0.14170  0.68907  Biso   1.000  C
  C116     1.0000 0.57079  0.85830  0.18907  Biso   1.000  C
  C117     1.0000 0.10830  0.32079  0.56093  Biso   1.000  C
  C118     1.0000 0.39170  0.67921  0.06093  Biso   1.000  C
  C119     1.0000 0.57079  0.14170  0.31093  Biso   1.000  C
  C120     1.0000 0.92921  0.85830  0.81093  Biso   1.000  C
  C121     1.0000 0.89170  0.82079  0.93907  Biso   1.000  C
  C122     1.0000 0.60830  0.17921  0.43907  Biso   1.000  C
  C123     1.0000 0.42921  0.64170  0.18907  Biso   1.000  C
  C124     1.0000 0.07079  0.35830  0.68907  Biso   1.000  C
  C125     1.0000 0.60830  0.82079  0.06093  Biso   1.000  C
  C126     1.0000 0.89170  0.17921  0.56093  Biso   1.000  C
  C127     1.0000 0.07079  0.64170  0.81093  Biso   1.000  C
  C128     1.0000 0.42921  0.35830  0.31093  Biso   1.000  C
  C129     1.0000 0.60830  0.67921  0.56093  Biso   1.000  C
  C130     1.0000 0.89170  0.32079  0.06093  Biso   1.000  C
  C131     1.0000 0.57079  0.35830  0.81093  Biso   1.000  C
  C132     1.0000 0.92921  0.64170  0.31093  Biso   1.000  C
  C133     1.0000 0.89170  0.67921  0.43907  Biso   1.000  C
  C134     1.0000 0.60830  0.32079  0.93907  Biso   1.000  C
  C135     1.0000 0.92921  0.35830  0.18907  Biso   1.000  C
  C136     1.0000 0.57079  0.64170  0.68907  Biso   1.000  C
  C137     1.0000 0.10830  0.17921  0.06093  Biso   1.000  C
  C138     1.0000 0.39170  0.82079  0.56093  Biso   1.000  C
  C139     1.0000 0.07079  0.85830  0.31093  Biso   1.000  C
  C140     1.0000 0.42921  0.14170  0.81093  Biso   1.000  C
  C141     1.0000 0.39170  0.17921  0.93907  Biso   1.000  C
  C142     1.0000 0.10830  0.82079  0.43907  Biso   1.000  C
  C143     1.0000 0.42921  0.85830  0.68907  Biso   1.000  C
  C144     1.0000 0.07079  0.14170  0.18907  Biso   1.000  C
  C145     1.0000 0.36398  0.30574  0.51390  Biso   1.000  C
  C146     1.0000 0.13602  0.69426  0.01390  Biso   1.000  C
  C147     1.0000 0.94426  0.11398  0.76390  Biso   1.000  C
  C148     1.0000 0.55574  0.88602  0.26390  Biso   1.000  C
  C149     1.0000 0.13602  0.30574  0.48610  Biso   1.000  C
  C150     1.0000 0.36398  0.69426  0.98610  Biso   1.000  C
  C151     1.0000 0.55574  0.11398  0.23610  Biso   1.000  C
  C152     1.0000 0.94426  0.88602  0.73610  Biso   1.000  C
  C153     1.0000 0.86398  0.80574  0.01390  Biso   1.000  C
  C154     1.0000 0.63602  0.19426  0.51390  Biso   1.000  C
  C155     1.0000 0.44426  0.61398  0.26390  Biso   1.000  C
  C156     1.0000 0.05574  0.38602  0.76390  Biso   1.000  C
  C157     1.0000 0.63602  0.80574  0.98610  Biso   1.000  C
  C158     1.0000 0.86398  0.19426  0.48610  Biso   1.000  C
  C159     1.0000 0.05574  0.61398  0.73610  Biso   1.000  C
  C160     1.0000 0.44426  0.38602  0.23610  Biso   1.000  C
  C161     1.0000 0.63602  0.69426  0.48610  Biso   1.000  C
  C162     1.0000 0.86398  0.30574  0.98610  Biso   1.000  C
  C163     1.0000 0.55574  0.38602  0.73610  Biso   1.000  C
  C164     1.0000 0.94426  0.61398  0.23610  Biso   1.000  C
  C165     1.0000 0.86398  0.69426  0.51390  Biso   1.000  C
  C166     1.0000 0.63602  0.30574  0.01390  Biso   1.000  C
  C167     1.0000 0.94426  0.38602  0.26390  Biso   1.000  C
  C168     1.0000 0.55574  0.61398  0.76390  Biso   1.000  C
  C169     1.0000 0.13602  0.19426  0.98610  Biso   1.000  C
  C170     1.0000 0.36398  0.80574  0.48610  Biso   1.000  C
  C171     1.0000 0.05574  0.88602  0.23610  Biso   1.000  C
  C172     1.0000 0.44426  0.11398  0.73610  Biso   1.000  C
  C173     1.0000 0.36398  0.19426  0.01390  Biso   1.000  C
  C174     1.0000 0.13602  0.80574  0.51390  Biso   1.000  C
  C175     1.0000 0.44426  0.88602  0.76390  Biso   1.000  C
  C176     1.0000 0.05574  0.11398  0.26390  Biso   1.000  C
  H129     1.0000 0.33890  0.32050  0.52890  Biso   1.000  H
  H130     1.0000 0.16110  0.67950  0.02890  Biso   1.000  H
  H131     1.0000 0.92950  0.08890  0.77890  Biso   1.000  H
  H132     1.0000 0.57050  0.91110  0.27890  Biso   1.000  H
  H133     1.0000 0.16110  0.32050  0.47110  Biso   1.000  H
  H134     1.0000 0.33890  0.67950  0.97110  Biso   1.000  H
  H135     1.0000 0.57050  0.08890  0.22110  Biso   1.000  H
  H136     1.0000 0.92950  0.91110  0.72110  Biso   1.000  H
  H137     1.0000 0.83890  0.82050  0.02890  Biso   1.000  H
  H138     1.0000 0.66110  0.17950  0.52890  Biso   1.000  H
  H139     1.0000 0.42950  0.58890  0.27890  Biso   1.000  H
  H140     1.0000 0.07050  0.41110  0.77890  Biso   1.000  H
  H141     1.0000 0.66110  0.82050  0.97110  Biso   1.000  H
  H142     1.0000 0.83890  0.17950  0.47110  Biso   1.000  H
  H143     1.0000 0.07050  0.58890  0.72110  Biso   1.000  H
  H144     1.0000 0.42950  0.41110  0.22110  Biso   1.000  H
  H145     1.0000 0.66110  0.67950  0.47110  Biso   1.000  H
  H146     1.0000 0.83890  0.32050  0.97110  Biso   1.000  H
  H147     1.0000 0.57050  0.41110  0.72110  Biso   1.000  H
  H148     1.0000 0.92950  0.58890  0.22110  Biso   1.000  H
  H149     1.0000 0.83890  0.67950  0.52890  Biso   1.000  H
  H150     1.0000 0.66110  0.32050  0.02890  Biso   1.000  H
  H151     1.0000 0.92950  0.41110  0.27890  Biso   1.000  H
  H152     1.0000 0.57050  0.58890  0.77890  Biso   1.000  H
  H153     1.0000 0.16110  0.17950  0.97110  Biso   1.000  H
  H154     1.0000 0.33890  0.82050  0.47110  Biso   1.000  H
  H155     1.0000 0.07050  0.91110  0.22110  Biso   1.000  H
  H156     1.0000 0.42950  0.08890  0.72110  Biso   1.000  H
  H157     1.0000 0.33890  0.17950  0.02890  Biso   1.000  H
  H158     1.0000 0.16110  0.82050  0.52890  Biso   1.000  H
  H159     1.0000 0.42950  0.91110  0.77890  Biso   1.000  H
  H160     1.0000 0.07050  0.08890  0.27890  Biso   1.000  H
  C177     1.0000 0.37340  0.26881  0.56674  Biso   1.000  C
  C178     1.0000 0.12660  0.73119  0.06674  Biso   1.000  C
  C179     1.0000 0.98119  0.12340  0.81674  Biso   1.000  C
  C180     1.0000 0.51881  0.87660  0.31674  Biso   1.000  C
  C181     1.0000 0.12660  0.26881  0.43326  Biso   1.000  C
  C182     1.0000 0.37340  0.73119  0.93326  Biso   1.000  C
  C183     1.0000 0.51881  0.12340  0.18326  Biso   1.000  C
  C184     1.0000 0.98119  0.87660  0.68326  Biso   1.000  C
  C185     1.0000 0.87340  0.76881  0.06674  Biso   1.000  C
  C186     1.0000 0.62660  0.23119  0.56674  Biso   1.000  C
  C187     1.0000 0.48119  0.62340  0.31674  Biso   1.000  C
  C188     1.0000 0.01881  0.37660  0.81674  Biso   1.000  C
  C189     1.0000 0.62660  0.76881  0.93326  Biso   1.000  C
  C190     1.0000 0.87340  0.23119  0.43326  Biso   1.000  C
  C191     1.0000 0.01881  0.62340  0.68326  Biso   1.000  C
  C192     1.0000 0.48119  0.37660  0.18326  Biso   1.000  C
  C193     1.0000 0.62660  0.73119  0.43326  Biso   1.000  C
  C194     1.0000 0.87340  0.26881  0.93326  Biso   1.000  C
  C195     1.0000 0.51881  0.37660  0.68326  Biso   1.000  C
  C196     1.0000 0.98119  0.62340  0.18326  Biso   1.000  C
  C197     1.0000 0.87340  0.73119  0.56674  Biso   1.000  C
  C198     1.0000 0.62660  0.26881  0.06674  Biso   1.000  C
  C199     1.0000 0.98119  0.37660  0.31674  Biso   1.000  C
  C200     1.0000 0.51881  0.62340  0.81674  Biso   1.000  C
  C201     1.0000 0.12660  0.23119  0.93326  Biso   1.000  C
  C202     1.0000 0.37340  0.76881  0.43326  Biso   1.000  C
  C203     1.0000 0.01881  0.87660  0.18326  Biso   1.000  C
  C204     1.0000 0.48119  0.12340  0.68326  Biso   1.000  C
  C205     1.0000 0.37340  0.23119  0.06674  Biso   1.000  C
  C206     1.0000 0.12660  0.76881  0.56674  Biso   1.000  C
  C207     1.0000 0.48119  0.87660  0.81674  Biso   1.000  C
  C208     1.0000 0.01881  0.12340  0.31674  Biso   1.000  C
  H161     1.0000 0.35440  0.25810  0.61750  Biso   1.000  H
  H162     1.0000 0.14560  0.74190  0.11750  Biso   1.000  H
  H163     1.0000 0.99190  0.10440  0.86750  Biso   1.000  H
  H164     1.0000 0.50810  0.89560  0.36750  Biso   1.000  H
  H165     1.0000 0.14560  0.25810  0.38250  Biso   1.000  H
  H166     1.0000 0.35440  0.74190  0.88250  Biso   1.000  H
  H167     1.0000 0.50810  0.10440  0.13250  Biso   1.000  H
  H168     1.0000 0.99190  0.89560  0.63250  Biso   1.000  H
  H169     1.0000 0.85440  0.75810  0.11750  Biso   1.000  H
  H170     1.0000 0.64560  0.24190  0.61750  Biso   1.000  H
  H171     1.0000 0.49190  0.60440  0.36750  Biso   1.000  H
  H172     1.0000 0.00810  0.39560  0.86750  Biso   1.000  H
  H173     1.0000 0.64560  0.75810  0.88250  Biso   1.000  H
  H174     1.0000 0.85440  0.24190  0.38250  Biso   1.000  H
  H175     1.0000 0.00810  0.60440  0.63250  Biso   1.000  H
  H176     1.0000 0.49190  0.39560  0.13250  Biso   1.000  H
  H177     1.0000 0.64560  0.74190  0.38250  Biso   1.000  H
  H178     1.0000 0.85440  0.25810  0.88250  Biso   1.000  H
  H179     1.0000 0.50810  0.39560  0.63250  Biso   1.000  H
  H180     1.0000 0.99190  0.60440  0.13250  Biso   1.000  H
  H181     1.0000 0.85440  0.74190  0.61750  Biso   1.000  H
  H182     1.0000 0.64560  0.25810  0.11750  Biso   1.000  H
  H183     1.0000 0.99190  0.39560  0.36750  Biso   1.000  H
  H184     1.0000 0.50810  0.60440  0.86750  Biso   1.000  H
  H185     1.0000 0.14560  0.24190  0.88250  Biso   1.000  H
  H186     1.0000 0.35440  0.75810  0.38250  Biso   1.000  H
  H187     1.0000 0.00810  0.89560  0.13250  Biso   1.000  H
  H188     1.0000 0.49190  0.10440  0.63250  Biso   1.000  H
  H189     1.0000 0.35440  0.24190  0.11750  Biso   1.000  H
  H190     1.0000 0.14560  0.75810  0.61750  Biso   1.000  H
  H191     1.0000 0.49190  0.89560  0.86750  Biso   1.000  H
  H192     1.0000 0.00810  0.10440  0.36750  Biso   1.000  H
  C209     1.0000 0.41037  0.24752  0.54594  Biso   1.000  C
  C210     1.0000 0.08963  0.75248  0.04594  Biso   1.000  C
  C211     1.0000 0.00248  0.16037  0.79594  Biso   1.000  C
  C212     1.0000 0.49752  0.83963  0.29594  Biso   1.000  C
  C213     1.0000 0.08963  0.24752  0.45406  Biso   1.000  C
  C214     1.0000 0.41037  0.75248  0.95406  Biso   1.000  C
  C215     1.0000 0.49752  0.16037  0.20406  Biso   1.000  C
  C216     1.0000 0.00248  0.83963  0.70406  Biso   1.000  C
  C217     1.0000 0.91037  0.74752  0.04594  Biso   1.000  C
  C218     1.0000 0.58963  0.25248  0.54594  Biso   1.000  C
  C219     1.0000 0.50248  0.66037  0.29594  Biso   1.000  C
  C220     1.0000 0.99752  0.33963  0.79594  Biso   1.000  C
  C221     1.0000 0.58963  0.74752  0.95406  Biso   1.000  C
  C222     1.0000 0.91037  0.25248  0.45406  Biso   1.000  C
  C223     1.0000 0.99752  0.66037  0.70406  Biso   1.000  C
  C224     1.0000 0.50248  0.33963  0.20406  Biso   1.000  C
  C225     1.0000 0.58963  0.75248  0.45406  Biso   1.000  C
  C226     1.0000 0.91037  0.24752  0.95406  Biso   1.000  C
  C227     1.0000 0.49752  0.33963  0.70406  Biso   1.000  C
  C228     1.0000 0.00248  0.66037  0.20406  Biso   1.000  C
  C229     1.0000 0.91037  0.75248  0.54594  Biso   1.000  C
  C230     1.0000 0.58963  0.24752  0.04594  Biso   1.000  C
  C231     1.0000 0.00248  0.33963  0.29594  Biso   1.000  C
  C232     1.0000 0.49752  0.66037  0.79594  Biso   1.000  C
  C233     1.0000 0.08963  0.25248  0.95406  Biso   1.000  C
  C234     1.0000 0.41037  0.74752  0.45406  Biso   1.000  C
  C235     1.0000 0.99752  0.83963  0.20406  Biso   1.000  C
  C236     1.0000 0.50248  0.16037  0.70406  Biso   1.000  C
  C237     1.0000 0.41037  0.25248  0.04594  Biso   1.000  C
  C238     1.0000 0.08963  0.74752  0.54594  Biso   1.000  C
  C239     1.0000 0.50248  0.83963  0.79594  Biso   1.000  C
  C240     1.0000 0.99752  0.16037  0.29594  Biso   1.000  C
  H193     1.0000 0.41680  0.22280  0.58420  Biso   1.000  H
  H194     1.0000 0.08320  0.77720  0.08420  Biso   1.000  H
  H195     1.0000 0.02720  0.16680  0.83420  Biso   1.000  H
  H196     1.0000 0.47280  0.83320  0.33420  Biso   1.000  H
  H197     1.0000 0.08320  0.22280  0.41580  Biso   1.000  H
  H198     1.0000 0.41680  0.77720  0.91580  Biso   1.000  H
  H199     1.0000 0.47280  0.16680  0.16580  Biso   1.000  H
  H200     1.0000 0.02720  0.83320  0.66580  Biso   1.000  H
  H201     1.0000 0.91680  0.72280  0.08420  Biso   1.000  H
  H202     1.0000 0.58320  0.27720  0.58420  Biso   1.000  H
  H203     1.0000 0.52720  0.66680  0.33420  Biso   1.000  H
  H204     1.0000 0.97280  0.33320  0.83420  Biso   1.000  H
  H205     1.0000 0.58320  0.72280  0.91580  Biso   1.000  H
  H206     1.0000 0.91680  0.27720  0.41580  Biso   1.000  H
  H207     1.0000 0.97280  0.66680  0.66580  Biso   1.000  H
  H208     1.0000 0.52720  0.33320  0.16580  Biso   1.000  H
  H209     1.0000 0.58320  0.77720  0.41580  Biso   1.000  H
  H210     1.0000 0.91680  0.22280  0.91580  Biso   1.000  H
  H211     1.0000 0.47280  0.33320  0.66580  Biso   1.000  H
  H212     1.0000 0.02720  0.66680  0.16580  Biso   1.000  H
  H213     1.0000 0.91680  0.77720  0.58420  Biso   1.000  H
  H214     1.0000 0.58320  0.22280  0.08420  Biso   1.000  H
  H215     1.0000 0.02720  0.33320  0.33420  Biso   1.000  H
  H216     1.0000 0.47280  0.66680  0.83420  Biso   1.000  H
  H217     1.0000 0.08320  0.27720  0.91580  Biso   1.000  H
  H218     1.0000 0.41680  0.72280  0.41580  Biso   1.000  H
  H219     1.0000 0.97280  0.83320  0.16580  Biso   1.000  H
  H220     1.0000 0.52720  0.16680  0.66580  Biso   1.000  H
  H221     1.0000 0.41680  0.27720  0.08420  Biso   1.000  H
  H222     1.0000 0.08320  0.72280  0.58420  Biso   1.000  H
  H223     1.0000 0.52720  0.83320  0.83420  Biso   1.000  H
  H224     1.0000 0.97280  0.16680  0.33420  Biso   1.000  H
  C241     1.0000 0.43810  0.26197  0.46990  Biso   1.000  C
  C242     1.0000 0.06190  0.73803  0.96990  Biso   1.000  C
  C243     1.0000 0.98803  0.18810  0.71990  Biso   1.000  C
  C244     1.0000 0.51197  0.81190  0.21990  Biso   1.000  C
  C245     1.0000 0.06190  0.26197  0.53010  Biso   1.000  C
  C246     1.0000 0.43810  0.73803  0.03010  Biso   1.000  C
  C247     1.0000 0.51197  0.18810  0.28010  Biso   1.000  C
  C248     1.0000 0.98803  0.81190  0.78010  Biso   1.000  C
  C249     1.0000 0.93810  0.76197  0.96990  Biso   1.000  C
  C250     1.0000 0.56190  0.23803  0.46990  Biso   1.000  C
  C251     1.0000 0.48803  0.68810  0.21990  Biso   1.000  C
  C252     1.0000 0.01197  0.31190  0.71990  Biso   1.000  C
  C253     1.0000 0.56190  0.76197  0.03010  Biso   1.000  C
  C254     1.0000 0.93810  0.23803  0.53010  Biso   1.000  C
  C255     1.0000 0.01197  0.68810  0.78010  Biso   1.000  C
  C256     1.0000 0.48803  0.31190  0.28010  Biso   1.000  C
  C257     1.0000 0.56190  0.73803  0.53010  Biso   1.000  C
  C258     1.0000 0.93810  0.26197  0.03010  Biso   1.000  C
  C259     1.0000 0.51197  0.31190  0.78010  Biso   1.000  C
  C260     1.0000 0.98803  0.68810  0.28010  Biso   1.000  C
  C261     1.0000 0.93810  0.73803  0.46990  Biso   1.000  C
  C262     1.0000 0.56190  0.26197  0.96990  Biso   1.000  C
  C263     1.0000 0.98803  0.31190  0.21990  Biso   1.000  C
  C264     1.0000 0.51197  0.68810  0.71990  Biso   1.000  C
  C265     1.0000 0.06190  0.23803  0.03010  Biso   1.000  C
  C266     1.0000 0.43810  0.76197  0.53010  Biso   1.000  C
  C267     1.0000 0.01197  0.81190  0.28010  Biso   1.000  C
  C268     1.0000 0.48803  0.18810  0.78010  Biso   1.000  C
  C269     1.0000 0.43810  0.23803  0.96990  Biso   1.000  C
  C270     1.0000 0.06190  0.76197  0.46990  Biso   1.000  C
  C271     1.0000 0.48803  0.81190  0.71990  Biso   1.000  C
  C272     1.0000 0.01197  0.18810  0.21990  Biso   1.000  C
  H225     1.0000 0.46310  0.24710  0.45500  Biso   1.000  H
  H226     1.0000 0.03690  0.75290  0.95500  Biso   1.000  H
  H227     1.0000 0.00290  0.21310  0.70500  Biso   1.000  H
  H228     1.0000 0.49710  0.78690  0.20500  Biso   1.000  H
  H229     1.0000 0.03690  0.24710  0.54500  Biso   1.000  H
  H230     1.0000 0.46310  0.75290  0.04500  Biso   1.000  H
  H231     1.0000 0.49710  0.21310  0.29500  Biso   1.000  H
  H232     1.0000 0.00290  0.78690  0.79500  Biso   1.000  H
  H233     1.0000 0.96310  0.74710  0.95500  Biso   1.000  H
  H234     1.0000 0.53690  0.25290  0.45500  Biso   1.000  H
  H235     1.0000 0.50290  0.71310  0.20500  Biso   1.000  H
  H236     1.0000 0.99710  0.28690  0.70500  Biso   1.000  H
  H237     1.0000 0.53690  0.74710  0.04500  Biso   1.000  H
  H238     1.0000 0.96310  0.25290  0.54500  Biso   1.000  H
  H239     1.0000 0.99710  0.71310  0.79500  Biso   1.000  H
  H240     1.0000 0.50290  0.28690  0.29500  Biso   1.000  H
  H241     1.0000 0.53690  0.75290  0.54500  Biso   1.000  H
  H242     1.0000 0.96310  0.24710  0.04500  Biso   1.000  H
  H243     1.0000 0.49710  0.28690  0.79500  Biso   1.000  H
  H244     1.0000 0.00290  0.71310  0.29500  Biso   1.000  H
  H245     1.0000 0.96310  0.75290  0.45500  Biso   1.000  H
  H246     1.0000 0.53690  0.24710  0.95500  Biso   1.000  H
  H247     1.0000 0.00290  0.28690  0.20500  Biso   1.000  H
  H248     1.0000 0.49710  0.71310  0.70500  Biso   1.000  H
  H249     1.0000 0.03690  0.25290  0.04500  Biso   1.000  H
  H250     1.0000 0.46310  0.74710  0.54500  Biso   1.000  H
  H251     1.0000 0.99710  0.78690  0.29500  Biso   1.000  H
  H252     1.0000 0.50290  0.21310  0.79500  Biso   1.000  H
  H253     1.0000 0.46310  0.25290  0.95500  Biso   1.000  H
  H254     1.0000 0.03690  0.74710  0.45500  Biso   1.000  H
  H255     1.0000 0.50290  0.78690  0.70500  Biso   1.000  H
  H256     1.0000 0.99710  0.21310  0.20500  Biso   1.000  H
  C273     1.0000 0.42847  0.29874  0.41597  Biso   1.000  C
  C274     1.0000 0.07153  0.70126  0.91597  Biso   1.000  C
  C275     1.0000 0.95126  0.17847  0.66597  Biso   1.000  C
  C276     1.0000 0.54874  0.82153  0.16597  Biso   1.000  C
  C277     1.0000 0.07153  0.29874  0.58403  Biso   1.000  C
  C278     1.0000 0.42847  0.70126  0.08403  Biso   1.000  C
  C279     1.0000 0.54874  0.17847  0.33403  Biso   1.000  C
  C280     1.0000 0.95126  0.82153  0.83403  Biso   1.000  C
  C281     1.0000 0.92847  0.79874  0.91597  Biso   1.000  C
  C282     1.0000 0.57153  0.20126  0.41597  Biso   1.000  C
  C283     1.0000 0.45126  0.67847  0.16597  Biso   1.000  C
  C284     1.0000 0.04874  0.32153  0.66597  Biso   1.000  C
  C285     1.0000 0.57153  0.79874  0.08403  Biso   1.000  C
  C286     1.0000 0.92847  0.20126  0.58403  Biso   1.000  C
  C287     1.0000 0.04874  0.67847  0.83403  Biso   1.000  C
  C288     1.0000 0.45126  0.32153  0.33403  Biso   1.000  C
  C289     1.0000 0.57153  0.70126  0.58403  Biso   1.000  C
  C290     1.0000 0.92847  0.29874  0.08403  Biso   1.000  C
  C291     1.0000 0.54874  0.32153  0.83403  Biso   1.000  C
  C292     1.0000 0.95126  0.67847  0.33403  Biso   1.000  C
  C293     1.0000 0.92847  0.70126  0.41597  Biso   1.000  C
  C294     1.0000 0.57153  0.29874  0.91597  Biso   1.000  C
  C295     1.0000 0.95126  0.32153  0.16597  Biso   1.000  C
  C296     1.0000 0.54874  0.67847  0.66597  Biso   1.000  C
  C297     1.0000 0.07153  0.20126  0.08403  Biso   1.000  C
  C298     1.0000 0.42847  0.79874  0.58403  Biso   1.000  C
  C299     1.0000 0.04874  0.82153  0.33403  Biso   1.000  C
  C300     1.0000 0.45126  0.17847  0.83403  Biso   1.000  C
  C301     1.0000 0.42847  0.20126  0.91597  Biso   1.000  C
  C302     1.0000 0.07153  0.79874  0.41597  Biso   1.000  C
  C303     1.0000 0.45126  0.82153  0.66597  Biso   1.000  C
  C304     1.0000 0.04874  0.17847  0.16597  Biso   1.000  C
  C305     1.0000 0.29609  0.35830  0.84908  Biso   1.000  C
  C306     1.0000 0.20391  0.64170  0.34908  Biso   1.000  C
  C307     1.0000 0.89170  0.04609  0.09908  Biso   1.000  C
  C308     1.0000 0.60830  0.95391  0.59908  Biso   1.000  C
  C309     1.0000 0.20391  0.35830  0.15092  Biso   1.000  C
  C310     1.0000 0.29609  0.64170  0.65092  Biso   1.000  C
  C311     1.0000 0.60830  0.04609  0.90092  Biso   1.000  C
  C312     1.0000 0.89170  0.95391  0.40092  Biso   1.000  C
  C313     1.0000 0.79609  0.85830  0.34908  Biso   1.000  C
  C314     1.0000 0.70391  0.14170  0.84908  Biso   1.000  C
  C315     1.0000 0.39170  0.54609  0.59908  Biso   1.000  C
  C316     1.0000 0.10830  0.45391  0.09908  Biso   1.000  C
  C317     1.0000 0.70391  0.85830  0.65092  Biso   1.000  C
  C318     1.0000 0.79609  0.14170  0.15092  Biso   1.000  C
  C319     1.0000 0.10830  0.54609  0.40092  Biso   1.000  C
  C320     1.0000 0.39170  0.45391  0.90092  Biso   1.000  C
  C321     1.0000 0.70391  0.64170  0.15092  Biso   1.000  C
  C322     1.0000 0.79609  0.35830  0.65092  Biso   1.000  C
  C323     1.0000 0.60830  0.45391  0.40092  Biso   1.000  C
  C324     1.0000 0.89170  0.54609  0.90092  Biso   1.000  C
  C325     1.0000 0.79609  0.64170  0.84908  Biso   1.000  C
  C326     1.0000 0.70391  0.35830  0.34908  Biso   1.000  C
  C327     1.0000 0.89170  0.45391  0.59908  Biso   1.000  C
  C328     1.0000 0.60830  0.54609  0.09908  Biso   1.000  C
  C329     1.0000 0.20391  0.14170  0.65092  Biso   1.000  C
  C330     1.0000 0.29609  0.85830  0.15092  Biso   1.000  C
  C331     1.0000 0.10830  0.95391  0.90092  Biso   1.000  C
  C332     1.0000 0.39170  0.04609  0.40092  Biso   1.000  C
  C333     1.0000 0.29609  0.14170  0.34908  Biso   1.000  C
  C334     1.0000 0.20391  0.85830  0.84908  Biso   1.000  C
  C335     1.0000 0.39170  0.95391  0.09908  Biso   1.000  C
  C336     1.0000 0.10830  0.04609  0.59908  Biso   1.000  C
  H257     1.0000 0.27320  0.37670  0.86100  Biso   1.000  H
  H258     1.0000 0.22680  0.62330  0.36100  Biso   1.000  H
  H259     1.0000 0.87330  0.02320  0.11100  Biso   1.000  H
  H260     1.0000 0.62670  0.97680  0.61100  Biso   1.000  H
  H261     1.0000 0.22680  0.37670  0.13900  Biso   1.000  H
  H262     1.0000 0.27320  0.62330  0.63900  Biso   1.000  H
  H263     1.0000 0.62670  0.02320  0.88900  Biso   1.000  H
  H264     1.0000 0.87330  0.97680  0.38900  Biso   1.000  H
  H265     1.0000 0.77320  0.87670  0.36100  Biso   1.000  H
  H266     1.0000 0.72680  0.12330  0.86100  Biso   1.000  H
  H267     1.0000 0.37330  0.52320  0.61100  Biso   1.000  H
  H268     1.0000 0.12670  0.47680  0.11100  Biso   1.000  H
  H269     1.0000 0.72680  0.87670  0.63900  Biso   1.000  H
  H270     1.0000 0.77320  0.12330  0.13900  Biso   1.000  H
  H271     1.0000 0.12670  0.52320  0.38900  Biso   1.000  H
  H272     1.0000 0.37330  0.47680  0.88900  Biso   1.000  H
  H273     1.0000 0.72680  0.62330  0.13900  Biso   1.000  H
  H274     1.0000 0.77320  0.37670  0.63900  Biso   1.000  H
  H275     1.0000 0.62670  0.47680  0.38900  Biso   1.000  H
  H276     1.0000 0.87330  0.52320  0.88900  Biso   1.000  H
  H277     1.0000 0.77320  0.62330  0.86100  Biso   1.000  H
  H278     1.0000 0.72680  0.37670  0.36100  Biso   1.000  H
  H279     1.0000 0.87330  0.47680  0.61100  Biso   1.000  H
  H280     1.0000 0.62670  0.52320  0.11100  Biso   1.000  H
  H281     1.0000 0.22680  0.12330  0.63900  Biso   1.000  H
  H282     1.0000 0.27320  0.87670  0.13900  Biso   1.000  H
  H283     1.0000 0.12670  0.97680  0.88900  Biso   1.000  H
  H284     1.0000 0.37330  0.02320  0.38900  Biso   1.000  H
  H285     1.0000 0.27320  0.12330  0.36100  Biso   1.000  H
  H286     1.0000 0.22680  0.87670  0.86100  Biso   1.000  H
  H287     1.0000 0.37330  0.97680  0.11100  Biso   1.000  H
  H288     1.0000 0.12670  0.02320  0.61100  Biso   1.000  H
  C337     1.0000 0.32814  0.37096  0.78202  Biso   1.000  C
  C338     1.0000 0.17186  0.62904  0.28202  Biso   1.000  C
  C339     1.0000 0.87904  0.07814  0.03202  Biso   1.000  C
  C340     1.0000 0.62096  0.92186  0.53202  Biso   1.000  C
  C341     1.0000 0.17186  0.37096  0.21798  Biso   1.000  C
  C342     1.0000 0.32814  0.62904  0.71798  Biso   1.000  C
  C343     1.0000 0.62096  0.07814  0.96798  Biso   1.000  C
  C344     1.0000 0.87904  0.92186  0.46798  Biso   1.000  C
  C345     1.0000 0.82814  0.87096  0.28202  Biso   1.000  C
  C346     1.0000 0.67186  0.12904  0.78202  Biso   1.000  C
  C347     1.0000 0.37904  0.57814  0.53202  Biso   1.000  C
  C348     1.0000 0.12096  0.42186  0.03202  Biso   1.000  C
  C349     1.0000 0.67186  0.87096  0.71798  Biso   1.000  C
  C350     1.0000 0.82814  0.12904  0.21798  Biso   1.000  C
  C351     1.0000 0.12096  0.57814  0.46798  Biso   1.000  C
  C352     1.0000 0.37904  0.42186  0.96798  Biso   1.000  C
  C353     1.0000 0.67186  0.62904  0.21798  Biso   1.000  C
  C354     1.0000 0.82814  0.37096  0.71798  Biso   1.000  C
  C355     1.0000 0.62096  0.42186  0.46798  Biso   1.000  C
  C356     1.0000 0.87904  0.57814  0.96798  Biso   1.000  C
  C357     1.0000 0.82814  0.62904  0.78202  Biso   1.000  C
  C358     1.0000 0.67186  0.37096  0.28202  Biso   1.000  C
  C359     1.0000 0.87904  0.42186  0.53202  Biso   1.000  C
  C360     1.0000 0.62096  0.57814  0.03202  Biso   1.000  C
  C361     1.0000 0.17186  0.12904  0.71798  Biso   1.000  C
  C362     1.0000 0.32814  0.87096  0.21798  Biso   1.000  C
  C363     1.0000 0.12096  0.92186  0.96798  Biso   1.000  C
  C364     1.0000 0.37904  0.07814  0.46798  Biso   1.000  C
  C365     1.0000 0.32814  0.12904  0.28202  Biso   1.000  C
  C366     1.0000 0.17186  0.87096  0.78202  Biso   1.000  C
  C367     1.0000 0.37904  0.92186  0.03202  Biso   1.000  C
  C368     1.0000 0.12096  0.07814  0.53202  Biso   1.000  C
  H289     1.0000 0.32680  0.39740  0.74800  Biso   1.000  H
  H290     1.0000 0.17320  0.60260  0.24800  Biso   1.000  H
  H291     1.0000 0.85260  0.07680  0.99800  Biso   1.000  H
  H292     1.0000 0.64740  0.92320  0.49800  Biso   1.000  H
  H293     1.0000 0.17320  0.39740  0.25200  Biso   1.000  H
  H294     1.0000 0.32680  0.60260  0.75200  Biso   1.000  H
  H295     1.0000 0.64740  0.07680  0.00200  Biso   1.000  H
  H296     1.0000 0.85260  0.92320  0.50200  Biso   1.000  H
  H297     1.0000 0.82680  0.89740  0.24800  Biso   1.000  H
  H298     1.0000 0.67320  0.10260  0.74800  Biso   1.000  H
  H299     1.0000 0.35260  0.57680  0.49800  Biso   1.000  H
  H300     1.0000 0.14740  0.42320  0.99800  Biso   1.000  H
  H301     1.0000 0.67320  0.89740  0.75200  Biso   1.000  H
  H302     1.0000 0.82680  0.10260  0.25200  Biso   1.000  H
  H303     1.0000 0.14740  0.57680  0.50200  Biso   1.000  H
  H304     1.0000 0.35260  0.42320  0.00200  Biso   1.000  H
  H305     1.0000 0.67320  0.60260  0.25200  Biso   1.000  H
  H306     1.0000 0.82680  0.39740  0.75200  Biso   1.000  H
  H307     1.0000 0.64740  0.42320  0.50200  Biso   1.000  H
  H308     1.0000 0.85260  0.57680  0.00200  Biso   1.000  H
  H309     1.0000 0.82680  0.60260  0.74800  Biso   1.000  H
  H310     1.0000 0.67320  0.39740  0.24800  Biso   1.000  H
  H311     1.0000 0.85260  0.42320  0.49800  Biso   1.000  H
  H312     1.0000 0.64740  0.57680  0.99800  Biso   1.000  H
  H313     1.0000 0.17320  0.10260  0.75200  Biso   1.000  H
  H314     1.0000 0.32680  0.89740  0.25200  Biso   1.000  H
  H315     1.0000 0.14740  0.92320  0.00200  Biso   1.000  H
  H316     1.0000 0.35260  0.07680  0.50200  Biso   1.000  H
  H317     1.0000 0.32680  0.10260  0.24800  Biso   1.000  H
  H318     1.0000 0.17320  0.89740  0.74800  Biso   1.000  H
  H319     1.0000 0.35260  0.92320  0.99800  Biso   1.000  H
  H320     1.0000 0.14740  0.07680  0.49800  Biso   1.000  H
  C369     1.0000 0.36116  0.34544  0.76553  Biso   1.000  C
  C370     1.0000 0.13884  0.65456  0.26553  Biso   1.000  C
  C371     1.0000 0.90456  0.11116  0.01553  Biso   1.000  C
  C372     1.0000 0.59544  0.88884  0.51553  Biso   1.000  C
  C373     1.0000 0.13884  0.34544  0.23447  Biso   1.000  C
  C374     1.0000 0.36116  0.65456  0.73447  Biso   1.000  C
  C375     1.0000 0.59544  0.11116  0.98447  Biso   1.000  C
  C376     1.0000 0.90456  0.88884  0.48447  Biso   1.000  C
  C377     1.0000 0.86116  0.84544  0.26553  Biso   1.000  C
  C378     1.0000 0.63884  0.15456  0.76553  Biso   1.000  C
  C379     1.0000 0.40456  0.61116  0.51553  Biso   1.000  C
  C380     1.0000 0.09544  0.38884  0.01553  Biso   1.000  C
  C381     1.0000 0.63884  0.84544  0.73447  Biso   1.000  C
  C382     1.0000 0.86116  0.15456  0.23447  Biso   1.000  C
  C383     1.0000 0.09544  0.61116  0.48447  Biso   1.000  C
  C384     1.0000 0.40456  0.38884  0.98447  Biso   1.000  C
  C385     1.0000 0.63884  0.65456  0.23447  Biso   1.000  C
  C386     1.0000 0.86116  0.34544  0.73447  Biso   1.000  C
  C387     1.0000 0.59544  0.38884  0.48447  Biso   1.000  C
  C388     1.0000 0.90456  0.61116  0.98447  Biso   1.000  C
  C389     1.0000 0.86116  0.65456  0.76553  Biso   1.000  C
  C390     1.0000 0.63884  0.34544  0.26553  Biso   1.000  C
  C391     1.0000 0.90456  0.38884  0.51553  Biso   1.000  C
  C392     1.0000 0.59544  0.61116  0.01553  Biso   1.000  C
  C393     1.0000 0.13884  0.15456  0.73447  Biso   1.000  C
  C394     1.0000 0.36116  0.84544  0.23447  Biso   1.000  C
  C395     1.0000 0.09544  0.88884  0.98447  Biso   1.000  C
  C396     1.0000 0.40456  0.11116  0.48447  Biso   1.000  C
  C397     1.0000 0.36116  0.15456  0.26553  Biso   1.000  C
  C398     1.0000 0.13884  0.84544  0.76553  Biso   1.000  C
  C399     1.0000 0.40456  0.88884  0.01553  Biso   1.000  C
  C400     1.0000 0.09544  0.11116  0.51553  Biso   1.000  C
  H321     1.0000 0.38340  0.35370  0.72050  Biso   1.000  H
  H322     1.0000 0.11660  0.64630  0.22050  Biso   1.000  H
  H323     1.0000 0.89630  0.13340  0.97050  Biso   1.000  H
  H324     1.0000 0.60370  0.86660  0.47050  Biso   1.000  H
  H325     1.0000 0.11660  0.35370  0.27950  Biso   1.000  H
  H326     1.0000 0.38340  0.64630  0.77950  Biso   1.000  H
  H327     1.0000 0.60370  0.13340  0.02950  Biso   1.000  H
  H328     1.0000 0.89630  0.86660  0.52950  Biso   1.000  H
  H329     1.0000 0.88340  0.85370  0.22050  Biso   1.000  H
  H330     1.0000 0.61660  0.14630  0.72050  Biso   1.000  H
  H331     1.0000 0.39630  0.63340  0.47050  Biso   1.000  H
  H332     1.0000 0.10370  0.36660  0.97050  Biso   1.000  H
  H333     1.0000 0.61660  0.85370  0.77950  Biso   1.000  H
  H334     1.0000 0.88340  0.14630  0.27950  Biso   1.000  H
  H335     1.0000 0.10370  0.63340  0.52950  Biso   1.000  H
  H336     1.0000 0.39630  0.36660  0.02950  Biso   1.000  H
  H337     1.0000 0.61660  0.64630  0.27950  Biso   1.000  H
  H338     1.0000 0.88340  0.35370  0.77950  Biso   1.000  H
  H339     1.0000 0.60370  0.36660  0.52950  Biso   1.000  H
  H340     1.0000 0.89630  0.63340  0.02950  Biso   1.000  H
  H341     1.0000 0.88340  0.64630  0.72050  Biso   1.000  H
  H342     1.0000 0.61660  0.35370  0.22050  Biso   1.000  H
  H343     1.0000 0.89630  0.36660  0.47050  Biso   1.000  H
  H344     1.0000 0.60370  0.63340  0.97050  Biso   1.000  H
  H345     1.0000 0.11660  0.14630  0.77950  Biso   1.000  H
  H346     1.0000 0.38340  0.85370  0.27950  Biso   1.000  H
  H347     1.0000 0.10370  0.86660  0.02950  Biso   1.000  H
  H348     1.0000 0.39630  0.13340  0.52950  Biso   1.000  H
  H349     1.0000 0.38340  0.14630  0.22050  Biso   1.000  H
  H350     1.0000 0.11660  0.85370  0.72050  Biso   1.000  H
  H351     1.0000 0.39630  0.86660  0.97050  Biso   1.000  H
  H352     1.0000 0.10370  0.13340  0.47050  Biso   1.000  H
  C401     1.0000 0.36190  0.30734  0.81520  Biso   1.000  C
  C402     1.0000 0.13810  0.69266  0.31520  Biso   1.000  C
  C403     1.0000 0.94266  0.11190  0.06520  Biso   1.000  C
  C404     1.0000 0.55734  0.88810  0.56520  Biso   1.000  C
  C405     1.0000 0.13810  0.30734  0.18480  Biso   1.000  C
  C406     1.0000 0.36190  0.69266  0.68480  Biso   1.000  C
  C407     1.0000 0.55734  0.11190  0.93480  Biso   1.000  C
  C408     1.0000 0.94266  0.88810  0.43480  Biso   1.000  C
  C409     1.0000 0.86190  0.80734  0.31520  Biso   1.000  C
  C410     1.0000 0.63810  0.19266  0.81520  Biso   1.000  C
  C411     1.0000 0.44266  0.61190  0.56520  Biso   1.000  C
  C412     1.0000 0.05734  0.38810  0.06520  Biso   1.000  C
  C413     1.0000 0.63810  0.80734  0.68480  Biso   1.000  C
  C414     1.0000 0.86190  0.19266  0.18480  Biso   1.000  C
  C415     1.0000 0.05734  0.61190  0.43480  Biso   1.000  C
  C416     1.0000 0.44266  0.38810  0.93480  Biso   1.000  C
  C417     1.0000 0.63810  0.69266  0.18480  Biso   1.000  C
  C418     1.0000 0.86190  0.30734  0.68480  Biso   1.000  C
  C419     1.0000 0.55734  0.38810  0.43480  Biso   1.000  C
  C420     1.0000 0.94266  0.61190  0.93480  Biso   1.000  C
  C421     1.0000 0.86190  0.69266  0.81520  Biso   1.000  C
  C422     1.0000 0.63810  0.30734  0.31520  Biso   1.000  C
  C423     1.0000 0.94266  0.38810  0.56520  Biso   1.000  C
  C424     1.0000 0.55734  0.61190  0.06520  Biso   1.000  C
  C425     1.0000 0.13810  0.19266  0.68480  Biso   1.000  C
  C426     1.0000 0.36190  0.80734  0.18480  Biso   1.000  C
  C427     1.0000 0.05734  0.88810  0.93480  Biso   1.000  C
  C428     1.0000 0.44266  0.11190  0.43480  Biso   1.000  C
  C429     1.0000 0.36190  0.19266  0.31520  Biso   1.000  C
  C430     1.0000 0.13810  0.80734  0.81520  Biso   1.000  C
  C431     1.0000 0.44266  0.88810  0.06520  Biso   1.000  C
  C432     1.0000 0.05734  0.11190  0.56520  Biso   1.000  C
  H353     1.0000 0.38480  0.28880  0.80510  Biso   1.000  H
  H354     1.0000 0.11520  0.71120  0.30510  Biso   1.000  H
  H355     1.0000 0.96120  0.13480  0.05510  Biso   1.000  H
  H356     1.0000 0.53880  0.86520  0.55510  Biso   1.000  H
  H357     1.0000 0.11520  0.28880  0.19490  Biso   1.000  H
  H358     1.0000 0.38480  0.71120  0.69490  Biso   1.000  H
  H359     1.0000 0.53880  0.13480  0.94490  Biso   1.000  H
  H360     1.0000 0.96120  0.86520  0.44490  Biso   1.000  H
  H361     1.0000 0.88480  0.78880  0.30510  Biso   1.000  H
  H362     1.0000 0.61520  0.21120  0.80510  Biso   1.000  H
  H363     1.0000 0.46120  0.63480  0.55510  Biso   1.000  H
  H364     1.0000 0.03880  0.36520  0.05510  Biso   1.000  H
  H365     1.0000 0.61520  0.78880  0.69490  Biso   1.000  H
  H366     1.0000 0.88480  0.21120  0.19490  Biso   1.000  H
  H367     1.0000 0.03880  0.63480  0.44490  Biso   1.000  H
  H368     1.0000 0.46120  0.36520  0.94490  Biso   1.000  H
  H369     1.0000 0.61520  0.71120  0.19490  Biso   1.000  H
  H370     1.0000 0.88480  0.28880  0.69490  Biso   1.000  H
  H371     1.0000 0.53880  0.36520  0.44490  Biso   1.000  H
  H372     1.0000 0.96120  0.63480  0.94490  Biso   1.000  H
  H373     1.0000 0.88480  0.71120  0.80510  Biso   1.000  H
  H374     1.0000 0.61520  0.28880  0.30510  Biso   1.000  H
  H375     1.0000 0.96120  0.36520  0.55510  Biso   1.000  H
  H376     1.0000 0.53880  0.63480  0.05510  Biso   1.000  H
  H377     1.0000 0.11520  0.21120  0.69490  Biso   1.000  H
  H378     1.0000 0.38480  0.78880  0.19490  Biso   1.000  H
  H379     1.0000 0.03880  0.86520  0.94490  Biso   1.000  H
  H380     1.0000 0.46120  0.13480  0.44490  Biso   1.000  H
  H381     1.0000 0.38480  0.21120  0.30510  Biso   1.000  H
  H382     1.0000 0.11520  0.78880  0.80510  Biso   1.000  H
  H383     1.0000 0.46120  0.86520  0.05510  Biso   1.000  H
  H384     1.0000 0.03880  0.13480  0.55510  Biso   1.000  H
  C433     1.0000 0.32895  0.29616  0.88024  Biso   1.000  C
  C434     1.0000 0.17105  0.70384  0.38024  Biso   1.000  C
  C435     1.0000 0.95384  0.07895  0.13024  Biso   1.000  C
  C436     1.0000 0.54616  0.92105  0.63024  Biso   1.000  C
  C437     1.0000 0.17105  0.29616  0.11976  Biso   1.000  C
  C438     1.0000 0.32895  0.70384  0.61976  Biso   1.000  C
  C439     1.0000 0.54616  0.07895  0.86976  Biso   1.000  C
  C440     1.0000 0.95384  0.92105  0.36976  Biso   1.000  C
  C441     1.0000 0.82895  0.79616  0.38024  Biso   1.000  C
  C442     1.0000 0.67105  0.20384  0.88024  Biso   1.000  C
  C443     1.0000 0.45384  0.57895  0.63024  Biso   1.000  C
  C444     1.0000 0.04616  0.42105  0.13024  Biso   1.000  C
  C445     1.0000 0.67105  0.79616  0.61976  Biso   1.000  C
  C446     1.0000 0.82895  0.20384  0.11976  Biso   1.000  C
  C447     1.0000 0.04616  0.57895  0.36976  Biso   1.000  C
  C448     1.0000 0.45384  0.42105  0.86976  Biso   1.000  C
  C449     1.0000 0.67105  0.70384  0.11976  Biso   1.000  C
  C450     1.0000 0.82895  0.29616  0.61976  Biso   1.000  C
  C451     1.0000 0.54616  0.42105  0.36976  Biso   1.000  C
  C452     1.0000 0.95384  0.57895  0.86976  Biso   1.000  C
  C453     1.0000 0.82895  0.70384  0.88024  Biso   1.000  C
  C454     1.0000 0.67105  0.29616  0.38024  Biso   1.000  C
  C455     1.0000 0.95384  0.42105  0.63024  Biso   1.000  C
  C456     1.0000 0.54616  0.57895  0.13024  Biso   1.000  C
  C457     1.0000 0.17105  0.20384  0.61976  Biso   1.000  C
  C458     1.0000 0.32895  0.79616  0.11976  Biso   1.000  C
  C459     1.0000 0.04616  0.92105  0.86976  Biso   1.000  C
  C460     1.0000 0.45384  0.07895  0.36976  Biso   1.000  C
  C461     1.0000 0.32895  0.20384  0.38024  Biso   1.000  C
  C462     1.0000 0.17105  0.79616  0.88024  Biso   1.000  C
  C463     1.0000 0.45384  0.92105  0.13024  Biso   1.000  C
  C464     1.0000 0.04616  0.07895  0.63024  Biso   1.000  C
  H385     1.0000 0.32970  0.26960  0.91400  Biso   1.000  H
  H386     1.0000 0.17030  0.73040  0.41400  Biso   1.000  H
  H387     1.0000 0.98040  0.07970  0.16400  Biso   1.000  H
  H388     1.0000 0.51960  0.92030  0.66400  Biso   1.000  H
  H389     1.0000 0.17030  0.26960  0.08600  Biso   1.000  H
  H390     1.0000 0.32970  0.73040  0.58600  Biso   1.000  H
  H391     1.0000 0.51960  0.07970  0.83600  Biso   1.000  H
  H392     1.0000 0.98040  0.92030  0.33600  Biso   1.000  H
  H393     1.0000 0.82970  0.76960  0.41400  Biso   1.000  H
  H394     1.0000 0.67030  0.23040  0.91400  Biso   1.000  H
  H395     1.0000 0.48040  0.57970  0.66400  Biso   1.000  H
  H396     1.0000 0.01960  0.42030  0.16400  Biso   1.000  H
  H397     1.0000 0.67030  0.76960  0.58600  Biso   1.000  H
  H398     1.0000 0.82970  0.23040  0.08600  Biso   1.000  H
  H399     1.0000 0.01960  0.57970  0.33600  Biso   1.000  H
  H400     1.0000 0.48040  0.42030  0.83600  Biso   1.000  H
  H401     1.0000 0.67030  0.73040  0.08600  Biso   1.000  H
  H402     1.0000 0.82970  0.26960  0.58600  Biso   1.000  H
  H403     1.0000 0.51960  0.42030  0.33600  Biso   1.000  H
  H404     1.0000 0.98040  0.57970  0.83600  Biso   1.000  H
  H405     1.0000 0.82970  0.73040  0.91400  Biso   1.000  H
  H406     1.0000 0.67030  0.26960  0.41400  Biso   1.000  H
  H407     1.0000 0.98040  0.42030  0.66400  Biso   1.000  H
  H408     1.0000 0.51960  0.57970  0.16400  Biso   1.000  H
  H409     1.0000 0.17030  0.23040  0.58600  Biso   1.000  H
  H410     1.0000 0.32970  0.76960  0.08600  Biso   1.000  H
  H411     1.0000 0.01960  0.92030  0.83600  Biso   1.000  H
  H412     1.0000 0.48040  0.07970  0.33600  Biso   1.000  H
  H413     1.0000 0.32970  0.23040  0.41400  Biso   1.000  H
  H414     1.0000 0.17030  0.76960  0.91400  Biso   1.000  H
  H415     1.0000 0.48040  0.92030  0.16400  Biso   1.000  H
  H416     1.0000 0.01960  0.07970  0.66400  Biso   1.000  H
  C465     1.0000 0.25242  0.21298  0.08985  Biso   1.000  C
  C466     1.0000 0.24758  0.78702  0.58985  Biso   1.000  C
  C467     1.0000 0.03702  0.00242  0.33985  Biso   1.000  C
  C468     1.0000 0.46298  0.99758  0.83985  Biso   1.000  C
  C469     1.0000 0.24758  0.21298  0.91015  Biso   1.000  C
  C470     1.0000 0.25242  0.78702  0.41015  Biso   1.000  C
  C471     1.0000 0.46298  0.00242  0.66015  Biso   1.000  C
  C472     1.0000 0.03702  0.99758  0.16015  Biso   1.000  C
  C473     1.0000 0.75242  0.71298  0.58985  Biso   1.000  C
  C474     1.0000 0.74758  0.28702  0.08985  Biso   1.000  C
  C475     1.0000 0.53702  0.50242  0.83985  Biso   1.000  C
  C476     1.0000 0.96298  0.49758  0.33985  Biso   1.000  C
  C477     1.0000 0.74758  0.71298  0.41015  Biso   1.000  C
  C478     1.0000 0.75242  0.28702  0.91015  Biso   1.000  C
  C479     1.0000 0.96298  0.50242  0.16015  Biso   1.000  C
  C480     1.0000 0.53702  0.49758  0.66015  Biso   1.000  C
  C481     1.0000 0.74758  0.78702  0.91015  Biso   1.000  C
  C482     1.0000 0.75242  0.21298  0.41015  Biso   1.000  C
  C483     1.0000 0.46298  0.49758  0.16015  Biso   1.000  C
  C484     1.0000 0.03702  0.50242  0.66015  Biso   1.000  C
  C485     1.0000 0.75242  0.78702  0.08985  Biso   1.000  C
  C486     1.0000 0.74758  0.21298  0.58985  Biso   1.000  C
  C487     1.0000 0.03702  0.49758  0.83985  Biso   1.000  C
  C488     1.0000 0.46298  0.50242  0.33985  Biso   1.000  C
  C489     1.0000 0.24758  0.28702  0.41015  Biso   1.000  C
  C490     1.0000 0.25242  0.71298  0.91015  Biso   1.000  C
  C491     1.0000 0.96298  0.99758  0.66015  Biso   1.000  C
  C492     1.0000 0.53702  0.00242  0.16015  Biso   1.000  C
  C493     1.0000 0.25242  0.28702  0.58985  Biso   1.000  C
  C494     1.0000 0.24758  0.71298  0.08985  Biso   1.000  C
  C495     1.0000 0.53702  0.99758  0.33985  Biso   1.000  C
  C496     1.0000 0.96298  0.00242  0.83985  Biso   1.000  C
  H417     1.0000 0.25450  0.22800  0.15420  Biso   1.000  H
  H418     1.0000 0.24550  0.77200  0.65420  Biso   1.000  H
  H419     1.0000 0.02200  0.00450  0.40420  Biso   1.000  H
  H420     1.0000 0.47800  0.99550  0.90420  Biso   1.000  H
  H421     1.0000 0.24550  0.22800  0.84580  Biso   1.000  H
  H422     1.0000 0.25450  0.77200  0.34580  Biso   1.000  H
  H423     1.0000 0.47800  0.00450  0.59580  Biso   1.000  H
  H424     1.0000 0.02200  0.99550  0.09580  Biso   1.000  H
  H425     1.0000 0.75450  0.72800  0.65420  Biso   1.000  H
  H426     1.0000 0.74550  0.27200  0.15420  Biso   1.000  H
  H427     1.0000 0.52200  0.50450  0.90420  Biso   1.000  H
  H428     1.0000 0.97800  0.49550  0.40420  Biso   1.000  H
  H429     1.0000 0.74550  0.72800  0.34580  Biso   1.000  H
  H430     1.0000 0.75450  0.27200  0.84580  Biso   1.000  H
  H431     1.0000 0.97800  0.50450  0.09580  Biso   1.000  H
  H432     1.0000 0.52200  0.49550  0.59580  Biso   1.000  H
  H433     1.0000 0.74550  0.77200  0.84580  Biso   1.000  H
  H434     1.0000 0.75450  0.22800  0.34580  Biso   1.000  H
  H435     1.0000 0.47800  0.49550  0.09580  Biso   1.000  H
  H436     1.0000 0.02200  0.50450  0.59580  Biso   1.000  H
  H437     1.0000 0.75450  0.77200  0.15420  Biso   1.000  H
  H438     1.0000 0.74550  0.22800  0.65420  Biso   1.000  H
  H439     1.0000 0.02200  0.49550  0.90420  Biso   1.000  H
  H440     1.0000 0.47800  0.50450  0.40420  Biso   1.000  H
  H441     1.0000 0.24550  0.27200  0.34580  Biso   1.000  H
  H442     1.0000 0.25450  0.72800  0.84580  Biso   1.000  H
  H443     1.0000 0.97800  0.99550  0.59580  Biso   1.000  H
  H444     1.0000 0.52200  0.00450  0.09580  Biso   1.000  H
  H445     1.0000 0.25450  0.27200  0.65420  Biso   1.000  H
  H446     1.0000 0.24550  0.72800  0.15420  Biso   1.000  H
  H447     1.0000 0.52200  0.99550  0.40420  Biso   1.000  H
  H448     1.0000 0.97800  0.00450  0.90420  Biso   1.000  H
  C497     1.0000 0.25200  0.16962  0.09380  Biso   1.000  C
  C498     1.0000 0.24800  0.83038  0.59380  Biso   1.000  C
  C499     1.0000 0.08038  0.00200  0.34380  Biso   1.000  C
  C500     1.0000 0.41962  0.99800  0.84380  Biso   1.000  C
  C501     1.0000 0.24800  0.16962  0.90620  Biso   1.000  C
  C502     1.0000 0.25200  0.83038  0.40620  Biso   1.000  C
  C503     1.0000 0.41962  0.00200  0.65620  Biso   1.000  C
  C504     1.0000 0.08038  0.99800  0.15620  Biso   1.000  C
  C505     1.0000 0.75200  0.66962  0.59380  Biso   1.000  C
  C506     1.0000 0.74800  0.33038  0.09380  Biso   1.000  C
  C507     1.0000 0.58038  0.50200  0.84380  Biso   1.000  C
  C508     1.0000 0.91962  0.49800  0.34380  Biso   1.000  C
  C509     1.0000 0.74800  0.66962  0.40620  Biso   1.000  C
  C510     1.0000 0.75200  0.33038  0.90620  Biso   1.000  C
  C511     1.0000 0.91962  0.50200  0.15620  Biso   1.000  C
  C512     1.0000 0.58038  0.49800  0.65620  Biso   1.000  C
  C513     1.0000 0.74800  0.83038  0.90620  Biso   1.000  C
  C514     1.0000 0.75200  0.16962  0.40620  Biso   1.000  C
  C515     1.0000 0.41962  0.49800  0.15620  Biso   1.000  C
  C516     1.0000 0.08038  0.50200  0.65620  Biso   1.000  C
  C517     1.0000 0.75200  0.83038  0.09380  Biso   1.000  C
  C518     1.0000 0.74800  0.16962  0.59380  Biso   1.000  C
  C519     1.0000 0.08038  0.49800  0.84380  Biso   1.000  C
  C520     1.0000 0.41962  0.50200  0.34380  Biso   1.000  C
  C521     1.0000 0.24800  0.33038  0.40620  Biso   1.000  C
  C522     1.0000 0.25200  0.66962  0.90620  Biso   1.000  C
  C523     1.0000 0.91962  0.99800  0.65620  Biso   1.000  C
  C524     1.0000 0.58038  0.00200  0.15620  Biso   1.000  C
  C525     1.0000 0.25200  0.33038  0.59380  Biso   1.000  C
  C526     1.0000 0.24800  0.66962  0.09380  Biso   1.000  C
  C527     1.0000 0.58038  0.99800  0.34380  Biso   1.000  C
  C528     1.0000 0.91962  0.00200  0.84380  Biso   1.000  C
  H449     1.0000 0.25300  0.15530  0.15930  Biso   1.000  H
  H450     1.0000 0.24700  0.84470  0.65930  Biso   1.000  H
  H451     1.0000 0.09470  0.00300  0.40930  Biso   1.000  H
  H452     1.0000 0.40530  0.99700  0.90930  Biso   1.000  H
  H453     1.0000 0.24700  0.15530  0.84070  Biso   1.000  H
  H454     1.0000 0.25300  0.84470  0.34070  Biso   1.000  H
  H455     1.0000 0.40530  0.00300  0.59070  Biso   1.000  H
  H456     1.0000 0.09470  0.99700  0.09070  Biso   1.000  H
  H457     1.0000 0.75300  0.65530  0.65930  Biso   1.000  H
  H458     1.0000 0.74700  0.34470  0.15930  Biso   1.000  H
  H459     1.0000 0.59470  0.50300  0.90930  Biso   1.000  H
  H460     1.0000 0.90530  0.49700  0.40930  Biso   1.000  H
  H461     1.0000 0.74700  0.65530  0.34070  Biso   1.000  H
  H462     1.0000 0.75300  0.34470  0.84070  Biso   1.000  H
  H463     1.0000 0.90530  0.50300  0.09070  Biso   1.000  H
  H464     1.0000 0.59470  0.49700  0.59070  Biso   1.000  H
  H465     1.0000 0.74700  0.84470  0.84070  Biso   1.000  H
  H466     1.0000 0.75300  0.15530  0.34070  Biso   1.000  H
  H467     1.0000 0.40530  0.49700  0.09070  Biso   1.000  H
  H468     1.0000 0.09470  0.50300  0.59070  Biso   1.000  H
  H469     1.0000 0.75300  0.84470  0.15930  Biso   1.000  H
  H470     1.0000 0.74700  0.15530  0.65930  Biso   1.000  H
  H471     1.0000 0.09470  0.49700  0.90930  Biso   1.000  H
  H472     1.0000 0.40530  0.50300  0.40930  Biso   1.000  H
  H473     1.0000 0.24700  0.34470  0.34070  Biso   1.000  H
  H474     1.0000 0.25300  0.65530  0.84070  Biso   1.000  H
  H475     1.0000 0.90530  0.99700  0.59070  Biso   1.000  H
  H476     1.0000 0.59470  0.00300  0.09070  Biso   1.000  H
  H477     1.0000 0.25300  0.34470  0.65930  Biso   1.000  H
  H478     1.0000 0.24700  0.65530  0.15930  Biso   1.000  H
  H479     1.0000 0.59470  0.99700  0.40930  Biso   1.000  H
  H480     1.0000 0.90530  0.00300  0.90930  Biso   1.000  H
  C529     1.0000 0.25000  0.14771  0.00000  Biso   1.000  C
  C530     1.0000 0.25000  0.85229  0.50000  Biso   1.000  C
  C531     1.0000 0.10229  0.00000  0.25000  Biso   1.000  C
  C532     1.0000 0.39771  0.00000  0.75000  Biso   1.000  C
  C533     1.0000 0.75000  0.64771  0.50000  Biso   1.000  C
  C534     1.0000 0.75000  0.35229  0.00000  Biso   1.000  C
  C535     1.0000 0.60229  0.50000  0.75000  Biso   1.000  C
  C536     1.0000 0.89771  0.50000  0.25000  Biso   1.000  C
  C537     1.0000 0.75000  0.85229  0.00000  Biso   1.000  C
  C538     1.0000 0.75000  0.14771  0.50000  Biso   1.000  C
  C539     1.0000 0.39771  0.50000  0.25000  Biso   1.000  C
  C540     1.0000 0.10229  0.50000  0.75000  Biso   1.000  C
  C541     1.0000 0.25000  0.35229  0.50000  Biso   1.000  C
  C542     1.0000 0.25000  0.64771  0.00000  Biso   1.000  C
  C543     1.0000 0.89771  0.00000  0.75000  Biso   1.000  C
  C544     1.0000 0.60229  0.00000  0.25000  Biso   1.000  C
  H481     1.0000 0.25000  0.11800  0.00000  Biso   1.000  H
  H482     1.0000 0.25000  0.88200  0.50000  Biso   1.000  H
  H483     1.0000 0.13200  0.00000  0.25000  Biso   1.000  H
  H484     1.0000 0.36800  0.00000  0.75000  Biso   1.000  H
  H485     1.0000 0.75000  0.61800  0.50000  Biso   1.000  H
  H486     1.0000 0.75000  0.38200  0.00000  Biso   1.000  H
  H487     1.0000 0.63200  0.50000  0.75000  Biso   1.000  H
  H488     1.0000 0.86800  0.50000  0.25000  Biso   1.000  H
  H489     1.0000 0.75000  0.88200  0.00000  Biso   1.000  H
  H490     1.0000 0.75000  0.11800  0.50000  Biso   1.000  H
  H491     1.0000 0.36800  0.50000  0.25000  Biso   1.000  H
  H492     1.0000 0.13200  0.50000  0.75000  Biso   1.000  H
  H493     1.0000 0.25000  0.38200  0.50000  Biso   1.000  H
  H494     1.0000 0.25000  0.61800  0.00000  Biso   1.000  H
  H495     1.0000 0.86800  0.00000  0.75000  Biso   1.000  H
  H496     1.0000 0.63200  0.00000  0.25000  Biso   1.000  H
  N1       1.0000 0.25000  0.23467  0.00000  Biso   1.000  N
  N2       1.0000 0.25000  0.76533  0.50000  Biso   1.000  N
  N3       1.0000 0.01533  0.00000  0.25000  Biso   1.000  N
  N4       1.0000 0.48467  0.00000  0.75000  Biso   1.000  N
  N5       1.0000 0.75000  0.73467  0.50000  Biso   1.000  N
  N6       1.0000 0.75000  0.26533  0.00000  Biso   1.000  N
  N7       1.0000 0.51533  0.50000  0.75000  Biso   1.000  N
  N8       1.0000 0.98467  0.50000  0.25000  Biso   1.000  N
  N9       1.0000 0.75000  0.76533  0.00000  Biso   1.000  N
  N10      1.0000 0.75000  0.23467  0.50000  Biso   1.000  N
  N11      1.0000 0.48467  0.50000  0.25000  Biso   1.000  N
  N12      1.0000 0.01533  0.50000  0.75000  Biso   1.000  N
  N13      1.0000 0.25000  0.26533  0.50000  Biso   1.000  N
  N14      1.0000 0.25000  0.73467  0.00000  Biso   1.000  N
  N15      1.0000 0.98467  0.00000  0.75000  Biso   1.000  N
  N16      1.0000 0.51533  0.00000  0.25000  Biso   1.000  N
  N17      1.0000 0.29641  0.32110  0.89728  Biso   1.000  N
  N18      1.0000 0.20359  0.67890  0.39728  Biso   1.000  N
  N19      1.0000 0.92890  0.04641  0.14728  Biso   1.000  N
  N20      1.0000 0.57110  0.95359  0.64728  Biso   1.000  N
  N21      1.0000 0.20359  0.32110  0.10272  Biso   1.000  N
  N22      1.0000 0.29641  0.67890  0.60272  Biso   1.000  N
  N23      1.0000 0.57110  0.04641  0.85272  Biso   1.000  N
  N24      1.0000 0.92890  0.95359  0.35272  Biso   1.000  N
  N25      1.0000 0.79641  0.82110  0.39728  Biso   1.000  N
  N26      1.0000 0.70359  0.17890  0.89728  Biso   1.000  N
  N27      1.0000 0.42890  0.54641  0.64728  Biso   1.000  N
  N28      1.0000 0.07110  0.45359  0.14728  Biso   1.000  N
  N29      1.0000 0.70359  0.82110  0.60272  Biso   1.000  N
  N30      1.0000 0.79641  0.17890  0.10272  Biso   1.000  N
  N31      1.0000 0.07110  0.54641  0.35272  Biso   1.000  N
  N32      1.0000 0.42890  0.45359  0.85272  Biso   1.000  N
  N33      1.0000 0.70359  0.67890  0.10272  Biso   1.000  N
  N34      1.0000 0.79641  0.32110  0.60272  Biso   1.000  N
  N35      1.0000 0.57110  0.45359  0.35272  Biso   1.000  N
  N36      1.0000 0.92890  0.54641  0.85272  Biso   1.000  N
  N37      1.0000 0.79641  0.67890  0.89728  Biso   1.000  N
  N38      1.0000 0.70359  0.32110  0.39728  Biso   1.000  N
  N39      1.0000 0.92890  0.45359  0.64728  Biso   1.000  N
  N40      1.0000 0.57110  0.54641  0.14728  Biso   1.000  N
  N41      1.0000 0.20359  0.17890  0.60272  Biso   1.000  N
  N42      1.0000 0.29641  0.82110  0.10272  Biso   1.000  N
  N43      1.0000 0.07110  0.95359  0.85272  Biso   1.000  N
  N44      1.0000 0.42890  0.04641  0.35272  Biso   1.000  N
  N45      1.0000 0.29641  0.17890  0.39728  Biso   1.000  N
  N46      1.0000 0.20359  0.82110  0.89728  Biso   1.000  N
  N47      1.0000 0.42890  0.95359  0.14728  Biso   1.000  N
  N48      1.0000 0.07110  0.04641  0.64728  Biso   1.000  N
  O1       1.0000 0.29016  0.30099  0.11678  Biso   1.000  O
  O2       1.0000 0.20984  0.69901  0.61678  Biso   1.000  O
  O3       1.0000 0.94901  0.04016  0.36678  Biso   1.000  O
  O4       1.0000 0.55099  0.95984  0.86678  Biso   1.000  O
  O5       1.0000 0.20984  0.30099  0.88322  Biso   1.000  O
  O6       1.0000 0.29016  0.69901  0.38322  Biso   1.000  O
  O7       1.0000 0.55099  0.04016  0.63322  Biso   1.000  O
  O8       1.0000 0.94901  0.95984  0.13322  Biso   1.000  O
  O9       1.0000 0.79016  0.80099  0.61678  Biso   1.000  O
  O10      1.0000 0.70984  0.19901  0.11678  Biso   1.000  O
  O11      1.0000 0.44901  0.54016  0.86678  Biso   1.000  O
  O12      1.0000 0.05099  0.45984  0.36678  Biso   1.000  O
  O13      1.0000 0.70984  0.80099  0.38322  Biso   1.000  O
  O14      1.0000 0.79016  0.19901  0.88322  Biso   1.000  O
  O15      1.0000 0.05099  0.54016  0.13322  Biso   1.000  O
  O16      1.0000 0.44901  0.45984  0.63322  Biso   1.000  O
  O17      1.0000 0.70984  0.69901  0.88322  Biso   1.000  O
  O18      1.0000 0.79016  0.30099  0.38322  Biso   1.000  O
  O19      1.0000 0.55099  0.45984  0.13322  Biso   1.000  O
  O20      1.0000 0.94901  0.54016  0.63322  Biso   1.000  O
  O21      1.0000 0.79016  0.69901  0.11678  Biso   1.000  O
  O22      1.0000 0.70984  0.30099  0.61678  Biso   1.000  O
  O23      1.0000 0.94901  0.45984  0.86678  Biso   1.000  O
  O24      1.0000 0.55099  0.54016  0.36678  Biso   1.000  O
  O25      1.0000 0.20984  0.19901  0.38322  Biso   1.000  O
  O26      1.0000 0.29016  0.80099  0.88322  Biso   1.000  O
  O27      1.0000 0.05099  0.95984  0.63322  Biso   1.000  O
  O28      1.0000 0.44901  0.04016  0.13322  Biso   1.000  O
  O29      1.0000 0.29016  0.19901  0.61678  Biso   1.000  O
  O30      1.0000 0.20984  0.80099  0.11678  Biso   1.000  O
  O31      1.0000 0.44901  0.95984  0.36678  Biso   1.000  O
  O32      1.0000 0.05099  0.04016  0.86678  Biso   1.000  O
  O33      1.0000 0.30426  0.36900  0.11151  Biso   1.000  O
  O34      1.0000 0.19574  0.63100  0.61151  Biso   1.000  O
  O35      1.0000 0.88100  0.05426  0.36151  Biso   1.000  O
  O36      1.0000 0.61900  0.94574  0.86151  Biso   1.000  O
  O37      1.0000 0.19574  0.36900  0.88849  Biso   1.000  O
  O38      1.0000 0.30426  0.63100  0.38849  Biso   1.000  O
  O39      1.0000 0.61900  0.05426  0.63849  Biso   1.000  O
  O40      1.0000 0.88100  0.94574  0.13849  Biso   1.000  O
  O41      1.0000 0.80426  0.86900  0.61151  Biso   1.000  O
  O42      1.0000 0.69574  0.13100  0.11151  Biso   1.000  O
  O43      1.0000 0.38100  0.55426  0.86151  Biso   1.000  O
  O44      1.0000 0.11900  0.44574  0.36151  Biso   1.000  O
  O45      1.0000 0.69574  0.86900  0.38849  Biso   1.000  O
  O46      1.0000 0.80426  0.13100  0.88849  Biso   1.000  O
  O47      1.0000 0.11900  0.55426  0.13849  Biso   1.000  O
  O48      1.0000 0.38100  0.44574  0.63849  Biso   1.000  O
  O49      1.0000 0.69574  0.63100  0.88849  Biso   1.000  O
  O50      1.0000 0.80426  0.36900  0.38849  Biso   1.000  O
  O51      1.0000 0.61900  0.44574  0.13849  Biso   1.000  O
  O52      1.0000 0.88100  0.55426  0.63849  Biso   1.000  O
  O53      1.0000 0.80426  0.63100  0.11151  Biso   1.000  O
  O54      1.0000 0.69574  0.36900  0.61151  Biso   1.000  O
  O55      1.0000 0.88100  0.44574  0.86151  Biso   1.000  O
  O56      1.0000 0.61900  0.55426  0.36151  Biso   1.000  O
  O57      1.0000 0.19574  0.13100  0.38849  Biso   1.000  O
  O58      1.0000 0.30426  0.86900  0.88849  Biso   1.000  O
  O59      1.0000 0.11900  0.94574  0.63849  Biso   1.000  O
  O60      1.0000 0.38100  0.05426  0.13849  Biso   1.000  O
  O61      1.0000 0.30426  0.13100  0.61151  Biso   1.000  O
  O62      1.0000 0.19574  0.86900  0.11151  Biso   1.000  O
  O63      1.0000 0.38100  0.94574  0.36151  Biso   1.000  O
  O64      1.0000 0.11900  0.05426  0.86151  Biso   1.000  O
