data_image0
_cell_length_a       36.04
_cell_length_b       11.398
_cell_length_c       23.444
_cell_angle_alpha    90
_cell_angle_beta     126.122
_cell_angle_gamma    90

_symmetry_space_group_name_H-M    "P 1"
_symmetry_int_tables_number       1

loop_
  _symmetry_equiv_pos_as_xyz
  'x, y, z'

loop_
  _atom_site_label
  _atom_site_occupancy
  _atom_site_fract_x
  _atom_site_fract_y
  _atom_site_fract_z
  _atom_site_thermal_displace_type
  _atom_site_B_iso_or_equiv
  _atom_site_type_symbol
  Cu1      1.0000 0.54294  0.47128  0.04678  Biso   1.000  Cu
  Cu2      1.0000 0.45706  0.47128  0.45322  Biso   1.000  Cu
  Cu3      1.0000 0.04294  0.97128  0.04678  Biso   1.000  Cu
  Cu4      1.0000 0.95706  0.97128  0.45322  Biso   1.000  Cu
  Cu5      1.0000 0.45706  0.52872  0.95322  Biso   1.000  Cu
  Cu6      1.0000 0.54294  0.52872  0.54678  Biso   1.000  Cu
  Cu7      1.0000 0.95706  0.02872  0.95322  Biso   1.000  Cu
  Cu8      1.0000 0.04294  0.02872  0.54678  Biso   1.000  Cu
  Cu9      1.0000 0.73321  0.74394  0.03627  Biso   1.000  Cu
  Cu10     1.0000 0.26679  0.74394  0.46373  Biso   1.000  Cu
  Cu11     1.0000 0.23321  0.24394  0.03627  Biso   1.000  Cu
  Cu12     1.0000 0.76679  0.24394  0.46373  Biso   1.000  Cu
  Cu13     1.0000 0.26679  0.25606  0.96373  Biso   1.000  Cu
  Cu14     1.0000 0.73321  0.25606  0.53627  Biso   1.000  Cu
  Cu15     1.0000 0.76679  0.75606  0.96373  Biso   1.000  Cu
  Cu16     1.0000 0.23321  0.75606  0.53627  Biso   1.000  Cu
  O1       1.0000 0.55545  0.58050  0.99630  Biso   1.000  O
  O2       1.0000 0.44455  0.58050  0.50370  Biso   1.000  O
  O3       1.0000 0.05545  0.08050  0.99630  Biso   1.000  O
  O4       1.0000 0.94455  0.08050  0.50370  Biso   1.000  O
  O5       1.0000 0.44455  0.41950  0.00370  Biso   1.000  O
  O6       1.0000 0.55545  0.41950  0.49630  Biso   1.000  O
  O7       1.0000 0.94455  0.91950  0.00370  Biso   1.000  O
  O8       1.0000 0.05545  0.91950  0.49630  Biso   1.000  O
  O9       1.0000 0.51721  0.37020  0.08250  Biso   1.000  O
  O10      1.0000 0.48279  0.37020  0.41750  Biso   1.000  O
  O11      1.0000 0.01721  0.87020  0.08250  Biso   1.000  O
  O12      1.0000 0.98279  0.87020  0.41750  Biso   1.000  O
  O13      1.0000 0.48279  0.62980  0.91750  Biso   1.000  O
  O14      1.0000 0.51721  0.62980  0.58250  Biso   1.000  O
  O15      1.0000 0.98279  0.12980  0.91750  Biso   1.000  O
  O16      1.0000 0.01721  0.12980  0.58250  Biso   1.000  O
  O17      1.0000 0.54267  0.60180  0.10150  Biso   1.000  O
  O18      1.0000 0.45733  0.60180  0.39850  Biso   1.000  O
  O19      1.0000 0.04267  0.10180  0.10150  Biso   1.000  O
  O20      1.0000 0.95733  0.10180  0.39850  Biso   1.000  O
  O21      1.0000 0.45733  0.39820  0.89850  Biso   1.000  O
  O22      1.0000 0.54267  0.39820  0.60150  Biso   1.000  O
  O23      1.0000 0.95733  0.89820  0.89850  Biso   1.000  O
  O24      1.0000 0.04267  0.89820  0.60150  Biso   1.000  O
  O25      1.0000 0.53067  0.35130  0.97720  Biso   1.000  O
  O26      1.0000 0.46933  0.35130  0.52280  Biso   1.000  O
  O27      1.0000 0.03067  0.85130  0.97720  Biso   1.000  O
  O28      1.0000 0.96933  0.85130  0.52280  Biso   1.000  O
  O29      1.0000 0.46933  0.64870  0.02280  Biso   1.000  O
  O30      1.0000 0.53067  0.64870  0.47720  Biso   1.000  O
  O31      1.0000 0.96933  0.14870  0.02280  Biso   1.000  O
  O32      1.0000 0.03067  0.14870  0.47720  Biso   1.000  O
  O33      1.0000 0.68640  0.85360  0.96580  Biso   1.000  O
  O34      1.0000 0.31360  0.85360  0.53420  Biso   1.000  O
  O35      1.0000 0.18640  0.35360  0.96580  Biso   1.000  O
  O36      1.0000 0.81360  0.35360  0.53420  Biso   1.000  O
  O37      1.0000 0.31360  0.14640  0.03420  Biso   1.000  O
  O38      1.0000 0.68640  0.14640  0.46580  Biso   1.000  O
  O39      1.0000 0.81360  0.64640  0.03420  Biso   1.000  O
  O40      1.0000 0.18640  0.64640  0.46580  Biso   1.000  O
  O41      1.0000 0.78533  0.63750  0.09620  Biso   1.000  O
  O42      1.0000 0.21467  0.63750  0.40380  Biso   1.000  O
  O43      1.0000 0.28533  0.13750  0.09620  Biso   1.000  O
  O44      1.0000 0.71467  0.13750  0.40380  Biso   1.000  O
  O45      1.0000 0.21467  0.36250  0.90380  Biso   1.000  O
  O46      1.0000 0.78533  0.36250  0.59620  Biso   1.000  O
  O47      1.0000 0.71467  0.86250  0.90380  Biso   1.000  O
  O48      1.0000 0.28533  0.86250  0.59620  Biso   1.000  O
  O49      1.0000 0.77177  0.87960  0.09000  Biso   1.000  O
  O50      1.0000 0.22823  0.87960  0.41000  Biso   1.000  O
  O51      1.0000 0.27177  0.37960  0.09000  Biso   1.000  O
  O52      1.0000 0.72823  0.37960  0.41000  Biso   1.000  O
  O53      1.0000 0.22823  0.12040  0.91000  Biso   1.000  O
  O54      1.0000 0.77177  0.12040  0.59000  Biso   1.000  O
  O55      1.0000 0.72823  0.62040  0.91000  Biso   1.000  O
  O56      1.0000 0.27177  0.62040  0.59000  Biso   1.000  O
  O57      1.0000 0.69945  0.61170  0.97230  Biso   1.000  O
  O58      1.0000 0.30055  0.61170  0.52770  Biso   1.000  O
  O59      1.0000 0.19945  0.11170  0.97230  Biso   1.000  O
  O60      1.0000 0.80055  0.11170  0.52770  Biso   1.000  O
  O61      1.0000 0.30055  0.38830  0.02770  Biso   1.000  O
  O62      1.0000 0.69945  0.38830  0.47230  Biso   1.000  O
  O63      1.0000 0.80055  0.88830  0.02770  Biso   1.000  O
  O64      1.0000 0.19945  0.88830  0.47230  Biso   1.000  O
  O65      1.0000 0.61058  0.43590  0.14040  Biso   1.000  O
  O66      1.0000 0.38942  0.43590  0.35960  Biso   1.000  O
  O67      1.0000 0.11058  0.93590  0.14040  Biso   1.000  O
  O68      1.0000 0.88942  0.93590  0.35960  Biso   1.000  O
  O69      1.0000 0.38942  0.56410  0.85960  Biso   1.000  O
  O70      1.0000 0.61058  0.56410  0.64040  Biso   1.000  O
  O71      1.0000 0.88942  0.06410  0.85960  Biso   1.000  O
  O72      1.0000 0.11058  0.06410  0.64040  Biso   1.000  O
  O73      1.0000 0.73819  0.37600  0.16530  Biso   1.000  O
  O74      1.0000 0.26181  0.37600  0.33470  Biso   1.000  O
  O75      1.0000 0.23819  0.87600  0.16530  Biso   1.000  O
  O76      1.0000 0.76181  0.87600  0.33470  Biso   1.000  O
  O77      1.0000 0.26181  0.62400  0.83470  Biso   1.000  O
  O78      1.0000 0.73819  0.62400  0.66530  Biso   1.000  O
  O79      1.0000 0.76181  0.12400  0.83470  Biso   1.000  O
  O80      1.0000 0.23819  0.12400  0.66530  Biso   1.000  O
  N1       1.0000 0.70281  0.71100  0.09220  Biso   1.000  N
  N2       1.0000 0.29719  0.71100  0.40780  Biso   1.000  N
  N3       1.0000 0.20281  0.21100  0.09220  Biso   1.000  N
  N4       1.0000 0.79719  0.21100  0.40780  Biso   1.000  N
  N5       1.0000 0.29719  0.28900  0.90780  Biso   1.000  N
  N6       1.0000 0.70281  0.28900  0.59220  Biso   1.000  N
  N7       1.0000 0.79719  0.78900  0.90780  Biso   1.000  N
  N8       1.0000 0.20281  0.78900  0.59220  Biso   1.000  N
  N9       1.0000 0.63590  0.38910  0.13400  Biso   1.000  N
  N10      1.0000 0.36410  0.38910  0.36600  Biso   1.000  N
  N11      1.0000 0.13590  0.88910  0.13400  Biso   1.000  N
  N12      1.0000 0.86410  0.88910  0.36600  Biso   1.000  N
  N13      1.0000 0.36410  0.61090  0.86600  Biso   1.000  N
  N14      1.0000 0.63590  0.61090  0.63400  Biso   1.000  N
  N15      1.0000 0.86410  0.11090  0.86600  Biso   1.000  N
  N16      1.0000 0.13590  0.11090  0.63400  Biso   1.000  N
  N17      1.0000 0.69976  0.35730  0.15330  Biso   1.000  N
  N18      1.0000 0.30024  0.35730  0.34670  Biso   1.000  N
  N19      1.0000 0.19976  0.85730  0.15330  Biso   1.000  N
  N20      1.0000 0.80024  0.85730  0.34670  Biso   1.000  N
  N21      1.0000 0.30024  0.64270  0.84670  Biso   1.000  N
  N22      1.0000 0.69976  0.64270  0.65330  Biso   1.000  N
  N23      1.0000 0.80024  0.14270  0.84670  Biso   1.000  N
  N24      1.0000 0.19976  0.14270  0.65330  Biso   1.000  N
  C1       1.0000 0.68730  0.79220  0.11410  Biso   1.000  C
  C2       1.0000 0.31270  0.79220  0.38590  Biso   1.000  C
  C3       1.0000 0.18730  0.29220  0.11410  Biso   1.000  C
  C4       1.0000 0.81270  0.29220  0.38590  Biso   1.000  C
  C5       1.0000 0.31270  0.20780  0.88590  Biso   1.000  C
  C6       1.0000 0.68730  0.20780  0.61410  Biso   1.000  C
  C7       1.0000 0.81270  0.70780  0.88590  Biso   1.000  C
  C8       1.0000 0.18730  0.70780  0.61410  Biso   1.000  C
  C9       1.0000 0.66390  0.76840  0.14200  Biso   1.000  C
  C10      1.0000 0.33610  0.76840  0.35800  Biso   1.000  C
  C11      1.0000 0.16390  0.26840  0.14200  Biso   1.000  C
  C12      1.0000 0.83610  0.26840  0.35800  Biso   1.000  C
  C13      1.0000 0.33610  0.23160  0.85800  Biso   1.000  C
  C14      1.0000 0.66390  0.23160  0.64200  Biso   1.000  C
  C15      1.0000 0.83610  0.73160  0.85800  Biso   1.000  C
  C16      1.0000 0.16390  0.73160  0.64200  Biso   1.000  C
  C17      1.0000 0.65570  0.65120  0.14820  Biso   1.000  C
  C18      1.0000 0.34430  0.65120  0.35180  Biso   1.000  C
  C19      1.0000 0.15570  0.15120  0.14820  Biso   1.000  C
  C20      1.0000 0.84430  0.15120  0.35180  Biso   1.000  C
  C21      1.0000 0.34430  0.34880  0.85180  Biso   1.000  C
  C22      1.0000 0.65570  0.34880  0.64820  Biso   1.000  C
  C23      1.0000 0.84430  0.84880  0.85180  Biso   1.000  C
  C24      1.0000 0.15570  0.84880  0.64820  Biso   1.000  C
  C25      1.0000 0.67270  0.56680  0.12840  Biso   1.000  C
  C26      1.0000 0.32730  0.56680  0.37160  Biso   1.000  C
  C27      1.0000 0.17270  0.06680  0.12840  Biso   1.000  C
  C28      1.0000 0.82730  0.06680  0.37160  Biso   1.000  C
  C29      1.0000 0.32730  0.43320  0.87160  Biso   1.000  C
  C30      1.0000 0.67270  0.43320  0.62840  Biso   1.000  C
  C31      1.0000 0.82730  0.93320  0.87160  Biso   1.000  C
  C32      1.0000 0.17270  0.93320  0.62840  Biso   1.000  C
  C33      1.0000 0.69610  0.59820  0.10110  Biso   1.000  C
  C34      1.0000 0.30390  0.59820  0.39890  Biso   1.000  C
  C35      1.0000 0.19610  0.09820  0.10110  Biso   1.000  C
  C36      1.0000 0.80390  0.09820  0.39890  Biso   1.000  C
  C37      1.0000 0.30390  0.40180  0.89890  Biso   1.000  C
  C38      1.0000 0.69610  0.40180  0.60110  Biso   1.000  C
  C39      1.0000 0.80390  0.90180  0.89890  Biso   1.000  C
  C40      1.0000 0.19610  0.90180  0.60110  Biso   1.000  C
  C41      1.0000 0.66760  0.43800  0.13680  Biso   1.000  C
  C42      1.0000 0.33240  0.43800  0.36320  Biso   1.000  C
  C43      1.0000 0.16760  0.93800  0.13680  Biso   1.000  C
  C44      1.0000 0.83240  0.93800  0.36320  Biso   1.000  C
  C45      1.0000 0.33240  0.56200  0.86320  Biso   1.000  C
  C46      1.0000 0.66760  0.56200  0.63680  Biso   1.000  C
  C47      1.0000 0.83240  0.06200  0.86320  Biso   1.000  C
  C48      1.0000 0.16760  0.06200  0.63680  Biso   1.000  C
  C49      1.0000 0.64620  0.26390  0.15830  Biso   1.000  C
  C50      1.0000 0.35380  0.26390  0.34170  Biso   1.000  C
  C51      1.0000 0.14620  0.76390  0.15830  Biso   1.000  C
  C52      1.0000 0.85380  0.76390  0.34170  Biso   1.000  C
  C53      1.0000 0.35380  0.73610  0.84170  Biso   1.000  C
  C54      1.0000 0.64620  0.73610  0.65830  Biso   1.000  C
  C55      1.0000 0.85380  0.23610  0.84170  Biso   1.000  C
  C56      1.0000 0.14620  0.23610  0.65830  Biso   1.000  C
  C57      1.0000 0.68050  0.23720  0.14520  Biso   1.000  C
  C58      1.0000 0.31950  0.23720  0.35480  Biso   1.000  C
  C59      1.0000 0.18050  0.73720  0.14520  Biso   1.000  C
  C60      1.0000 0.81950  0.73720  0.35480  Biso   1.000  C
  C61      1.0000 0.31950  0.76280  0.85480  Biso   1.000  C
  C62      1.0000 0.68050  0.76280  0.64520  Biso   1.000  C
  C63      1.0000 0.81950  0.26280  0.85480  Biso   1.000  C
  C64      1.0000 0.18050  0.26280  0.64520  Biso   1.000  C
  C65      1.0000 0.60370  0.18980  0.11910  Biso   1.000  C
  C66      1.0000 0.39630  0.18980  0.38090  Biso   1.000  C
  C67      1.0000 0.10370  0.68980  0.11910  Biso   1.000  C
  C68      1.0000 0.89630  0.68980  0.38090  Biso   1.000  C
  C69      1.0000 0.39630  0.81020  0.88090  Biso   1.000  C
  C70      1.0000 0.60370  0.81020  0.61910  Biso   1.000  C
  C71      1.0000 0.89630  0.31020  0.88090  Biso   1.000  C
  C72      1.0000 0.10370  0.31020  0.61910  Biso   1.000  C
  C73      1.0000 0.66900  0.26860  0.23960  Biso   1.000  C
  C74      1.0000 0.33100  0.26860  0.26040  Biso   1.000  C
  C75      1.0000 0.16900  0.76860  0.23960  Biso   1.000  C
  C76      1.0000 0.83100  0.76860  0.26040  Biso   1.000  C
  C77      1.0000 0.33100  0.73140  0.76040  Biso   1.000  C
  C78      1.0000 0.66900  0.73140  0.73960  Biso   1.000  C
  C79      1.0000 0.83100  0.23140  0.76040  Biso   1.000  C
  C80      1.0000 0.16900  0.23140  0.73960  Biso   1.000  C
  C81      1.0000 0.66060  0.19990  0.07130  Biso   1.000  C
  C82      1.0000 0.33940  0.19990  0.42870  Biso   1.000  C
  C83      1.0000 0.16060  0.69990  0.07130  Biso   1.000  C
  C84      1.0000 0.83940  0.69990  0.42870  Biso   1.000  C
  C85      1.0000 0.33940  0.80010  0.92870  Biso   1.000  C
  C86      1.0000 0.66060  0.80010  0.57130  Biso   1.000  C
  C87      1.0000 0.83940  0.30010  0.92870  Biso   1.000  C
  C88      1.0000 0.16060  0.30010  0.57130  Biso   1.000  C
  C89      1.0000 0.71840  0.15500  0.19860  Biso   1.000  C
  C90      1.0000 0.28160  0.15500  0.30140  Biso   1.000  C
  C91      1.0000 0.21840  0.65500  0.19860  Biso   1.000  C
  C92      1.0000 0.78160  0.65500  0.30140  Biso   1.000  C
  C93      1.0000 0.28160  0.84500  0.80140  Biso   1.000  C
  C94      1.0000 0.71840  0.84500  0.69860  Biso   1.000  C
  C95      1.0000 0.78160  0.34500  0.80140  Biso   1.000  C
  C96      1.0000 0.21840  0.34500  0.69860  Biso   1.000  C
  C97      1.0000 0.52420  0.63410  0.94360  Biso   1.000  C
  C98      1.0000 0.47580  0.63410  0.55640  Biso   1.000  C
  C99      1.0000 0.02420  0.13410  0.94360  Biso   1.000  C
  C100     1.0000 0.97580  0.13410  0.55640  Biso   1.000  C
  C101     1.0000 0.47580  0.36590  0.05640  Biso   1.000  C
  C102     1.0000 0.52420  0.36590  0.44360  Biso   1.000  C
  C103     1.0000 0.97580  0.86590  0.05640  Biso   1.000  C
  C104     1.0000 0.02420  0.86590  0.44360  Biso   1.000  C
  C105     1.0000 0.53720  0.70170  0.89990  Biso   1.000  C
  C106     1.0000 0.46280  0.70170  0.60010  Biso   1.000  C
  C107     1.0000 0.03720  0.20170  0.89990  Biso   1.000  C
  C108     1.0000 0.96280  0.20170  0.60010  Biso   1.000  C
  C109     1.0000 0.46280  0.29830  0.10010  Biso   1.000  C
  C110     1.0000 0.53720  0.29830  0.39990  Biso   1.000  C
  C111     1.0000 0.96280  0.79830  0.10010  Biso   1.000  C
  C112     1.0000 0.03720  0.79830  0.39990  Biso   1.000  C
  C113     1.0000 0.50140  0.76460  0.84190  Biso   1.000  C
  C114     1.0000 0.49860  0.76460  0.65810  Biso   1.000  C
  C115     1.0000 0.00140  0.26460  0.84190  Biso   1.000  C
  C116     1.0000 0.99860  0.26460  0.65810  Biso   1.000  C
  C117     1.0000 0.49860  0.23540  0.15810  Biso   1.000  C
  C118     1.0000 0.50140  0.23540  0.34190  Biso   1.000  C
  C119     1.0000 0.99860  0.73540  0.15810  Biso   1.000  C
  C120     1.0000 0.00140  0.73540  0.34190  Biso   1.000  C
  C121     1.0000 0.55290  0.83150  0.94930  Biso   1.000  C
  C122     1.0000 0.44710  0.83150  0.55070  Biso   1.000  C
  C123     1.0000 0.05290  0.33150  0.94930  Biso   1.000  C
  C124     1.0000 0.94710  0.33150  0.55070  Biso   1.000  C
  C125     1.0000 0.44710  0.16850  0.05070  Biso   1.000  C
  C126     1.0000 0.55290  0.16850  0.44930  Biso   1.000  C
  C127     1.0000 0.94710  0.66850  0.05070  Biso   1.000  C
  C128     1.0000 0.05290  0.66850  0.44930  Biso   1.000  C
  C129     1.0000 0.58290  0.68960  0.92400  Biso   1.000  C
  C130     1.0000 0.41710  0.68960  0.57600  Biso   1.000  C
  C131     1.0000 0.08290  0.18960  0.92400  Biso   1.000  C
  C132     1.0000 0.91710  0.18960  0.57600  Biso   1.000  C
  C133     1.0000 0.41710  0.31040  0.07600  Biso   1.000  C
  C134     1.0000 0.58290  0.31040  0.42400  Biso   1.000  C
  C135     1.0000 0.91710  0.81040  0.07600  Biso   1.000  C
  C136     1.0000 0.08290  0.81040  0.42400  Biso   1.000  C
  C137     1.0000 0.50680  0.65960  0.07930  Biso   1.000  C
  C138     1.0000 0.49320  0.65960  0.42070  Biso   1.000  C
  C139     1.0000 0.00680  0.15960  0.07930  Biso   1.000  C
  C140     1.0000 0.99320  0.15960  0.42070  Biso   1.000  C
  C141     1.0000 0.49320  0.34040  0.92070  Biso   1.000  C
  C142     1.0000 0.50680  0.34040  0.57930  Biso   1.000  C
  C143     1.0000 0.99320  0.84040  0.92070  Biso   1.000  C
  C144     1.0000 0.00680  0.84040  0.57930  Biso   1.000  C
  C145     1.0000 0.51220  0.75680  0.13060  Biso   1.000  C
  C146     1.0000 0.48780  0.75680  0.36940  Biso   1.000  C
  C147     1.0000 0.01220  0.25680  0.13060  Biso   1.000  C
  C148     1.0000 0.98780  0.25680  0.36940  Biso   1.000  C
  C149     1.0000 0.48780  0.24320  0.86940  Biso   1.000  C
  C150     1.0000 0.51220  0.24320  0.63060  Biso   1.000  C
  C151     1.0000 0.98780  0.74320  0.86940  Biso   1.000  C
  C152     1.0000 0.01220  0.74320  0.63060  Biso   1.000  C
  C153     1.0000 0.54790  0.73360  0.20180  Biso   1.000  C
  C154     1.0000 0.45210  0.73360  0.29820  Biso   1.000  C
  C155     1.0000 0.04790  0.23360  0.20180  Biso   1.000  C
  C156     1.0000 0.95210  0.23360  0.29820  Biso   1.000  C
  C157     1.0000 0.45210  0.26640  0.79820  Biso   1.000  C
  C158     1.0000 0.54790  0.26640  0.70180  Biso   1.000  C
  C159     1.0000 0.95210  0.76640  0.79820  Biso   1.000  C
  C160     1.0000 0.04790  0.76640  0.70180  Biso   1.000  C
  C161     1.0000 0.47080  0.79960  0.11380  Biso   1.000  C
  C162     1.0000 0.52920  0.79960  0.38620  Biso   1.000  C
  C163     1.0000 0.97080  0.29960  0.11380  Biso   1.000  C
  C164     1.0000 0.02920  0.29960  0.38620  Biso   1.000  C
  C165     1.0000 0.52920  0.20040  0.88620  Biso   1.000  C
  C166     1.0000 0.47080  0.20040  0.61380  Biso   1.000  C
  C167     1.0000 0.02920  0.70040  0.88620  Biso   1.000  C
  C168     1.0000 0.97080  0.70040  0.61380  Biso   1.000  C
  C169     1.0000 0.53870  0.85850  0.12130  Biso   1.000  C
  C170     1.0000 0.46130  0.85850  0.37870  Biso   1.000  C
  C171     1.0000 0.03870  0.35850  0.12130  Biso   1.000  C
  C172     1.0000 0.96130  0.35850  0.37870  Biso   1.000  C
  C173     1.0000 0.46130  0.14150  0.87870  Biso   1.000  C
  C174     1.0000 0.53870  0.14150  0.62130  Biso   1.000  C
  C175     1.0000 0.96130  0.64150  0.87870  Biso   1.000  C
  C176     1.0000 0.03870  0.64150  0.62130  Biso   1.000  C
  C177     1.0000 0.68632  0.89080  0.91570  Biso   1.000  C
  C178     1.0000 0.31368  0.89080  0.58430  Biso   1.000  C
  C179     1.0000 0.18632  0.39080  0.91570  Biso   1.000  C
  C180     1.0000 0.81368  0.39080  0.58430  Biso   1.000  C
  C181     1.0000 0.31368  0.10920  0.08430  Biso   1.000  C
  C182     1.0000 0.68632  0.10920  0.41570  Biso   1.000  C
  C183     1.0000 0.81368  0.60920  0.08430  Biso   1.000  C
  C184     1.0000 0.18632  0.60920  0.41570  Biso   1.000  C
  C185     1.0000 0.64900  0.98100  0.86590  Biso   1.000  C
  C186     1.0000 0.35100  0.98100  0.63410  Biso   1.000  C
  C187     1.0000 0.14900  0.48100  0.86590  Biso   1.000  C
  C188     1.0000 0.85100  0.48100  0.63410  Biso   1.000  C
  C189     1.0000 0.35100  0.01900  0.13410  Biso   1.000  C
  C190     1.0000 0.64900  0.01900  0.36590  Biso   1.000  C
  C191     1.0000 0.85100  0.51900  0.13410  Biso   1.000  C
  C192     1.0000 0.14900  0.51900  0.36590  Biso   1.000  C
  C193     1.0000 0.60740  0.91010  0.81070  Biso   1.000  C
  C194     1.0000 0.39260  0.91010  0.68930  Biso   1.000  C
  C195     1.0000 0.10740  0.41010  0.81070  Biso   1.000  C
  C196     1.0000 0.89260  0.41010  0.68930  Biso   1.000  C
  C197     1.0000 0.39260  0.08990  0.18930  Biso   1.000  C
  C198     1.0000 0.60740  0.08990  0.31070  Biso   1.000  C
  C199     1.0000 0.89260  0.58990  0.18930  Biso   1.000  C
  C200     1.0000 0.10740  0.58990  0.31070  Biso   1.000  C
  C201     1.0000 0.63630  0.05500  0.90500  Biso   1.000  C
  C202     1.0000 0.36370  0.05500  0.59500  Biso   1.000  C
  C203     1.0000 0.13630  0.55500  0.90500  Biso   1.000  C
  C204     1.0000 0.86370  0.55500  0.59500  Biso   1.000  C
  C205     1.0000 0.36370  0.94500  0.09500  Biso   1.000  C
  C206     1.0000 0.63630  0.94500  0.40500  Biso   1.000  C
  C207     1.0000 0.86370  0.44500  0.09500  Biso   1.000  C
  C208     1.0000 0.13630  0.44500  0.40500  Biso   1.000  C
  C209     1.0000 0.66470  0.05460  0.83060  Biso   1.000  C
  C210     1.0000 0.33530  0.05460  0.66940  Biso   1.000  C
  C211     1.0000 0.16470  0.55460  0.83060  Biso   1.000  C
  C212     1.0000 0.83530  0.55460  0.66940  Biso   1.000  C
  C213     1.0000 0.33530  0.94540  0.16940  Biso   1.000  C
  C214     1.0000 0.66470  0.94540  0.33060  Biso   1.000  C
  C215     1.0000 0.83530  0.44540  0.16940  Biso   1.000  C
  C216     1.0000 0.16470  0.44540  0.33060  Biso   1.000  C
  C217     1.0000 0.79540  0.92470  0.07270  Biso   1.000  C
  C218     1.0000 0.20460  0.92470  0.42730  Biso   1.000  C
  C219     1.0000 0.29540  0.42470  0.07270  Biso   1.000  C
  C220     1.0000 0.70460  0.42470  0.42730  Biso   1.000  C
  C221     1.0000 0.20460  0.07530  0.92730  Biso   1.000  C
  C222     1.0000 0.79540  0.07530  0.57270  Biso   1.000  C
  C223     1.0000 0.70460  0.57530  0.92730  Biso   1.000  C
  C224     1.0000 0.29540  0.57530  0.57270  Biso   1.000  C
  C225     1.0000 0.82290  0.03710  0.11360  Biso   1.000  C
  C226     1.0000 0.17710  0.03710  0.38640  Biso   1.000  C
  C227     1.0000 0.32290  0.53710  0.11360  Biso   1.000  C
  C228     1.0000 0.67710  0.53710  0.38640  Biso   1.000  C
  C229     1.0000 0.17710  0.96290  0.88640  Biso   1.000  C
  C230     1.0000 0.82290  0.96290  0.61360  Biso   1.000  C
  C231     1.0000 0.67710  0.46290  0.88640  Biso   1.000  C
  C232     1.0000 0.32290  0.46290  0.61360  Biso   1.000  C
  C233     1.0000 0.81760  0.07550  0.16620  Biso   1.000  C
  C234     1.0000 0.18240  0.07550  0.33380  Biso   1.000  C
  C235     1.0000 0.31760  0.57550  0.16620  Biso   1.000  C
  C236     1.0000 0.68240  0.57550  0.33380  Biso   1.000  C
  C237     1.0000 0.18240  0.92450  0.83380  Biso   1.000  C
  C238     1.0000 0.81760  0.92450  0.66620  Biso   1.000  C
  C239     1.0000 0.68240  0.42450  0.83380  Biso   1.000  C
  C240     1.0000 0.31760  0.42450  0.66620  Biso   1.000  C
  C241     1.0000 0.78290  0.12890  0.05890  Biso   1.000  C
  C242     1.0000 0.21710  0.12890  0.44110  Biso   1.000  C
  C243     1.0000 0.28290  0.62890  0.05890  Biso   1.000  C
  C244     1.0000 0.71710  0.62890  0.44110  Biso   1.000  C
  C245     1.0000 0.21710  0.87110  0.94110  Biso   1.000  C
  C246     1.0000 0.78290  0.87110  0.55890  Biso   1.000  C
  C247     1.0000 0.71710  0.37110  0.94110  Biso   1.000  C
  C248     1.0000 0.28290  0.37110  0.55890  Biso   1.000  C
  C249     1.0000 0.85360  0.08080  0.10080  Biso   1.000  C
  C250     1.0000 0.14640  0.08080  0.39920  Biso   1.000  C
  C251     1.0000 0.35360  0.58080  0.10080  Biso   1.000  C
  C252     1.0000 0.64640  0.58080  0.39920  Biso   1.000  C
  C253     1.0000 0.14640  0.91920  0.89920  Biso   1.000  C
  C254     1.0000 0.85360  0.91920  0.60080  Biso   1.000  C
  C255     1.0000 0.64640  0.41920  0.89920  Biso   1.000  C
  C256     1.0000 0.35360  0.41920  0.60080  Biso   1.000  C
  H1       1.0000 0.69300  0.87400  0.10900  Biso   1.000  H
  H2       1.0000 0.30700  0.87400  0.39100  Biso   1.000  H
  H3       1.0000 0.19300  0.37400  0.10900  Biso   1.000  H
  H4       1.0000 0.80700  0.37400  0.39100  Biso   1.000  H
  H5       1.0000 0.30700  0.12600  0.89100  Biso   1.000  H
  H6       1.0000 0.69300  0.12600  0.60900  Biso   1.000  H
  H7       1.0000 0.80700  0.62600  0.89100  Biso   1.000  H
  H8       1.0000 0.19300  0.62600  0.60900  Biso   1.000  H
  H9       1.0000 0.65300  0.83200  0.15700  Biso   1.000  H
  H10      1.0000 0.34700  0.83200  0.34300  Biso   1.000  H
  H11      1.0000 0.15300  0.33200  0.15700  Biso   1.000  H
  H12      1.0000 0.84700  0.33200  0.34300  Biso   1.000  H
  H13      1.0000 0.34700  0.16800  0.84300  Biso   1.000  H
  H14      1.0000 0.65300  0.16800  0.65700  Biso   1.000  H
  H15      1.0000 0.84700  0.66800  0.84300  Biso   1.000  H
  H16      1.0000 0.15300  0.66800  0.65700  Biso   1.000  H
  H17      1.0000 0.63900  0.63100  0.16800  Biso   1.000  H
  H18      1.0000 0.36100  0.63100  0.33200  Biso   1.000  H
  H19      1.0000 0.13900  0.13100  0.16800  Biso   1.000  H
  H20      1.0000 0.86100  0.13100  0.33200  Biso   1.000  H
  H21      1.0000 0.36100  0.36900  0.83200  Biso   1.000  H
  H22      1.0000 0.63900  0.36900  0.66800  Biso   1.000  H
  H23      1.0000 0.86100  0.86900  0.83200  Biso   1.000  H
  H24      1.0000 0.13900  0.86900  0.66800  Biso   1.000  H
  H25      1.0000 0.70800  0.53700  0.08700  Biso   1.000  H
  H26      1.0000 0.29200  0.53700  0.41300  Biso   1.000  H
  H27      1.0000 0.20800  0.03700  0.08700  Biso   1.000  H
  H28      1.0000 0.79200  0.03700  0.41300  Biso   1.000  H
  H29      1.0000 0.29200  0.46300  0.91300  Biso   1.000  H
  H30      1.0000 0.70800  0.46300  0.58700  Biso   1.000  H
  H31      1.0000 0.79200  0.96300  0.91300  Biso   1.000  H
  H32      1.0000 0.20800  0.96300  0.58700  Biso   1.000  H
  H33      1.0000 0.59000  0.19100  0.06900  Biso   1.000  H
  H34      1.0000 0.41000  0.19100  0.43100  Biso   1.000  H
  H35      1.0000 0.09000  0.69100  0.06900  Biso   1.000  H
  H36      1.0000 0.91000  0.69100  0.43100  Biso   1.000  H
  H37      1.0000 0.41000  0.80900  0.93100  Biso   1.000  H
  H38      1.0000 0.59000  0.80900  0.56900  Biso   1.000  H
  H39      1.0000 0.91000  0.30900  0.93100  Biso   1.000  H
  H40      1.0000 0.09000  0.30900  0.56900  Biso   1.000  H
  H41      1.0000 0.60900  0.11100  0.13500  Biso   1.000  H
  H42      1.0000 0.39100  0.11100  0.36500  Biso   1.000  H
  H43      1.0000 0.10900  0.61100  0.13500  Biso   1.000  H
  H44      1.0000 0.89100  0.61100  0.36500  Biso   1.000  H
  H45      1.0000 0.39100  0.88900  0.86500  Biso   1.000  H
  H46      1.0000 0.60900  0.88900  0.63500  Biso   1.000  H
  H47      1.0000 0.89100  0.38900  0.86500  Biso   1.000  H
  H48      1.0000 0.10900  0.38900  0.63500  Biso   1.000  H
  H49      1.0000 0.58100  0.22200  0.12400  Biso   1.000  H
  H50      1.0000 0.41900  0.22200  0.37600  Biso   1.000  H
  H51      1.0000 0.08100  0.72200  0.12400  Biso   1.000  H
  H52      1.0000 0.91900  0.72200  0.37600  Biso   1.000  H
  H53      1.0000 0.41900  0.77800  0.87600  Biso   1.000  H
  H54      1.0000 0.58100  0.77800  0.62400  Biso   1.000  H
  H55      1.0000 0.91900  0.27800  0.87600  Biso   1.000  H
  H56      1.0000 0.08100  0.27800  0.62400  Biso   1.000  H
  H57      1.0000 0.69700  0.31700  0.26300  Biso   1.000  H
  H58      1.0000 0.30300  0.31700  0.23700  Biso   1.000  H
  H59      1.0000 0.19700  0.81700  0.26300  Biso   1.000  H
  H60      1.0000 0.80300  0.81700  0.23700  Biso   1.000  H
  H61      1.0000 0.30300  0.68300  0.73700  Biso   1.000  H
  H62      1.0000 0.69700  0.68300  0.76300  Biso   1.000  H
  H63      1.0000 0.80300  0.18300  0.73700  Biso   1.000  H
  H64      1.0000 0.19700  0.18300  0.76300  Biso   1.000  H
  H65      1.0000 0.65000  0.30300  0.25000  Biso   1.000  H
  H66      1.0000 0.35000  0.30300  0.25000  Biso   1.000  H
  H67      1.0000 0.15000  0.80300  0.25000  Biso   1.000  H
  H68      1.0000 0.85000  0.80300  0.25000  Biso   1.000  H
  H69      1.0000 0.35000  0.69700  0.75000  Biso   1.000  H
  H70      1.0000 0.65000  0.69700  0.75000  Biso   1.000  H
  H71      1.0000 0.85000  0.19700  0.75000  Biso   1.000  H
  H72      1.0000 0.15000  0.19700  0.75000  Biso   1.000  H
  H73      1.0000 0.67900  0.19300  0.26100  Biso   1.000  H
  H74      1.0000 0.32100  0.19300  0.23900  Biso   1.000  H
  H75      1.0000 0.17900  0.69300  0.26100  Biso   1.000  H
  H76      1.0000 0.82100  0.69300  0.23900  Biso   1.000  H
  H77      1.0000 0.32100  0.80700  0.73900  Biso   1.000  H
  H78      1.0000 0.67900  0.80700  0.76100  Biso   1.000  H
  H79      1.0000 0.82100  0.30700  0.73900  Biso   1.000  H
  H80      1.0000 0.17900  0.30700  0.76100  Biso   1.000  H
  H81      1.0000 0.63600  0.25300  0.03700  Biso   1.000  H
  H82      1.0000 0.36400  0.25300  0.46300  Biso   1.000  H
  H83      1.0000 0.13600  0.75300  0.03700  Biso   1.000  H
  H84      1.0000 0.86400  0.75300  0.46300  Biso   1.000  H
  H85      1.0000 0.36400  0.74700  0.96300  Biso   1.000  H
  H86      1.0000 0.63600  0.74700  0.53700  Biso   1.000  H
  H87      1.0000 0.86400  0.24700  0.96300  Biso   1.000  H
  H88      1.0000 0.13600  0.24700  0.53700  Biso   1.000  H
  H89      1.0000 0.68300  0.20100  0.06200  Biso   1.000  H
  H90      1.0000 0.31700  0.20100  0.43800  Biso   1.000  H
  H91      1.0000 0.18300  0.70100  0.06200  Biso   1.000  H
  H92      1.0000 0.81700  0.70100  0.43800  Biso   1.000  H
  H93      1.0000 0.31700  0.79900  0.93800  Biso   1.000  H
  H94      1.0000 0.68300  0.79900  0.56200  Biso   1.000  H
  H95      1.0000 0.81700  0.29900  0.93800  Biso   1.000  H
  H96      1.0000 0.18300  0.29900  0.56200  Biso   1.000  H
  H97      1.0000 0.64800  0.12300  0.06100  Biso   1.000  H
  H98      1.0000 0.35200  0.12300  0.43900  Biso   1.000  H
  H99      1.0000 0.14800  0.62300  0.06100  Biso   1.000  H
  H100     1.0000 0.85200  0.62300  0.43900  Biso   1.000  H
  H101     1.0000 0.35200  0.87700  0.93900  Biso   1.000  H
  H102     1.0000 0.64800  0.87700  0.56100  Biso   1.000  H
  H103     1.0000 0.85200  0.37700  0.93900  Biso   1.000  H
  H104     1.0000 0.14800  0.37700  0.56100  Biso   1.000  H
  H105     1.0000 0.73100  0.18100  0.24600  Biso   1.000  H
  H106     1.0000 0.26900  0.18100  0.25400  Biso   1.000  H
  H107     1.0000 0.23100  0.68100  0.24600  Biso   1.000  H
  H108     1.0000 0.76900  0.68100  0.25400  Biso   1.000  H
  H109     1.0000 0.26900  0.81900  0.75400  Biso   1.000  H
  H110     1.0000 0.73100  0.81900  0.74600  Biso   1.000  H
  H111     1.0000 0.76900  0.31900  0.75400  Biso   1.000  H
  H112     1.0000 0.23100  0.31900  0.74600  Biso   1.000  H
  H113     1.0000 0.70800  0.07800  0.19300  Biso   1.000  H
  H114     1.0000 0.29200  0.07800  0.30700  Biso   1.000  H
  H115     1.0000 0.20800  0.57800  0.19300  Biso   1.000  H
  H116     1.0000 0.79200  0.57800  0.30700  Biso   1.000  H
  H117     1.0000 0.29200  0.92200  0.80700  Biso   1.000  H
  H118     1.0000 0.70800  0.92200  0.69300  Biso   1.000  H
  H119     1.0000 0.79200  0.42200  0.80700  Biso   1.000  H
  H120     1.0000 0.20800  0.42200  0.69300  Biso   1.000  H
  H121     1.0000 0.74300  0.15600  0.19400  Biso   1.000  H
  H122     1.0000 0.25700  0.15600  0.30600  Biso   1.000  H
  H123     1.0000 0.24300  0.65600  0.19400  Biso   1.000  H
  H124     1.0000 0.75700  0.65600  0.30600  Biso   1.000  H
  H125     1.0000 0.25700  0.84400  0.80600  Biso   1.000  H
  H126     1.0000 0.74300  0.84400  0.69400  Biso   1.000  H
  H127     1.0000 0.75700  0.34400  0.80600  Biso   1.000  H
  H128     1.0000 0.24300  0.34400  0.69400  Biso   1.000  H
  H129     1.0000 0.51200  0.81400  0.82200  Biso   1.000  H
  H130     1.0000 0.48800  0.81400  0.67800  Biso   1.000  H
  H131     1.0000 0.01200  0.31400  0.82200  Biso   1.000  H
  H132     1.0000 0.98800  0.31400  0.67800  Biso   1.000  H
  H133     1.0000 0.48800  0.18600  0.17800  Biso   1.000  H
  H134     1.0000 0.51200  0.18600  0.32200  Biso   1.000  H
  H135     1.0000 0.98800  0.68600  0.17800  Biso   1.000  H
  H136     1.0000 0.01200  0.68600  0.32200  Biso   1.000  H
  H137     1.0000 0.48000  0.71200  0.80900  Biso   1.000  H
  H138     1.0000 0.52000  0.71200  0.69100  Biso   1.000  H
  H139     1.0000 0.98000  0.21200  0.80900  Biso   1.000  H
  H140     1.0000 0.02000  0.21200  0.69100  Biso   1.000  H
  H141     1.0000 0.52000  0.28800  0.19100  Biso   1.000  H
  H142     1.0000 0.48000  0.28800  0.30900  Biso   1.000  H
  H143     1.0000 0.02000  0.78800  0.19100  Biso   1.000  H
  H144     1.0000 0.98000  0.78800  0.30900  Biso   1.000  H
  H145     1.0000 0.48500  0.81900  0.85400  Biso   1.000  H
  H146     1.0000 0.51500  0.81900  0.64600  Biso   1.000  H
  H147     1.0000 0.98500  0.31900  0.85400  Biso   1.000  H
  H148     1.0000 0.01500  0.31900  0.64600  Biso   1.000  H
  H149     1.0000 0.51500  0.18100  0.14600  Biso   1.000  H
  H150     1.0000 0.48500  0.18100  0.35400  Biso   1.000  H
  H151     1.0000 0.01500  0.68100  0.14600  Biso   1.000  H
  H152     1.0000 0.98500  0.68100  0.35400  Biso   1.000  H
  H153     1.0000 0.56500  0.89300  0.93500  Biso   1.000  H
  H154     1.0000 0.43500  0.89300  0.56500  Biso   1.000  H
  H155     1.0000 0.06500  0.39300  0.93500  Biso   1.000  H
  H156     1.0000 0.93500  0.39300  0.56500  Biso   1.000  H
  H157     1.0000 0.43500  0.10700  0.06500  Biso   1.000  H
  H158     1.0000 0.56500  0.10700  0.43500  Biso   1.000  H
  H159     1.0000 0.93500  0.60700  0.06500  Biso   1.000  H
  H160     1.0000 0.06500  0.60700  0.43500  Biso   1.000  H
  H161     1.0000 0.53000  0.86800  0.95300  Biso   1.000  H
  H162     1.0000 0.47000  0.86800  0.54700  Biso   1.000  H
  H163     1.0000 0.03000  0.36800  0.95300  Biso   1.000  H
  H164     1.0000 0.97000  0.36800  0.54700  Biso   1.000  H
  H165     1.0000 0.47000  0.13200  0.04700  Biso   1.000  H
  H166     1.0000 0.53000  0.13200  0.45300  Biso   1.000  H
  H167     1.0000 0.97000  0.63200  0.04700  Biso   1.000  H
  H168     1.0000 0.03000  0.63200  0.45300  Biso   1.000  H
  H169     1.0000 0.58000  0.82000  0.00100  Biso   1.000  H
  H170     1.0000 0.42000  0.82000  0.49900  Biso   1.000  H
  H171     1.0000 0.08000  0.32000  0.00100  Biso   1.000  H
  H172     1.0000 0.92000  0.32000  0.49900  Biso   1.000  H
  H173     1.0000 0.42000  0.18000  0.99900  Biso   1.000  H
  H174     1.0000 0.58000  0.18000  0.50100  Biso   1.000  H
  H175     1.0000 0.92000  0.68000  0.99900  Biso   1.000  H
  H176     1.0000 0.08000  0.68000  0.50100  Biso   1.000  H
  H177     1.0000 0.59000  0.74000  0.90000  Biso   1.000  H
  H178     1.0000 0.41000  0.74000  0.60000  Biso   1.000  H
  H179     1.0000 0.09000  0.24000  0.90000  Biso   1.000  H
  H180     1.0000 0.91000  0.24000  0.60000  Biso   1.000  H
  H181     1.0000 0.41000  0.26000  0.10000  Biso   1.000  H
  H182     1.0000 0.59000  0.26000  0.40000  Biso   1.000  H
  H183     1.0000 0.91000  0.76000  0.10000  Biso   1.000  H
  H184     1.0000 0.09000  0.76000  0.40000  Biso   1.000  H
  H185     1.0000 0.60500  0.70700  0.97500  Biso   1.000  H
  H186     1.0000 0.39500  0.70700  0.52500  Biso   1.000  H
  H187     1.0000 0.10500  0.20700  0.97500  Biso   1.000  H
  H188     1.0000 0.89500  0.20700  0.52500  Biso   1.000  H
  H189     1.0000 0.39500  0.29300  0.02500  Biso   1.000  H
  H190     1.0000 0.60500  0.29300  0.47500  Biso   1.000  H
  H191     1.0000 0.89500  0.79300  0.02500  Biso   1.000  H
  H192     1.0000 0.10500  0.79300  0.47500  Biso   1.000  H
  H193     1.0000 0.58700  0.61100  0.91700  Biso   1.000  H
  H194     1.0000 0.41300  0.61100  0.58300  Biso   1.000  H
  H195     1.0000 0.08700  0.11100  0.91700  Biso   1.000  H
  H196     1.0000 0.91300  0.11100  0.58300  Biso   1.000  H
  H197     1.0000 0.41300  0.38900  0.08300  Biso   1.000  H
  H198     1.0000 0.58700  0.38900  0.41700  Biso   1.000  H
  H199     1.0000 0.91300  0.88900  0.08300  Biso   1.000  H
  H200     1.0000 0.08700  0.88900  0.41700  Biso   1.000  H
  H201     1.0000 0.55000  0.79600  0.23200  Biso   1.000  H
  H202     1.0000 0.45000  0.79600  0.26800  Biso   1.000  H
  H203     1.0000 0.05000  0.29600  0.23200  Biso   1.000  H
  H204     1.0000 0.95000  0.29600  0.26800  Biso   1.000  H
  H205     1.0000 0.45000  0.20400  0.76800  Biso   1.000  H
  H206     1.0000 0.55000  0.20400  0.73200  Biso   1.000  H
  H207     1.0000 0.95000  0.70400  0.76800  Biso   1.000  H
  H208     1.0000 0.05000  0.70400  0.73200  Biso   1.000  H
  H209     1.0000 0.54000  0.66300  0.21600  Biso   1.000  H
  H210     1.0000 0.46000  0.66300  0.28400  Biso   1.000  H
  H211     1.0000 0.04000  0.16300  0.21600  Biso   1.000  H
  H212     1.0000 0.96000  0.16300  0.28400  Biso   1.000  H
  H213     1.0000 0.46000  0.33700  0.78400  Biso   1.000  H
  H214     1.0000 0.54000  0.33700  0.71600  Biso   1.000  H
  H215     1.0000 0.96000  0.83700  0.78400  Biso   1.000  H
  H216     1.0000 0.04000  0.83700  0.71600  Biso   1.000  H
  H217     1.0000 0.57600  0.72300  0.21000  Biso   1.000  H
  H218     1.0000 0.42400  0.72300  0.29000  Biso   1.000  H
  H219     1.0000 0.07600  0.22300  0.21000  Biso   1.000  H
  H220     1.0000 0.92400  0.22300  0.29000  Biso   1.000  H
  H221     1.0000 0.42400  0.27700  0.79000  Biso   1.000  H
  H222     1.0000 0.57600  0.27700  0.71000  Biso   1.000  H
  H223     1.0000 0.92400  0.77700  0.79000  Biso   1.000  H
  H224     1.0000 0.07600  0.77700  0.71000  Biso   1.000  H
  H225     1.0000 0.47400  0.85800  0.14500  Biso   1.000  H
  H226     1.0000 0.52600  0.85800  0.35500  Biso   1.000  H
  H227     1.0000 0.97400  0.35800  0.14500  Biso   1.000  H
  H228     1.0000 0.02600  0.35800  0.35500  Biso   1.000  H
  H229     1.0000 0.52600  0.14200  0.85500  Biso   1.000  H
  H230     1.0000 0.47400  0.14200  0.64500  Biso   1.000  H
  H231     1.0000 0.02600  0.64200  0.85500  Biso   1.000  H
  H232     1.0000 0.97400  0.64200  0.64500  Biso   1.000  H
  H233     1.0000 0.45100  0.82500  0.06700  Biso   1.000  H
  H234     1.0000 0.54900  0.82500  0.43300  Biso   1.000  H
  H235     1.0000 0.95100  0.32500  0.06700  Biso   1.000  H
  H236     1.0000 0.04900  0.32500  0.43300  Biso   1.000  H
  H237     1.0000 0.54900  0.17500  0.93300  Biso   1.000  H
  H238     1.0000 0.45100  0.17500  0.56700  Biso   1.000  H
  H239     1.0000 0.04900  0.67500  0.93300  Biso   1.000  H
  H240     1.0000 0.95100  0.67500  0.56700  Biso   1.000  H
  H241     1.0000 0.45500  0.73200  0.11900  Biso   1.000  H
  H242     1.0000 0.54500  0.73200  0.38100  Biso   1.000  H
  H243     1.0000 0.95500  0.23200  0.11900  Biso   1.000  H
  H244     1.0000 0.04500  0.23200  0.38100  Biso   1.000  H
  H245     1.0000 0.54500  0.26800  0.88100  Biso   1.000  H
  H246     1.0000 0.45500  0.26800  0.61900  Biso   1.000  H
  H247     1.0000 0.04500  0.76800  0.88100  Biso   1.000  H
  H248     1.0000 0.95500  0.76800  0.61900  Biso   1.000  H
  H249     1.0000 0.54200  0.93100  0.14400  Biso   1.000  H
  H250     1.0000 0.45800  0.93100  0.35600  Biso   1.000  H
  H251     1.0000 0.04200  0.43100  0.14400  Biso   1.000  H
  H252     1.0000 0.95800  0.43100  0.35600  Biso   1.000  H
  H253     1.0000 0.45800  0.06900  0.85600  Biso   1.000  H
  H254     1.0000 0.54200  0.06900  0.64400  Biso   1.000  H
  H255     1.0000 0.95800  0.56900  0.85600  Biso   1.000  H
  H256     1.0000 0.04200  0.56900  0.64400  Biso   1.000  H
  H257     1.0000 0.56600  0.83800  0.12700  Biso   1.000  H
  H258     1.0000 0.43400  0.83800  0.37300  Biso   1.000  H
  H259     1.0000 0.06600  0.33800  0.12700  Biso   1.000  H
  H260     1.0000 0.93400  0.33800  0.37300  Biso   1.000  H
  H261     1.0000 0.43400  0.16200  0.87300  Biso   1.000  H
  H262     1.0000 0.56600  0.16200  0.62700  Biso   1.000  H
  H263     1.0000 0.93400  0.66200  0.87300  Biso   1.000  H
  H264     1.0000 0.06600  0.66200  0.62700  Biso   1.000  H
  H265     1.0000 0.51800  0.88600  0.06700  Biso   1.000  H
  H266     1.0000 0.48200  0.88600  0.43300  Biso   1.000  H
  H267     1.0000 0.01800  0.38600  0.06700  Biso   1.000  H
  H268     1.0000 0.98200  0.38600  0.43300  Biso   1.000  H
  H269     1.0000 0.48200  0.11400  0.93300  Biso   1.000  H
  H270     1.0000 0.51800  0.11400  0.56700  Biso   1.000  H
  H271     1.0000 0.98200  0.61400  0.93300  Biso   1.000  H
  H272     1.0000 0.01800  0.61400  0.56700  Biso   1.000  H
  H273     1.0000 0.58200  0.95900  0.77700  Biso   1.000  H
  H274     1.0000 0.41800  0.95900  0.72300  Biso   1.000  H
  H275     1.0000 0.08200  0.45900  0.77700  Biso   1.000  H
  H276     1.0000 0.91800  0.45900  0.72300  Biso   1.000  H
  H277     1.0000 0.41800  0.04100  0.22300  Biso   1.000  H
  H278     1.0000 0.58200  0.04100  0.27700  Biso   1.000  H
  H279     1.0000 0.91800  0.54100  0.22300  Biso   1.000  H
  H280     1.0000 0.08200  0.54100  0.27700  Biso   1.000  H
  H281     1.0000 0.61400  0.86000  0.78500  Biso   1.000  H
  H282     1.0000 0.38600  0.86000  0.71500  Biso   1.000  H
  H283     1.0000 0.11400  0.36000  0.78500  Biso   1.000  H
  H284     1.0000 0.88600  0.36000  0.71500  Biso   1.000  H
  H285     1.0000 0.38600  0.14000  0.21500  Biso   1.000  H
  H286     1.0000 0.61400  0.14000  0.28500  Biso   1.000  H
  H287     1.0000 0.88600  0.64000  0.21500  Biso   1.000  H
  H288     1.0000 0.11400  0.64000  0.28500  Biso   1.000  H
  H289     1.0000 0.59700  0.86000  0.83300  Biso   1.000  H
  H290     1.0000 0.40300  0.86000  0.66700  Biso   1.000  H
  H291     1.0000 0.09700  0.36000  0.83300  Biso   1.000  H
  H292     1.0000 0.90300  0.36000  0.66700  Biso   1.000  H
  H293     1.0000 0.40300  0.14000  0.16700  Biso   1.000  H
  H294     1.0000 0.59700  0.14000  0.33300  Biso   1.000  H
  H295     1.0000 0.90300  0.64000  0.16700  Biso   1.000  H
  H296     1.0000 0.09700  0.64000  0.33300  Biso   1.000  H
  H297     1.0000 0.61300  0.11100  0.87500  Biso   1.000  H
  H298     1.0000 0.38700  0.11100  0.62500  Biso   1.000  H
  H299     1.0000 0.11300  0.61100  0.87500  Biso   1.000  H
  H300     1.0000 0.88700  0.61100  0.62500  Biso   1.000  H
  H301     1.0000 0.38700  0.88900  0.12500  Biso   1.000  H
  H302     1.0000 0.61300  0.88900  0.37500  Biso   1.000  H
  H303     1.0000 0.88700  0.38900  0.12500  Biso   1.000  H
  H304     1.0000 0.11300  0.38900  0.37500  Biso   1.000  H
  H305     1.0000 0.62500  0.00600  0.92600  Biso   1.000  H
  H306     1.0000 0.37500  0.00600  0.57400  Biso   1.000  H
  H307     1.0000 0.12500  0.50600  0.92600  Biso   1.000  H
  H308     1.0000 0.87500  0.50600  0.57400  Biso   1.000  H
  H309     1.0000 0.37500  0.99400  0.07400  Biso   1.000  H
  H310     1.0000 0.62500  0.99400  0.42600  Biso   1.000  H
  H311     1.0000 0.87500  0.49400  0.07400  Biso   1.000  H
  H312     1.0000 0.12500  0.49400  0.42600  Biso   1.000  H
  H313     1.0000 0.66300  0.09600  0.94300  Biso   1.000  H
  H314     1.0000 0.33700  0.09600  0.55700  Biso   1.000  H
  H315     1.0000 0.16300  0.59600  0.94300  Biso   1.000  H
  H316     1.0000 0.83700  0.59600  0.55700  Biso   1.000  H
  H317     1.0000 0.33700  0.90400  0.05700  Biso   1.000  H
  H318     1.0000 0.66300  0.90400  0.44300  Biso   1.000  H
  H319     1.0000 0.83700  0.40400  0.05700  Biso   1.000  H
  H320     1.0000 0.16300  0.40400  0.44300  Biso   1.000  H
  H321     1.0000 0.64200  0.11100  0.80000  Biso   1.000  H
  H322     1.0000 0.35800  0.11100  0.70000  Biso   1.000  H
  H323     1.0000 0.14200  0.61100  0.80000  Biso   1.000  H
  H324     1.0000 0.85800  0.61100  0.70000  Biso   1.000  H
  H325     1.0000 0.35800  0.88900  0.20000  Biso   1.000  H
  H326     1.0000 0.64200  0.88900  0.30000  Biso   1.000  H
  H327     1.0000 0.85800  0.38900  0.20000  Biso   1.000  H
  H328     1.0000 0.14200  0.38900  0.30000  Biso   1.000  H
  H329     1.0000 0.69200  0.09600  0.86600  Biso   1.000  H
  H330     1.0000 0.30800  0.09600  0.63400  Biso   1.000  H
  H331     1.0000 0.19200  0.59600  0.86600  Biso   1.000  H
  H332     1.0000 0.80800  0.59600  0.63400  Biso   1.000  H
  H333     1.0000 0.30800  0.90400  0.13400  Biso   1.000  H
  H334     1.0000 0.69200  0.90400  0.36600  Biso   1.000  H
  H335     1.0000 0.80800  0.40400  0.13400  Biso   1.000  H
  H336     1.0000 0.19200  0.40400  0.36600  Biso   1.000  H
  H337     1.0000 0.67100  0.00600  0.80400  Biso   1.000  H
  H338     1.0000 0.32900  0.00600  0.69600  Biso   1.000  H
  H339     1.0000 0.17100  0.50600  0.80400  Biso   1.000  H
  H340     1.0000 0.82900  0.50600  0.69600  Biso   1.000  H
  H341     1.0000 0.32900  0.99400  0.19600  Biso   1.000  H
  H342     1.0000 0.67100  0.99400  0.30400  Biso   1.000  H
  H343     1.0000 0.82900  0.49400  0.19600  Biso   1.000  H
  H344     1.0000 0.17100  0.49400  0.30400  Biso   1.000  H
  H345     1.0000 0.83400  0.14600  0.18800  Biso   1.000  H
  H346     1.0000 0.16600  0.14600  0.31200  Biso   1.000  H
  H347     1.0000 0.33400  0.64600  0.18800  Biso   1.000  H
  H348     1.0000 0.66600  0.64600  0.31200  Biso   1.000  H
  H349     1.0000 0.16600  0.85400  0.81200  Biso   1.000  H
  H350     1.0000 0.83400  0.85400  0.68800  Biso   1.000  H
  H351     1.0000 0.66600  0.35400  0.81200  Biso   1.000  H
  H352     1.0000 0.33400  0.35400  0.68800  Biso   1.000  H
  H353     1.0000 0.78700  0.08700  0.14900  Biso   1.000  H
  H354     1.0000 0.21300  0.08700  0.35100  Biso   1.000  H
  H355     1.0000 0.28700  0.58700  0.14900  Biso   1.000  H
  H356     1.0000 0.71300  0.58700  0.35100  Biso   1.000  H
  H357     1.0000 0.21300  0.91300  0.85100  Biso   1.000  H
  H358     1.0000 0.78700  0.91300  0.64900  Biso   1.000  H
  H359     1.0000 0.71300  0.41300  0.85100  Biso   1.000  H
  H360     1.0000 0.28700  0.41300  0.64900  Biso   1.000  H
  H361     1.0000 0.83100  0.01500  0.20200  Biso   1.000  H
  H362     1.0000 0.16900  0.01500  0.29800  Biso   1.000  H
  H363     1.0000 0.33100  0.51500  0.20200  Biso   1.000  H
  H364     1.0000 0.66900  0.51500  0.29800  Biso   1.000  H
  H365     1.0000 0.16900  0.98500  0.79800  Biso   1.000  H
  H366     1.0000 0.83100  0.98500  0.70200  Biso   1.000  H
  H367     1.0000 0.66900  0.48500  0.79800  Biso   1.000  H
  H368     1.0000 0.33100  0.48500  0.70200  Biso   1.000  H
  H369     1.0000 0.79000  0.21200  0.07600  Biso   1.000  H
  H370     1.0000 0.21000  0.21200  0.42400  Biso   1.000  H
  H371     1.0000 0.29000  0.71200  0.07600  Biso   1.000  H
  H372     1.0000 0.71000  0.71200  0.42400  Biso   1.000  H
  H373     1.0000 0.21000  0.78800  0.92400  Biso   1.000  H
  H374     1.0000 0.79000  0.78800  0.57600  Biso   1.000  H
  H375     1.0000 0.71000  0.28800  0.92400  Biso   1.000  H
  H376     1.0000 0.29000  0.28800  0.57600  Biso   1.000  H
  H377     1.0000 0.77100  0.12700  0.01300  Biso   1.000  H
  H378     1.0000 0.22900  0.12700  0.48700  Biso   1.000  H
  H379     1.0000 0.27100  0.62700  0.01300  Biso   1.000  H
  H380     1.0000 0.72900  0.62700  0.48700  Biso   1.000  H
  H381     1.0000 0.22900  0.87300  0.98700  Biso   1.000  H
  H382     1.0000 0.77100  0.87300  0.51300  Biso   1.000  H
  H383     1.0000 0.72900  0.37300  0.98700  Biso   1.000  H
  H384     1.0000 0.27100  0.37300  0.51300  Biso   1.000  H
  H385     1.0000 0.75400  0.11900  0.06000  Biso   1.000  H
  H386     1.0000 0.24600  0.11900  0.44000  Biso   1.000  H
  H387     1.0000 0.25400  0.61900  0.06000  Biso   1.000  H
  H388     1.0000 0.74600  0.61900  0.44000  Biso   1.000  H
  H389     1.0000 0.24600  0.88100  0.94000  Biso   1.000  H
  H390     1.0000 0.75400  0.88100  0.56000  Biso   1.000  H
  H391     1.0000 0.74600  0.38100  0.94000  Biso   1.000  H
  H392     1.0000 0.25400  0.38100  0.56000  Biso   1.000  H
  H393     1.0000 0.86800  0.15000  0.12800  Biso   1.000  H
  H394     1.0000 0.13200  0.15000  0.37200  Biso   1.000  H
  H395     1.0000 0.36800  0.65000  0.12800  Biso   1.000  H
  H396     1.0000 0.63200  0.65000  0.37200  Biso   1.000  H
  H397     1.0000 0.13200  0.85000  0.87200  Biso   1.000  H
  H398     1.0000 0.86800  0.85000  0.62800  Biso   1.000  H
  H399     1.0000 0.63200  0.35000  0.87200  Biso   1.000  H
  H400     1.0000 0.36800  0.35000  0.62800  Biso   1.000  H
  H401     1.0000 0.87800  0.02100  0.12000  Biso   1.000  H
  H402     1.0000 0.12200  0.02100  0.38000  Biso   1.000  H
  H403     1.0000 0.37800  0.52100  0.12000  Biso   1.000  H
  H404     1.0000 0.62200  0.52100  0.38000  Biso   1.000  H
  H405     1.0000 0.12200  0.97900  0.88000  Biso   1.000  H
  H406     1.0000 0.87800  0.97900  0.62000  Biso   1.000  H
  H407     1.0000 0.62200  0.47900  0.88000  Biso   1.000  H
  H408     1.0000 0.37800  0.47900  0.62000  Biso   1.000  H
  H409     1.0000 0.84000  0.09300  0.05400  Biso   1.000  H
  H410     1.0000 0.16000  0.09300  0.44600  Biso   1.000  H
  H411     1.0000 0.34000  0.59300  0.05400  Biso   1.000  H
  H412     1.0000 0.66000  0.59300  0.44600  Biso   1.000  H
  H413     1.0000 0.16000  0.90700  0.94600  Biso   1.000  H
  H414     1.0000 0.84000  0.90700  0.55400  Biso   1.000  H
  H415     1.0000 0.66000  0.40700  0.94600  Biso   1.000  H
  H416     1.0000 0.34000  0.40700  0.55400  Biso   1.000  H
