data_image0
_cell_length_a       15.679
_cell_length_b       27.788
_cell_length_c       17.24
_cell_angle_alpha    90
_cell_angle_beta     105.515
_cell_angle_gamma    90

_symmetry_space_group_name_H-M    "P 1"
_symmetry_int_tables_number       1

loop_
  _symmetry_equiv_pos_as_xyz
  'x, y, z'

loop_
  _atom_site_label
  _atom_site_occupancy
  _atom_site_fract_x
  _atom_site_fract_y
  _atom_site_fract_z
  _atom_site_thermal_displace_type
  _atom_site_B_iso_or_equiv
  _atom_site_type_symbol
  C1       1.0000 0.76800  0.87393  0.96500  Biso   1.000  C
  C2       1.0000 0.23200  0.37393  0.53500  Biso   1.000  C
  C3       1.0000 0.23200  0.12607  0.03500  Biso   1.000  C
  C4       1.0000 0.76800  0.62607  0.46500  Biso   1.000  C
  H1       1.0000 0.70970  0.87290  0.96800  Biso   1.000  H
  H2       1.0000 0.29030  0.37290  0.53200  Biso   1.000  H
  H3       1.0000 0.29030  0.12710  0.03200  Biso   1.000  H
  H4       1.0000 0.70970  0.62710  0.46800  Biso   1.000  H
  C5       1.0000 0.79930  0.91629  0.94260  Biso   1.000  C
  C6       1.0000 0.20070  0.41629  0.55740  Biso   1.000  C
  C7       1.0000 0.20070  0.08371  0.05740  Biso   1.000  C
  C8       1.0000 0.79930  0.58371  0.44260  Biso   1.000  C
  H5       1.0000 0.76300  0.94330  0.93190  Biso   1.000  H
  H6       1.0000 0.23700  0.44330  0.56810  Biso   1.000  H
  H7       1.0000 0.23700  0.05670  0.06810  Biso   1.000  H
  H8       1.0000 0.76300  0.55670  0.43190  Biso   1.000  H
  C9       1.0000 0.88650  0.91874  0.93590  Biso   1.000  C
  C10      1.0000 0.11350  0.41874  0.56410  Biso   1.000  C
  C11      1.0000 0.11350  0.08126  0.06410  Biso   1.000  C
  C12      1.0000 0.88650  0.58126  0.43590  Biso   1.000  C
  C13      1.0000 0.93760  0.87770  0.95630  Biso   1.000  C
  C14      1.0000 0.06240  0.37770  0.54370  Biso   1.000  C
  C15      1.0000 0.06240  0.12230  0.04370  Biso   1.000  C
  C16      1.0000 0.93760  0.62230  0.45630  Biso   1.000  C
  H9       1.0000 0.99630  0.87760  0.95430  Biso   1.000  H
  H10      1.0000 0.00370  0.37760  0.54570  Biso   1.000  H
  H11      1.0000 0.00370  0.12240  0.04570  Biso   1.000  H
  H12      1.0000 0.99630  0.62240  0.45430  Biso   1.000  H
  C17      1.0000 0.90040  0.83671  0.97970  Biso   1.000  C
  C18      1.0000 0.09960  0.33671  0.52030  Biso   1.000  C
  C19      1.0000 0.09960  0.16329  0.02030  Biso   1.000  C
  C20      1.0000 0.90040  0.66329  0.47970  Biso   1.000  C
  H13      1.0000 0.93580  0.80960  0.99400  Biso   1.000  H
  H14      1.0000 0.06420  0.30960  0.50600  Biso   1.000  H
  H15      1.0000 0.06420  0.19040  0.00600  Biso   1.000  H
  H16      1.0000 0.93580  0.69040  0.49400  Biso   1.000  H
  C21      1.0000 0.91790  0.96344  0.90770  Biso   1.000  C
  C22      1.0000 0.08210  0.46344  0.59230  Biso   1.000  C
  C23      1.0000 0.08210  0.03656  0.09230  Biso   1.000  C
  C24      1.0000 0.91790  0.53656  0.40770  Biso   1.000  C
  C25      1.0000 0.96790  0.96154  0.85170  Biso   1.000  C
  C26      1.0000 0.03210  0.46154  0.64830  Biso   1.000  C
  C27      1.0000 0.03210  0.03846  0.14830  Biso   1.000  C
  C28      1.0000 0.96790  0.53846  0.35170  Biso   1.000  C
  H17      1.0000 0.98790  0.93220  0.83730  Biso   1.000  H
  H18      1.0000 0.01210  0.43220  0.66270  Biso   1.000  H
  H19      1.0000 0.01210  0.06780  0.16270  Biso   1.000  H
  H20      1.0000 0.98790  0.56780  0.33730  Biso   1.000  H
  C29      1.0000 0.98710  0.00406  0.81790  Biso   1.000  C
  C30      1.0000 0.01290  0.50406  0.68210  Biso   1.000  C
  C31      1.0000 0.01290  0.99594  0.18210  Biso   1.000  C
  C32      1.0000 0.98710  0.49594  0.31790  Biso   1.000  C
  C33      1.0000 0.95960  0.04830  0.84220  Biso   1.000  C
  C34      1.0000 0.04040  0.54830  0.65780  Biso   1.000  C
  C35      1.0000 0.04040  0.95170  0.15780  Biso   1.000  C
  C36      1.0000 0.95960  0.45170  0.34220  Biso   1.000  C
  C37      1.0000 0.91330  0.05003  0.90080  Biso   1.000  C
  C38      1.0000 0.08670  0.55003  0.59920  Biso   1.000  C
  C39      1.0000 0.08670  0.94997  0.09920  Biso   1.000  C
  C40      1.0000 0.91330  0.44997  0.40080  Biso   1.000  C
  H21      1.0000 0.89700  0.07930  0.91860  Biso   1.000  H
  H22      1.0000 0.10300  0.57930  0.58140  Biso   1.000  H
  H23      1.0000 0.10300  0.92070  0.08140  Biso   1.000  H
  H24      1.0000 0.89700  0.42070  0.41860  Biso   1.000  H
  C41      1.0000 0.89220  0.00741  0.93160  Biso   1.000  C
  C42      1.0000 0.10780  0.50741  0.56840  Biso   1.000  C
  C43      1.0000 0.10780  0.99259  0.06840  Biso   1.000  C
  C44      1.0000 0.89220  0.49259  0.43160  Biso   1.000  C
  H25      1.0000 0.85970  0.00810  0.96950  Biso   1.000  H
  H26      1.0000 0.14030  0.50810  0.53050  Biso   1.000  H
  H27      1.0000 0.14030  0.99190  0.03050  Biso   1.000  H
  H28      1.0000 0.85970  0.49190  0.46950  Biso   1.000  H
  C45      1.0000 0.98550  0.08609  0.79530  Biso   1.000  C
  C46      1.0000 0.01450  0.58609  0.70470  Biso   1.000  C
  C47      1.0000 0.01450  0.91391  0.20470  Biso   1.000  C
  C48      1.0000 0.98550  0.41391  0.29530  Biso   1.000  C
  C49      1.0000 0.02730  0.06520  0.74140  Biso   1.000  C
  C50      1.0000 0.97270  0.56520  0.75860  Biso   1.000  C
  C51      1.0000 0.97270  0.93480  0.25860  Biso   1.000  C
  C52      1.0000 0.02730  0.43480  0.24140  Biso   1.000  C
  C53      1.0000 0.03180  0.01078  0.75060  Biso   1.000  C
  C54      1.0000 0.96820  0.51078  0.74940  Biso   1.000  C
  C55      1.0000 0.96820  0.98922  0.24940  Biso   1.000  C
  C56      1.0000 0.03180  0.48922  0.25060  Biso   1.000  C
  C57      1.0000 0.98110  0.98520  0.67310  Biso   1.000  C
  C58      1.0000 0.01890  0.48520  0.82690  Biso   1.000  C
  C59      1.0000 0.01890  0.01480  0.32690  Biso   1.000  C
  C60      1.0000 0.98110  0.51480  0.17310  Biso   1.000  C
  H29      1.0000 0.01030  0.99220  0.63130  Biso   1.000  H
  H30      1.0000 0.98970  0.49220  0.86870  Biso   1.000  H
  H31      1.0000 0.98970  0.00780  0.36870  Biso   1.000  H
  H32      1.0000 0.01030  0.50780  0.13130  Biso   1.000  H
  H33      1.0000 0.98530  0.95070  0.68250  Biso   1.000  H
  H34      1.0000 0.01470  0.45070  0.81750  Biso   1.000  H
  H35      1.0000 0.01470  0.04930  0.31750  Biso   1.000  H
  H36      1.0000 0.98530  0.54930  0.18250  Biso   1.000  H
  C61      1.0000 0.88400  0.99850  0.64200  Biso   1.000  C
  C62      1.0000 0.11600  0.49850  0.85800  Biso   1.000  C
  C63      1.0000 0.11600  0.00150  0.35800  Biso   1.000  C
  C64      1.0000 0.88400  0.50150  0.14200  Biso   1.000  C
  H37      1.0000 0.87950  0.03270  0.63040  Biso   1.000  H
  H38      1.0000 0.12050  0.53270  0.86960  Biso   1.000  H
  H39      1.0000 0.12050  0.96730  0.36960  Biso   1.000  H
  H40      1.0000 0.87950  0.46730  0.13040  Biso   1.000  H
  H41      1.0000 0.85480  0.99230  0.68390  Biso   1.000  H
  H42      1.0000 0.14520  0.49230  0.81610  Biso   1.000  H
  H43      1.0000 0.14520  0.00770  0.31610  Biso   1.000  H
  H44      1.0000 0.85480  0.50770  0.18390  Biso   1.000  H
  C65      1.0000 0.83560  0.97080  0.56590  Biso   1.000  C
  C66      1.0000 0.16440  0.47080  0.93410  Biso   1.000  C
  C67      1.0000 0.16440  0.02920  0.43410  Biso   1.000  C
  C68      1.0000 0.83560  0.52920  0.06590  Biso   1.000  C
  H45      1.0000 0.77730  0.98490  0.54480  Biso   1.000  H
  H46      1.0000 0.22270  0.48490  0.95520  Biso   1.000  H
  H47      1.0000 0.22270  0.01510  0.45520  Biso   1.000  H
  H48      1.0000 0.77730  0.51510  0.04480  Biso   1.000  H
  H49      1.0000 0.86770  0.97430  0.52530  Biso   1.000  H
  H50      1.0000 0.13230  0.47430  0.97470  Biso   1.000  H
  H51      1.0000 0.13230  0.02570  0.47470  Biso   1.000  H
  H52      1.0000 0.86770  0.52570  0.02530  Biso   1.000  H
  C69      1.0000 0.82520  0.91970  0.58060  Biso   1.000  C
  C70      1.0000 0.17480  0.41970  0.91940  Biso   1.000  C
  C71      1.0000 0.17480  0.08030  0.41940  Biso   1.000  C
  C72      1.0000 0.82520  0.58030  0.08060  Biso   1.000  C
  H53      1.0000 0.88260  0.90570  0.60230  Biso   1.000  H
  H54      1.0000 0.11740  0.40570  0.89770  Biso   1.000  H
  H55      1.0000 0.11740  0.09430  0.39770  Biso   1.000  H
  H56      1.0000 0.88260  0.59430  0.10230  Biso   1.000  H
  H57      1.0000 0.79600  0.90380  0.53120  Biso   1.000  H
  H58      1.0000 0.20400  0.40380  0.96880  Biso   1.000  H
  H59      1.0000 0.20400  0.09620  0.46880  Biso   1.000  H
  H60      1.0000 0.79600  0.59620  0.03120  Biso   1.000  H
  H61      1.0000 0.79060  0.91600  0.61850  Biso   1.000  H
  H62      1.0000 0.20940  0.41600  0.88150  Biso   1.000  H
  H63      1.0000 0.20940  0.08400  0.38150  Biso   1.000  H
  H64      1.0000 0.79060  0.58400  0.11850  Biso   1.000  H
  C73      1.0000 0.12780  0.99285  0.77350  Biso   1.000  C
  C74      1.0000 0.87220  0.49285  0.72650  Biso   1.000  C
  C75      1.0000 0.87220  0.00715  0.22650  Biso   1.000  C
  C76      1.0000 0.12780  0.50715  0.27350  Biso   1.000  C
  H65      1.0000 0.12690  0.95800  0.77660  Biso   1.000  H
  H66      1.0000 0.87310  0.45800  0.72340  Biso   1.000  H
  H67      1.0000 0.87310  0.04200  0.22340  Biso   1.000  H
  H68      1.0000 0.12690  0.54200  0.27660  Biso   1.000  H
  H69      1.0000 0.15390  0.00130  0.73030  Biso   1.000  H
  H70      1.0000 0.84610  0.50130  0.76970  Biso   1.000  H
  H71      1.0000 0.84610  0.99870  0.26970  Biso   1.000  H
  H72      1.0000 0.15390  0.49870  0.23030  Biso   1.000  H
  C77      1.0000 0.18760  0.01160  0.85140  Biso   1.000  C
  C78      1.0000 0.81240  0.51160  0.64860  Biso   1.000  C
  C79      1.0000 0.81240  0.98840  0.14860  Biso   1.000  C
  C80      1.0000 0.18760  0.48840  0.35140  Biso   1.000  C
  H73      1.0000 0.16830  0.99860  0.89620  Biso   1.000  H
  H74      1.0000 0.83170  0.49860  0.60380  Biso   1.000  H
  H75      1.0000 0.83170  0.00140  0.10380  Biso   1.000  H
  H76      1.0000 0.16830  0.50140  0.39620  Biso   1.000  H
  H77      1.0000 0.18250  0.04630  0.85270  Biso   1.000  H
  H78      1.0000 0.81750  0.54630  0.64730  Biso   1.000  H
  H79      1.0000 0.81750  0.95370  0.14730  Biso   1.000  H
  H80      1.0000 0.18250  0.45370  0.35270  Biso   1.000  H
  C81      1.0000 0.28370  0.99820  0.86180  Biso   1.000  C
  C82      1.0000 0.71630  0.49820  0.63820  Biso   1.000  C
  C83      1.0000 0.71630  0.00180  0.13820  Biso   1.000  C
  C84      1.0000 0.28370  0.50180  0.36180  Biso   1.000  C
  H81      1.0000 0.28800  0.96350  0.85830  Biso   1.000  H
  H82      1.0000 0.71200  0.46350  0.64170  Biso   1.000  H
  H83      1.0000 0.71200  0.03650  0.14170  Biso   1.000  H
  H84      1.0000 0.28800  0.53650  0.35830  Biso   1.000  H
  H85      1.0000 0.30310  0.01190  0.81760  Biso   1.000  H
  H86      1.0000 0.69690  0.51190  0.68240  Biso   1.000  H
  H87      1.0000 0.69690  0.98810  0.18240  Biso   1.000  H
  H88      1.0000 0.30310  0.48810  0.31760  Biso   1.000  H
  C85      1.0000 0.34580  0.01480  0.94040  Biso   1.000  C
  C86      1.0000 0.65420  0.51480  0.55960  Biso   1.000  C
  C87      1.0000 0.65420  0.98520  0.05960  Biso   1.000  C
  C88      1.0000 0.34580  0.48520  0.44040  Biso   1.000  C
  H89      1.0000 0.34760  0.04940  0.94160  Biso   1.000  H
  H90      1.0000 0.65240  0.54940  0.55840  Biso   1.000  H
  H91      1.0000 0.65240  0.95060  0.05840  Biso   1.000  H
  H92      1.0000 0.34760  0.45060  0.44160  Biso   1.000  H
  H93      1.0000 0.40410  0.00250  0.94490  Biso   1.000  H
  H94      1.0000 0.59590  0.50250  0.55510  Biso   1.000  H
  H95      1.0000 0.59590  0.99750  0.05510  Biso   1.000  H
  H96      1.0000 0.40410  0.49750  0.44490  Biso   1.000  H
  H97      1.0000 0.32500  0.00320  0.98450  Biso   1.000  H
  H98      1.0000 0.67500  0.50320  0.51550  Biso   1.000  H
  H99      1.0000 0.67500  0.99680  0.01550  Biso   1.000  H
  H100     1.0000 0.32500  0.49680  0.48450  Biso   1.000  H
  C89      1.0000 0.97380  0.13557  0.79690  Biso   1.000  C
  C90      1.0000 0.02620  0.63557  0.70310  Biso   1.000  C
  C91      1.0000 0.02620  0.86443  0.20310  Biso   1.000  C
  C92      1.0000 0.97380  0.36443  0.29690  Biso   1.000  C
  H101     1.0000 0.94450  0.14940  0.83170  Biso   1.000  H
  H102     1.0000 0.05550  0.64940  0.66830  Biso   1.000  H
  H103     1.0000 0.05550  0.85060  0.16830  Biso   1.000  H
  H104     1.0000 0.94450  0.35060  0.33170  Biso   1.000  H
  C93      1.0000 0.00670  0.16404  0.74530  Biso   1.000  C
  C94      1.0000 0.99330  0.66404  0.75470  Biso   1.000  C
  C95      1.0000 0.99330  0.83596  0.25470  Biso   1.000  C
  C96      1.0000 0.00670  0.33596  0.24530  Biso   1.000  C
  H105     1.0000 0.99960  0.19720  0.74620  Biso   1.000  H
  H106     1.0000 0.00040  0.69720  0.75380  Biso   1.000  H
  H107     1.0000 0.00040  0.80280  0.25380  Biso   1.000  H
  H108     1.0000 0.99960  0.30280  0.24620  Biso   1.000  H
  C97      1.0000 0.04990  0.14396  0.69240  Biso   1.000  C
  C98      1.0000 0.95010  0.64396  0.80760  Biso   1.000  C
  C99      1.0000 0.95010  0.85604  0.30760  Biso   1.000  C
  C100     1.0000 0.04990  0.35604  0.19240  Biso   1.000  C
  C101     1.0000 0.05880  0.09374  0.68970  Biso   1.000  C
  C102     1.0000 0.94120  0.59374  0.81030  Biso   1.000  C
  C103     1.0000 0.94120  0.90626  0.31030  Biso   1.000  C
  C104     1.0000 0.05880  0.40626  0.18970  Biso   1.000  C
  H109     1.0000 0.08580  0.07980  0.65330  Biso   1.000  H
  H110     1.0000 0.91420  0.57980  0.84670  Biso   1.000  H
  H111     1.0000 0.91420  0.92020  0.34670  Biso   1.000  H
  H112     1.0000 0.08580  0.42020  0.15330  Biso   1.000  H
  C105     1.0000 0.09290  0.17498  0.64460  Biso   1.000  C
  C106     1.0000 0.90710  0.67498  0.85540  Biso   1.000  C
  C107     1.0000 0.90710  0.82502  0.35540  Biso   1.000  C
  C108     1.0000 0.09290  0.32502  0.14460  Biso   1.000  C
  C109     1.0000 0.10180  0.16180  0.56980  Biso   1.000  C
  C110     1.0000 0.89820  0.66180  0.93020  Biso   1.000  C
  C111     1.0000 0.89820  0.83820  0.43020  Biso   1.000  C
  C112     1.0000 0.10180  0.33820  0.06980  Biso   1.000  C
  H113     1.0000 0.07680  0.13310  0.54670  Biso   1.000  H
  H114     1.0000 0.92320  0.63310  0.95330  Biso   1.000  H
  H115     1.0000 0.92320  0.86690  0.45330  Biso   1.000  H
  H116     1.0000 0.07680  0.36690  0.04670  Biso   1.000  H
  C113     1.0000 0.14660  0.19038  0.52940  Biso   1.000  C
  C114     1.0000 0.85340  0.69038  0.97060  Biso   1.000  C
  C115     1.0000 0.85340  0.80962  0.47060  Biso   1.000  C
  C116     1.0000 0.14660  0.30962  0.02940  Biso   1.000  C
  H117     1.0000 0.15310  0.17990  0.48000  Biso   1.000  H
  H118     1.0000 0.84690  0.67990  0.02000  Biso   1.000  H
  H119     1.0000 0.84690  0.82010  0.52000  Biso   1.000  H
  H120     1.0000 0.15310  0.32010  0.98000  Biso   1.000  H
  C117     1.0000 0.17320  0.24650  0.63100  Biso   1.000  C
  C118     1.0000 0.82680  0.74650  0.86900  Biso   1.000  C
  C119     1.0000 0.82680  0.75350  0.36900  Biso   1.000  C
  C120     1.0000 0.17320  0.25350  0.13100  Biso   1.000  C
  H121     1.0000 0.19790  0.27560  0.65240  Biso   1.000  H
  H122     1.0000 0.80210  0.77560  0.84760  Biso   1.000  H
  H123     1.0000 0.80210  0.72440  0.34760  Biso   1.000  H
  H124     1.0000 0.19790  0.22440  0.15240  Biso   1.000  H
  C121     1.0000 0.13020  0.21943  0.67500  Biso   1.000  C
  C122     1.0000 0.86980  0.71943  0.82500  Biso   1.000  C
  C123     1.0000 0.86980  0.78057  0.32500  Biso   1.000  C
  C124     1.0000 0.13020  0.28057  0.17500  Biso   1.000  C
  H125     1.0000 0.12570  0.23030  0.72470  Biso   1.000  H
  H126     1.0000 0.87430  0.73030  0.77530  Biso   1.000  H
  H127     1.0000 0.87430  0.76970  0.27530  Biso   1.000  H
  H128     1.0000 0.12570  0.26970  0.22470  Biso   1.000  H
  C125     1.0000 0.23990  0.33840  0.35900  Biso   1.000  C
  C126     1.0000 0.76010  0.83840  0.14100  Biso   1.000  C
  C127     1.0000 0.76010  0.66160  0.64100  Biso   1.000  C
  C128     1.0000 0.23990  0.16160  0.85900  Biso   1.000  C
  H129     1.0000 0.17940  0.33580  0.35340  Biso   1.000  H
  H130     1.0000 0.82060  0.83580  0.14660  Biso   1.000  H
  H131     1.0000 0.82060  0.66420  0.64660  Biso   1.000  H
  H132     1.0000 0.17940  0.16420  0.85340  Biso   1.000  H
  C129     1.0000 0.26870  0.36719  0.30690  Biso   1.000  C
  C130     1.0000 0.73130  0.86719  0.19310  Biso   1.000  C
  C131     1.0000 0.73130  0.63281  0.69310  Biso   1.000  C
  C132     1.0000 0.26870  0.13281  0.80690  Biso   1.000  C
  H133     1.0000 0.22770  0.38350  0.26640  Biso   1.000  H
  H134     1.0000 0.77230  0.88350  0.23360  Biso   1.000  H
  H135     1.0000 0.77230  0.61650  0.73360  Biso   1.000  H
  H136     1.0000 0.22770  0.11650  0.76640  Biso   1.000  H
  C133     1.0000 0.35830  0.37230  0.31370  Biso   1.000  C
  C134     1.0000 0.64170  0.87230  0.18630  Biso   1.000  C
  C135     1.0000 0.64170  0.62770  0.68630  Biso   1.000  C
  C136     1.0000 0.35830  0.12770  0.81370  Biso   1.000  C
  C137     1.0000 0.41590  0.34680  0.37520  Biso   1.000  C
  C138     1.0000 0.58410  0.84680  0.12480  Biso   1.000  C
  C139     1.0000 0.58410  0.65320  0.62480  Biso   1.000  C
  C140     1.0000 0.41590  0.15320  0.87520  Biso   1.000  C
  H137     1.0000 0.47670  0.34920  0.38240  Biso   1.000  H
  H138     1.0000 0.52330  0.84920  0.11760  Biso   1.000  H
  H139     1.0000 0.52330  0.65080  0.61760  Biso   1.000  H
  H140     1.0000 0.47670  0.15080  0.88240  Biso   1.000  H
  C141     1.0000 0.38310  0.31789  0.42550  Biso   1.000  C
  C142     1.0000 0.61690  0.81789  0.07450  Biso   1.000  C
  C143     1.0000 0.61690  0.68211  0.57450  Biso   1.000  C
  C144     1.0000 0.38310  0.18211  0.92550  Biso   1.000  C
  H141     1.0000 0.42260  0.30080  0.46600  Biso   1.000  H
  H142     1.0000 0.57740  0.80080  0.03400  Biso   1.000  H
  H143     1.0000 0.57740  0.69920  0.53400  Biso   1.000  H
  H144     1.0000 0.42260  0.19920  0.96600  Biso   1.000  H
  C145     1.0000 0.38810  0.40553  0.25880  Biso   1.000  C
  C146     1.0000 0.61190  0.90553  0.24120  Biso   1.000  C
  C147     1.0000 0.61190  0.59447  0.74120  Biso   1.000  C
  C148     1.0000 0.38810  0.09447  0.75880  Biso   1.000  C
  C149     1.0000 0.33360  0.41280  0.18100  Biso   1.000  C
  C150     1.0000 0.66640  0.91280  0.31900  Biso   1.000  C
  C151     1.0000 0.66640  0.58720  0.81900  Biso   1.000  C
  C152     1.0000 0.33360  0.08720  0.68100  Biso   1.000  C
  H145     1.0000 0.28220  0.39470  0.16330  Biso   1.000  H
  H146     1.0000 0.71780  0.89470  0.33670  Biso   1.000  H
  H147     1.0000 0.71780  0.60530  0.83670  Biso   1.000  H
  H148     1.0000 0.28220  0.10530  0.66330  Biso   1.000  H
  C153     1.0000 0.35440  0.44630  0.13000  Biso   1.000  C
  C154     1.0000 0.64560  0.94630  0.37000  Biso   1.000  C
  C155     1.0000 0.64560  0.55370  0.87000  Biso   1.000  C
  C156     1.0000 0.35440  0.05370  0.63000  Biso   1.000  C
  H149     1.0000 0.31870  0.45010  0.07780  Biso   1.000  H
  H150     1.0000 0.68130  0.95010  0.42220  Biso   1.000  H
  H151     1.0000 0.68130  0.54990  0.92220  Biso   1.000  H
  H152     1.0000 0.31870  0.04990  0.57780  Biso   1.000  H
  C157     1.0000 0.43000  0.47430  0.15850  Biso   1.000  C
  C158     1.0000 0.57000  0.97430  0.34150  Biso   1.000  C
  C159     1.0000 0.57000  0.52570  0.84150  Biso   1.000  C
  C160     1.0000 0.43000  0.02570  0.65850  Biso   1.000  C
  C161     1.0000 0.48510  0.46670  0.23480  Biso   1.000  C
  C162     1.0000 0.51490  0.96670  0.26520  Biso   1.000  C
  C163     1.0000 0.51490  0.53330  0.76520  Biso   1.000  C
  C164     1.0000 0.48510  0.03330  0.73480  Biso   1.000  C
  C165     1.0000 0.46560  0.43270  0.28530  Biso   1.000  C
  C166     1.0000 0.53440  0.93270  0.21470  Biso   1.000  C
  C167     1.0000 0.53440  0.56730  0.71470  Biso   1.000  C
  C168     1.0000 0.46560  0.06730  0.78530  Biso   1.000  C
  H153     1.0000 0.50340  0.42780  0.33640  Biso   1.000  H
  H154     1.0000 0.49660  0.92780  0.16360  Biso   1.000  H
  H155     1.0000 0.49660  0.57220  0.66360  Biso   1.000  H
  H156     1.0000 0.50340  0.07220  0.83640  Biso   1.000  H
  C169     1.0000 0.56500  0.50100  0.25190  Biso   1.000  C
  C170     1.0000 0.43500  0.00100  0.24810  Biso   1.000  C
  C171     1.0000 0.43500  0.49900  0.74810  Biso   1.000  C
  C172     1.0000 0.56500  0.99900  0.75190  Biso   1.000  C
  C173     1.0000 0.65210  0.47300  0.26520  Biso   1.000  C
  C174     1.0000 0.34790  0.97300  0.23480  Biso   1.000  C
  C175     1.0000 0.34790  0.52700  0.73480  Biso   1.000  C
  C176     1.0000 0.65210  0.02700  0.76520  Biso   1.000  C
  H157     1.0000 0.70080  0.49580  0.27600  Biso   1.000  H
  H158     1.0000 0.29920  0.99580  0.22400  Biso   1.000  H
  H159     1.0000 0.29920  0.50420  0.72400  Biso   1.000  H
  H160     1.0000 0.70080  0.00420  0.77600  Biso   1.000  H
  H161     1.0000 0.65960  0.45280  0.31250  Biso   1.000  H
  H162     1.0000 0.34040  0.95280  0.18750  Biso   1.000  H
  H163     1.0000 0.34040  0.54720  0.68750  Biso   1.000  H
  H164     1.0000 0.65960  0.04720  0.81250  Biso   1.000  H
  C177     1.0000 0.65760  0.44160  0.19510  Biso   1.000  C
  C178     1.0000 0.34240  0.94160  0.30490  Biso   1.000  C
  C179     1.0000 0.34240  0.55840  0.80490  Biso   1.000  C
  C180     1.0000 0.65760  0.05840  0.69510  Biso   1.000  C
  H165     1.0000 0.65720  0.46200  0.14930  Biso   1.000  H
  H166     1.0000 0.34280  0.96200  0.35070  Biso   1.000  H
  H167     1.0000 0.34280  0.53800  0.85070  Biso   1.000  H
  H168     1.0000 0.65720  0.03800  0.64930  Biso   1.000  H
  H169     1.0000 0.60560  0.42120  0.18020  Biso   1.000  H
  H170     1.0000 0.39440  0.92120  0.31980  Biso   1.000  H
  H171     1.0000 0.39440  0.57880  0.81980  Biso   1.000  H
  H172     1.0000 0.60560  0.07880  0.68020  Biso   1.000  H
  C181     1.0000 0.74000  0.41000  0.21310  Biso   1.000  C
  C182     1.0000 0.26000  0.91000  0.28690  Biso   1.000  C
  C183     1.0000 0.26000  0.59000  0.78690  Biso   1.000  C
  C184     1.0000 0.74000  0.09000  0.71310  Biso   1.000  C
  H173     1.0000 0.79200  0.43010  0.23240  Biso   1.000  H
  H174     1.0000 0.20800  0.93010  0.26760  Biso   1.000  H
  H175     1.0000 0.20800  0.56990  0.76760  Biso   1.000  H
  H176     1.0000 0.79200  0.06990  0.73240  Biso   1.000  H
  H177     1.0000 0.73790  0.38750  0.25570  Biso   1.000  H
  H178     1.0000 0.26210  0.88750  0.24430  Biso   1.000  H
  H179     1.0000 0.26210  0.61250  0.74430  Biso   1.000  H
  H180     1.0000 0.73790  0.11250  0.75570  Biso   1.000  H
  C185     1.0000 0.74820  0.38200  0.13990  Biso   1.000  C
  C186     1.0000 0.25180  0.88200  0.36010  Biso   1.000  C
  C187     1.0000 0.25180  0.61800  0.86010  Biso   1.000  C
  C188     1.0000 0.74820  0.11800  0.63990  Biso   1.000  C
  H181     1.0000 0.69350  0.36570  0.11600  Biso   1.000  H
  H182     1.0000 0.30650  0.86570  0.38400  Biso   1.000  H
  H183     1.0000 0.30650  0.63430  0.88400  Biso   1.000  H
  H184     1.0000 0.69350  0.13430  0.61600  Biso   1.000  H
  H185     1.0000 0.79500  0.35890  0.15580  Biso   1.000  H
  H186     1.0000 0.20500  0.85890  0.34420  Biso   1.000  H
  H187     1.0000 0.20500  0.64110  0.84420  Biso   1.000  H
  H188     1.0000 0.79500  0.14110  0.65580  Biso   1.000  H
  H189     1.0000 0.76120  0.40390  0.10140  Biso   1.000  H
  H190     1.0000 0.23880  0.90390  0.39860  Biso   1.000  H
  H191     1.0000 0.23880  0.59610  0.89860  Biso   1.000  H
  H192     1.0000 0.76120  0.09610  0.60140  Biso   1.000  H
  C189     1.0000 0.56720  0.53400  0.32490  Biso   1.000  C
  C190     1.0000 0.43280  0.03400  0.17510  Biso   1.000  C
  C191     1.0000 0.43280  0.46600  0.67510  Biso   1.000  C
  C192     1.0000 0.56720  0.96600  0.82490  Biso   1.000  C
  H193     1.0000 0.57410  0.51380  0.37210  Biso   1.000  H
  H194     1.0000 0.42590  0.01380  0.12790  Biso   1.000  H
  H195     1.0000 0.42590  0.48620  0.62790  Biso   1.000  H
  H196     1.0000 0.57410  0.98620  0.87210  Biso   1.000  H
  H197     1.0000 0.61930  0.55430  0.33410  Biso   1.000  H
  H198     1.0000 0.38070  0.05430  0.16590  Biso   1.000  H
  H199     1.0000 0.38070  0.44570  0.66590  Biso   1.000  H
  H200     1.0000 0.61930  0.94570  0.83410  Biso   1.000  H
  C193     1.0000 0.48750  0.56600  0.31760  Biso   1.000  C
  C194     1.0000 0.51250  0.06600  0.18240  Biso   1.000  C
  C195     1.0000 0.51250  0.43400  0.68240  Biso   1.000  C
  C196     1.0000 0.48750  0.93400  0.81760  Biso   1.000  C
  H201     1.0000 0.43490  0.54610  0.30800  Biso   1.000  H
  H202     1.0000 0.56510  0.04610  0.19200  Biso   1.000  H
  H203     1.0000 0.56510  0.45390  0.69200  Biso   1.000  H
  H204     1.0000 0.43490  0.95390  0.80800  Biso   1.000  H
  H205     1.0000 0.48100  0.58690  0.27130  Biso   1.000  H
  H206     1.0000 0.51900  0.08690  0.22870  Biso   1.000  H
  H207     1.0000 0.51900  0.41310  0.72870  Biso   1.000  H
  H208     1.0000 0.48100  0.91310  0.77130  Biso   1.000  H
  C197     1.0000 0.49410  0.59660  0.39200  Biso   1.000  C
  C198     1.0000 0.50590  0.09660  0.10800  Biso   1.000  C
  C199     1.0000 0.50590  0.40340  0.60800  Biso   1.000  C
  C200     1.0000 0.49410  0.90340  0.89200  Biso   1.000  C
  H209     1.0000 0.49380  0.57570  0.43690  Biso   1.000  H
  H210     1.0000 0.50620  0.07570  0.06310  Biso   1.000  H
  H211     1.0000 0.50620  0.42430  0.56310  Biso   1.000  H
  H212     1.0000 0.49380  0.92430  0.93690  Biso   1.000  H
  H213     1.0000 0.55010  0.61370  0.40510  Biso   1.000  H
  H214     1.0000 0.44990  0.11370  0.09490  Biso   1.000  H
  H215     1.0000 0.44990  0.38630  0.59490  Biso   1.000  H
  H216     1.0000 0.55010  0.88630  0.90510  Biso   1.000  H
  C201     1.0000 0.42090  0.63220  0.38190  Biso   1.000  C
  C202     1.0000 0.57910  0.13220  0.11810  Biso   1.000  C
  C203     1.0000 0.57910  0.36780  0.61810  Biso   1.000  C
  C204     1.0000 0.42090  0.86780  0.88190  Biso   1.000  C
  H217     1.0000 0.42500  0.65550  0.34190  Biso   1.000  H
  H218     1.0000 0.57500  0.15550  0.15810  Biso   1.000  H
  H219     1.0000 0.57500  0.34450  0.65810  Biso   1.000  H
  H220     1.0000 0.42500  0.84450  0.84190  Biso   1.000  H
  H221     1.0000 0.42540  0.64820  0.43220  Biso   1.000  H
  H222     1.0000 0.57460  0.14820  0.06780  Biso   1.000  H
  H223     1.0000 0.57460  0.35180  0.56780  Biso   1.000  H
  H224     1.0000 0.42540  0.85180  0.93220  Biso   1.000  H
  H225     1.0000 0.36500  0.61590  0.36510  Biso   1.000  H
  H226     1.0000 0.63500  0.11590  0.13490  Biso   1.000  H
  H227     1.0000 0.63500  0.38410  0.63490  Biso   1.000  H
  H228     1.0000 0.36500  0.88410  0.86510  Biso   1.000  H
  C205     1.0000 0.54360  0.52950  0.17420  Biso   1.000  C
  C206     1.0000 0.45640  0.02950  0.32580  Biso   1.000  C
  C207     1.0000 0.45640  0.47050  0.82580  Biso   1.000  C
  C208     1.0000 0.54360  0.97050  0.67420  Biso   1.000  C
  C209     1.0000 0.46540  0.51360  0.11990  Biso   1.000  C
  C210     1.0000 0.53460  0.01360  0.38010  Biso   1.000  C
  C211     1.0000 0.53460  0.48640  0.88010  Biso   1.000  C
  C212     1.0000 0.46540  0.98640  0.61990  Biso   1.000  C
  C213     1.0000 0.43360  0.53570  0.04600  Biso   1.000  C
  C214     1.0000 0.56640  0.03570  0.45400  Biso   1.000  C
  C215     1.0000 0.56640  0.46430  0.95400  Biso   1.000  C
  C216     1.0000 0.43360  0.96430  0.54600  Biso   1.000  C
  H229     1.0000 0.38220  0.52460  0.00980  Biso   1.000  H
  H230     1.0000 0.61780  0.02460  0.49020  Biso   1.000  H
  H231     1.0000 0.61780  0.47540  0.99020  Biso   1.000  H
  H232     1.0000 0.38220  0.97540  0.50980  Biso   1.000  H
  C217     1.0000 0.47950  0.57460  0.02670  Biso   1.000  C
  C218     1.0000 0.52050  0.07460  0.47330  Biso   1.000  C
  C219     1.0000 0.52050  0.42540  0.97330  Biso   1.000  C
  C220     1.0000 0.47950  0.92540  0.52670  Biso   1.000  C
  H233     1.0000 0.45870  0.58960  0.97700  Biso   1.000  H
  H234     1.0000 0.54130  0.08960  0.52300  Biso   1.000  H
  H235     1.0000 0.54130  0.41040  0.02300  Biso   1.000  H
  H236     1.0000 0.45870  0.91040  0.47700  Biso   1.000  H
  C221     1.0000 0.55560  0.59120  0.08020  Biso   1.000  C
  C222     1.0000 0.44440  0.09120  0.41980  Biso   1.000  C
  C223     1.0000 0.44440  0.40880  0.91980  Biso   1.000  C
  C224     1.0000 0.55560  0.90880  0.58020  Biso   1.000  C
  C225     1.0000 0.58800  0.56820  0.15450  Biso   1.000  C
  C226     1.0000 0.41200  0.06820  0.34550  Biso   1.000  C
  C227     1.0000 0.41200  0.43180  0.84550  Biso   1.000  C
  C228     1.0000 0.58800  0.93180  0.65450  Biso   1.000  C
  H237     1.0000 0.63970  0.57920  0.19050  Biso   1.000  H
  H238     1.0000 0.36030  0.07920  0.30950  Biso   1.000  H
  H239     1.0000 0.36030  0.42080  0.80950  Biso   1.000  H
  H240     1.0000 0.63970  0.92080  0.69050  Biso   1.000  H
  C229     1.0000 0.60100  0.63472  0.06230  Biso   1.000  C
  C230     1.0000 0.39900  0.13472  0.43770  Biso   1.000  C
  C231     1.0000 0.39900  0.36528  0.93770  Biso   1.000  C
  C232     1.0000 0.60100  0.86528  0.56230  Biso   1.000  C
  C233     1.0000 0.64910  0.66460  0.12220  Biso   1.000  C
  C234     1.0000 0.35090  0.16460  0.37780  Biso   1.000  C
  C235     1.0000 0.35090  0.33540  0.87780  Biso   1.000  C
  C236     1.0000 0.64910  0.83540  0.62220  Biso   1.000  C
  H241     1.0000 0.65230  0.65770  0.17570  Biso   1.000  H
  H242     1.0000 0.34770  0.15770  0.32430  Biso   1.000  H
  H243     1.0000 0.34770  0.34230  0.82430  Biso   1.000  H
  H244     1.0000 0.65230  0.84230  0.67570  Biso   1.000  H
  C237     1.0000 0.69180  0.70390  0.10420  Biso   1.000  C
  C238     1.0000 0.30820  0.20390  0.39580  Biso   1.000  C
  C239     1.0000 0.30820  0.29610  0.89580  Biso   1.000  C
  C240     1.0000 0.69180  0.79610  0.60420  Biso   1.000  C
  H245     1.0000 0.72400  0.72310  0.14610  Biso   1.000  H
  H246     1.0000 0.27600  0.22310  0.35390  Biso   1.000  H
  H247     1.0000 0.27600  0.27690  0.85390  Biso   1.000  H
  H248     1.0000 0.72400  0.77690  0.64610  Biso   1.000  H
  C241     1.0000 0.64170  0.68850  0.96910  Biso   1.000  C
  C242     1.0000 0.35830  0.18850  0.53090  Biso   1.000  C
  C243     1.0000 0.35830  0.31150  0.03090  Biso   1.000  C
  C244     1.0000 0.64170  0.81150  0.46910  Biso   1.000  C
  H249     1.0000 0.63830  0.69700  0.91620  Biso   1.000  H
  H250     1.0000 0.36170  0.19700  0.58380  Biso   1.000  H
  H251     1.0000 0.36170  0.30300  0.08380  Biso   1.000  H
  H252     1.0000 0.63830  0.80300  0.41620  Biso   1.000  H
  C245     1.0000 0.59780  0.64819  0.98290  Biso   1.000  C
  C246     1.0000 0.40220  0.14819  0.51710  Biso   1.000  C
  C247     1.0000 0.40220  0.35181  0.01710  Biso   1.000  C
  C248     1.0000 0.59780  0.85181  0.48290  Biso   1.000  C
  H253     1.0000 0.56590  0.62970  0.93980  Biso   1.000  H
  H254     1.0000 0.43410  0.12970  0.56020  Biso   1.000  H
  H255     1.0000 0.43410  0.37030  0.06020  Biso   1.000  H
  H256     1.0000 0.56590  0.87030  0.43980  Biso   1.000  H
  C249     1.0000 0.55810  0.27370  0.87710  Biso   1.000  C
  C250     1.0000 0.44190  0.77370  0.62290  Biso   1.000  C
  C251     1.0000 0.44190  0.72630  0.12290  Biso   1.000  C
  C252     1.0000 0.55810  0.22630  0.37710  Biso   1.000  C
  H257     1.0000 0.58000  0.24970  0.84640  Biso   1.000  H
  H258     1.0000 0.42000  0.74970  0.65360  Biso   1.000  H
  H259     1.0000 0.42000  0.75030  0.15360  Biso   1.000  H
  H260     1.0000 0.58000  0.25030  0.34640  Biso   1.000  H
  H261     1.0000 0.49440  0.27590  0.85580  Biso   1.000  H
  H262     1.0000 0.50560  0.77590  0.64420  Biso   1.000  H
  H263     1.0000 0.50560  0.72410  0.14420  Biso   1.000  H
  H264     1.0000 0.49440  0.22410  0.35580  Biso   1.000  H
  C253     1.0000 0.56550  0.27280  0.16510  Biso   1.000  C
  C254     1.0000 0.43450  0.77280  0.33490  Biso   1.000  C
  C255     1.0000 0.43450  0.72720  0.83490  Biso   1.000  C
  C256     1.0000 0.56550  0.22720  0.66510  Biso   1.000  C
  H265     1.0000 0.55080  0.28060  0.10830  Biso   1.000  H
  H266     1.0000 0.44920  0.78060  0.39170  Biso   1.000  H
  H267     1.0000 0.44920  0.71940  0.89170  Biso   1.000  H
  H268     1.0000 0.55080  0.21940  0.60830  Biso   1.000  H
  H269     1.0000 0.52730  0.24670  0.17260  Biso   1.000  H
  H270     1.0000 0.47270  0.74670  0.32740  Biso   1.000  H
  H271     1.0000 0.47270  0.75330  0.82740  Biso   1.000  H
  H272     1.0000 0.52730  0.25330  0.67260  Biso   1.000  H
  C257     1.0000 0.83930  0.10990  0.38160  Biso   1.000  C
  C258     1.0000 0.16070  0.60990  0.11840  Biso   1.000  C
  C259     1.0000 0.16070  0.89010  0.61840  Biso   1.000  C
  C260     1.0000 0.83930  0.39010  0.88160  Biso   1.000  C
  H273     1.0000 0.87390  0.10630  0.34300  Biso   1.000  H
  H274     1.0000 0.12610  0.60630  0.15700  Biso   1.000  H
  H275     1.0000 0.12610  0.89370  0.65700  Biso   1.000  H
  H276     1.0000 0.87390  0.39370  0.84300  Biso   1.000  H
  H277     1.0000 0.82310  0.14350  0.38310  Biso   1.000  H
  H278     1.0000 0.17690  0.64350  0.11690  Biso   1.000  H
  H279     1.0000 0.17690  0.85650  0.61690  Biso   1.000  H
  H280     1.0000 0.82310  0.35650  0.88310  Biso   1.000  H
  C261     1.0000 0.75220  0.15230  0.00510  Biso   1.000  C
  C262     1.0000 0.24780  0.65230  0.49490  Biso   1.000  C
  C263     1.0000 0.24780  0.84770  0.99490  Biso   1.000  C
  C264     1.0000 0.75220  0.34770  0.50510  Biso   1.000  C
  H281     1.0000 0.71510  0.16260  0.03890  Biso   1.000  H
  H282     1.0000 0.28490  0.66260  0.46110  Biso   1.000  H
  H283     1.0000 0.28490  0.83740  0.96110  Biso   1.000  H
  H284     1.0000 0.71510  0.33740  0.53890  Biso   1.000  H
  H285     1.0000 0.79710  0.17680  0.00830  Biso   1.000  H
  H286     1.0000 0.20290  0.67680  0.49170  Biso   1.000  H
  H287     1.0000 0.20290  0.82320  0.99170  Biso   1.000  H
  H288     1.0000 0.79710  0.32320  0.50830  Biso   1.000  H
  C265     1.0000 0.85500  0.22180  0.54500  Biso   1.000  C
  C266     1.0000 0.14500  0.72180  0.95500  Biso   1.000  C
  C267     1.0000 0.14500  0.77820  0.45500  Biso   1.000  C
  C268     1.0000 0.85500  0.27820  0.04500  Biso   1.000  C
  H289     1.0000 0.89330  0.19770  0.57570  Biso   1.000  H
  H290     1.0000 0.10670  0.69770  0.92430  Biso   1.000  H
  H291     1.0000 0.10670  0.80230  0.42430  Biso   1.000  H
  H292     1.0000 0.89330  0.30230  0.07570  Biso   1.000  H
  H293     1.0000 0.82450  0.20890  0.49320  Biso   1.000  H
  H294     1.0000 0.17550  0.70890  0.00680  Biso   1.000  H
  H295     1.0000 0.17550  0.79110  0.50680  Biso   1.000  H
  H296     1.0000 0.82450  0.29110  0.99320  Biso   1.000  H
  H297     1.0000 0.81260  0.23160  0.57290  Biso   1.000  H
  H298     1.0000 0.18740  0.73160  0.92710  Biso   1.000  H
  H299     1.0000 0.18740  0.76840  0.42710  Biso   1.000  H
  H300     1.0000 0.81260  0.26840  0.07290  Biso   1.000  H
  H301     1.0000 0.77370  0.98270  0.54300  Biso   1.000  H
  H302     1.0000 0.22630  0.48270  0.95700  Biso   1.000  H
  H303     1.0000 0.22630  0.01730  0.45700  Biso   1.000  H
  H304     1.0000 0.77370  0.51730  0.04300  Biso   1.000  H
  H305     1.0000 0.83630  0.93860  0.57080  Biso   1.000  H
  H306     1.0000 0.16370  0.43860  0.92920  Biso   1.000  H
  H307     1.0000 0.16370  0.06140  0.42920  Biso   1.000  H
  H308     1.0000 0.83630  0.56140  0.07080  Biso   1.000  H
  C269     1.0000 0.87340  0.97530  0.49460  Biso   1.000  C
  C270     1.0000 0.12660  0.47530  0.00540  Biso   1.000  C
  C271     1.0000 0.12660  0.02470  0.50540  Biso   1.000  C
  C272     1.0000 0.87340  0.52470  0.99460  Biso   1.000  C
  H309     1.0000 0.88480  0.00890  0.48830  Biso   1.000  H
  H310     1.0000 0.11520  0.50890  0.01170  Biso   1.000  H
  H311     1.0000 0.11520  0.99110  0.51170  Biso   1.000  H
  H312     1.0000 0.88480  0.49110  0.98830  Biso   1.000  H
  H313     1.0000 0.83120  0.96380  0.44710  Biso   1.000  H
  H314     1.0000 0.16880  0.46380  0.05290  Biso   1.000  H
  H315     1.0000 0.16880  0.03620  0.55290  Biso   1.000  H
  H316     1.0000 0.83120  0.53620  0.94710  Biso   1.000  H
  H317     1.0000 0.92750  0.95750  0.50280  Biso   1.000  H
  H318     1.0000 0.07250  0.45750  0.99720  Biso   1.000  H
  H319     1.0000 0.07250  0.04250  0.49720  Biso   1.000  H
  H320     1.0000 0.92750  0.54250  0.00280  Biso   1.000  H
  H321     1.0000 0.51440  0.25240  0.16150  Biso   1.000  H
  H322     1.0000 0.48560  0.75240  0.33850  Biso   1.000  H
  H323     1.0000 0.48560  0.74760  0.83850  Biso   1.000  H
  H324     1.0000 0.51440  0.24760  0.66150  Biso   1.000  H
  H325     1.0000 0.61520  0.25610  0.20070  Biso   1.000  H
  H326     1.0000 0.38480  0.75610  0.29930  Biso   1.000  H
  H327     1.0000 0.38480  0.74390  0.79930  Biso   1.000  H
  H328     1.0000 0.61520  0.24390  0.70070  Biso   1.000  H
  C273     1.0000 0.15100  0.13770  0.26600  Biso   1.000  C
  C274     1.0000 0.84900  0.63770  0.23400  Biso   1.000  C
  C275     1.0000 0.84900  0.86230  0.73400  Biso   1.000  C
  C276     1.0000 0.15100  0.36230  0.76600  Biso   1.000  C
  H329     1.0000 0.20850  0.15240  0.27340  Biso   1.000  H
  H330     1.0000 0.79150  0.65240  0.22660  Biso   1.000  H
  H331     1.0000 0.79150  0.84760  0.72660  Biso   1.000  H
  H332     1.0000 0.20850  0.34760  0.77340  Biso   1.000  H
  H333     1.0000 0.11460  0.14560  0.21340  Biso   1.000  H
  H334     1.0000 0.88540  0.64560  0.28660  Biso   1.000  H
  H335     1.0000 0.88540  0.85440  0.78660  Biso   1.000  H
  H336     1.0000 0.11460  0.35440  0.71340  Biso   1.000  H
  H337     1.0000 0.15800  0.10340  0.27100  Biso   1.000  H
  H338     1.0000 0.84200  0.60340  0.22900  Biso   1.000  H
  H339     1.0000 0.84200  0.89660  0.72900  Biso   1.000  H
  H340     1.0000 0.15800  0.39660  0.77100  Biso   1.000  H
  Cl1      1.0000 0.54860  0.32152  0.21790  Biso   1.000  Cl
  Cl2      1.0000 0.45140  0.82152  0.28210  Biso   1.000  Cl
  Cl3      1.0000 0.45140  0.67848  0.78210  Biso   1.000  Cl
  Cl4      1.0000 0.54860  0.17848  0.71790  Biso   1.000  Cl
  Cl5      1.0000 0.67370  0.25500  0.19700  Biso   1.000  Cl
  Cl6      1.0000 0.32630  0.75500  0.30300  Biso   1.000  Cl
  Cl7      1.0000 0.32630  0.74500  0.80300  Biso   1.000  Cl
  Cl8      1.0000 0.67370  0.24500  0.69700  Biso   1.000  Cl
  Cl9      1.0000 0.89960  0.09190  0.47430  Biso   1.000  Cl
  Cl10     1.0000 0.10040  0.59190  0.02570  Biso   1.000  Cl
  Cl11     1.0000 0.10040  0.90810  0.52570  Biso   1.000  Cl
  Cl12     1.0000 0.89960  0.40810  0.97430  Biso   1.000  Cl
  Cl13     1.0000 0.73910  0.07250  0.35170  Biso   1.000  Cl
  Cl14     1.0000 0.26090  0.57250  0.14830  Biso   1.000  Cl
  Cl15     1.0000 0.26090  0.92750  0.64830  Biso   1.000  Cl
  Cl16     1.0000 0.73910  0.42750  0.85170  Biso   1.000  Cl
  Cl17     1.0000 0.58500  0.25720  0.97920  Biso   1.000  Cl
  Cl18     1.0000 0.41500  0.75720  0.52080  Biso   1.000  Cl
  Cl19     1.0000 0.41500  0.74280  0.02080  Biso   1.000  Cl
  Cl20     1.0000 0.58500  0.24280  0.47920  Biso   1.000  Cl
  Cl21     1.0000 0.60480  0.32750  0.86910  Biso   1.000  Cl
  Cl22     1.0000 0.39520  0.82750  0.63090  Biso   1.000  Cl
  Cl23     1.0000 0.39520  0.67250  0.13090  Biso   1.000  Cl
  Cl24     1.0000 0.60480  0.17250  0.36910  Biso   1.000  Cl
  Cl25     1.0000 0.80180  0.10120  0.04160  Biso   1.000  Cl
  Cl26     1.0000 0.19820  0.60120  0.45840  Biso   1.000  Cl
  Cl27     1.0000 0.19820  0.89880  0.95840  Biso   1.000  Cl
  Cl28     1.0000 0.80180  0.39880  0.54160  Biso   1.000  Cl
  Cl29     1.0000 0.69040  0.14890  0.91070  Biso   1.000  Cl
  Cl30     1.0000 0.30960  0.64890  0.58930  Biso   1.000  Cl
  Cl31     1.0000 0.30960  0.85110  0.08930  Biso   1.000  Cl
  Cl32     1.0000 0.69040  0.35110  0.41070  Biso   1.000  Cl
  Cl33     1.0000 0.58450  0.26970  0.07160  Biso   1.000  Cl
  Cl34     1.0000 0.41550  0.76970  0.42840  Biso   1.000  Cl
  Cl35     1.0000 0.41550  0.73030  0.92840  Biso   1.000  Cl
  Cl36     1.0000 0.58450  0.23030  0.57160  Biso   1.000  Cl
  Cu1      1.0000 0.24388  0.27401  0.49343  Biso   1.000  Cu
  Cu2      1.0000 0.75612  0.77401  0.00657  Biso   1.000  Cu
  Cu3      1.0000 0.75612  0.72599  0.50657  Biso   1.000  Cu
  Cu4      1.0000 0.24388  0.22599  0.99343  Biso   1.000  Cu
  N1       1.0000 0.18180  0.23315  0.55840  Biso   1.000  N
  N2       1.0000 0.81820  0.73315  0.94160  Biso   1.000  N
  N3       1.0000 0.81820  0.76685  0.44160  Biso   1.000  N
  N4       1.0000 0.18180  0.26685  0.05840  Biso   1.000  N
  N5       1.0000 0.81650  0.83440  0.98260  Biso   1.000  N
  N6       1.0000 0.18350  0.33440  0.51740  Biso   1.000  N
  N7       1.0000 0.18350  0.16560  0.01740  Biso   1.000  N
  N8       1.0000 0.81650  0.66560  0.48260  Biso   1.000  N
  N9       1.0000 0.68890  0.71618  0.02790  Biso   1.000  N
  N10      1.0000 0.31110  0.21618  0.47210  Biso   1.000  N
  N11      1.0000 0.31110  0.28382  0.97210  Biso   1.000  N
  N12      1.0000 0.68890  0.78382  0.52790  Biso   1.000  N
  N13      1.0000 0.29630  0.31358  0.41810  Biso   1.000  N
  N14      1.0000 0.70370  0.81358  0.08190  Biso   1.000  N
  N15      1.0000 0.70370  0.68642  0.58190  Biso   1.000  N
  N16      1.0000 0.29630  0.18642  0.91810  Biso   1.000  N
  N17      1.0000 0.06020  0.22810  0.35530  Biso   1.000  N
  N18      1.0000 0.93980  0.72810  0.14470  Biso   1.000  N
  N19      1.0000 0.93980  0.77190  0.64470  Biso   1.000  N
  N20      1.0000 0.06020  0.27190  0.85530  Biso   1.000  N
  N21      1.0000 0.91500  0.33320  0.69350  Biso   1.000  N
  N22      1.0000 0.08500  0.83320  0.80650  Biso   1.000  N
  N23      1.0000 0.08500  0.66680  0.30650  Biso   1.000  N
  N24      1.0000 0.91500  0.16680  0.19350  Biso   1.000  N
  O1       1.0000 0.37260  0.29057  0.60080  Biso   1.000  O
  O2       1.0000 0.62740  0.79057  0.89920  Biso   1.000  O
  O3       1.0000 0.62740  0.70943  0.39920  Biso   1.000  O
  O4       1.0000 0.37260  0.20943  0.10080  Biso   1.000  O
  O5       1.0000 0.10710  0.25740  0.38090  Biso   1.000  O
  O6       1.0000 0.89290  0.75740  0.11910  Biso   1.000  O
  O7       1.0000 0.89290  0.74260  0.61910  Biso   1.000  O
  O8       1.0000 0.10710  0.24260  0.88090  Biso   1.000  O
  O9       1.0000 0.94100  0.36310  0.74800  Biso   1.000  O
  O10      1.0000 0.05900  0.86310  0.75200  Biso   1.000  O
  O11      1.0000 0.05900  0.63690  0.25200  Biso   1.000  O
  O12      1.0000 0.94100  0.13690  0.24800  Biso   1.000  O
  H341     1.0000 0.99470  0.34870  0.74880  Biso   1.000  H
  H342     1.0000 0.00530  0.84870  0.75120  Biso   1.000  H
  H343     1.0000 0.00530  0.65130  0.25120  Biso   1.000  H
  H344     1.0000 0.99470  0.15130  0.24880  Biso   1.000  H
  H345     1.0000 0.89700  0.35530  0.70390  Biso   1.000  H
  H346     1.0000 0.10300  0.85530  0.79610  Biso   1.000  H
  H347     1.0000 0.10300  0.64470  0.29610  Biso   1.000  H
  H348     1.0000 0.89700  0.14470  0.20390  Biso   1.000  H
  O13      1.0000 0.07400  0.19900  0.30480  Biso   1.000  O
  O14      1.0000 0.92600  0.69900  0.19520  Biso   1.000  O
  O15      1.0000 0.92600  0.80100  0.69520  Biso   1.000  O
  O16      1.0000 0.07400  0.30100  0.80480  Biso   1.000  O
  O17      1.0000 0.99280  0.22630  0.37980  Biso   1.000  O
  O18      1.0000 0.00720  0.72630  0.12020  Biso   1.000  O
  O19      1.0000 0.00720  0.77370  0.62020  Biso   1.000  O
  O20      1.0000 0.99280  0.27370  0.87980  Biso   1.000  O
  O21      1.0000 0.90670  0.26260  0.53390  Biso   1.000  O
  O22      1.0000 0.09330  0.76260  0.96610  Biso   1.000  O
  O23      1.0000 0.09330  0.73740  0.46610  Biso   1.000  O
  O24      1.0000 0.90670  0.23740  0.03390  Biso   1.000  O
  H349     1.0000 0.89980  0.26740  0.48570  Biso   1.000  H
  H350     1.0000 0.10020  0.76740  0.01430  Biso   1.000  H
  H351     1.0000 0.10020  0.73260  0.51430  Biso   1.000  H
  H352     1.0000 0.89980  0.23260  0.98570  Biso   1.000  H
  O25      1.0000 0.83520  0.32340  0.68010  Biso   1.000  O
  O26      1.0000 0.16480  0.82340  0.81990  Biso   1.000  O
  O27      1.0000 0.16480  0.67660  0.31990  Biso   1.000  O
  O28      1.0000 0.83520  0.17660  0.18010  Biso   1.000  O
  O29      1.0000 0.96540  0.30600  0.66780  Biso   1.000  O
  O30      1.0000 0.03460  0.80600  0.83220  Biso   1.000  O
  O31      1.0000 0.03460  0.69400  0.33220  Biso   1.000  O
  O32      1.0000 0.96540  0.19400  0.16780  Biso   1.000  O
  O33      1.0000 0.94700  0.36990  0.73300  Biso   1.000  O
  O34      1.0000 0.05300  0.86990  0.76700  Biso   1.000  O
  O35      1.0000 0.05300  0.63010  0.26700  Biso   1.000  O
  O36      1.0000 0.94700  0.13010  0.23300  Biso   1.000  O
  O37      1.0000 0.11070  0.15550  0.32650  Biso   1.000  O
  O38      1.0000 0.88930  0.65550  0.17350  Biso   1.000  O
  O39      1.0000 0.88930  0.84450  0.67350  Biso   1.000  O
  O40      1.0000 0.11070  0.34450  0.82650  Biso   1.000  O
  H353     1.0000 0.05680  0.15210  0.31350  Biso   1.000  H
  H354     1.0000 0.94320  0.65210  0.18650  Biso   1.000  H
  H355     1.0000 0.94320  0.84790  0.68650  Biso   1.000  H
  H356     1.0000 0.05680  0.34790  0.81350  Biso   1.000  H
  O41      1.0000 0.12570  0.25420  0.37230  Biso   1.000  O
  O42      1.0000 0.87430  0.75420  0.12770  Biso   1.000  O
  O43      1.0000 0.87430  0.74580  0.62770  Biso   1.000  O
  O44      1.0000 0.12570  0.24580  0.87230  Biso   1.000  O
  H357     1.0000 0.12680  0.22350  0.35950  Biso   1.000  H
  H358     1.0000 0.87320  0.72350  0.14050  Biso   1.000  H
  H359     1.0000 0.87320  0.77650  0.64050  Biso   1.000  H
  H360     1.0000 0.12680  0.27650  0.85950  Biso   1.000  H
  H361     1.0000 0.07570  0.25490  0.38010  Biso   1.000  H
  H362     1.0000 0.92430  0.75490  0.11990  Biso   1.000  H
  H363     1.0000 0.92430  0.74510  0.61990  Biso   1.000  H
  H364     1.0000 0.07570  0.24510  0.88010  Biso   1.000  H
  O45      1.0000 0.94870  0.26260  0.39830  Biso   1.000  O
  O46      1.0000 0.05130  0.76260  0.10170  Biso   1.000  O
  O47      1.0000 0.05130  0.73740  0.60170  Biso   1.000  O
  O48      1.0000 0.94870  0.23740  0.89830  Biso   1.000  O
  H365     1.0000 0.94250  0.25930  0.44380  Biso   1.000  H
  H366     1.0000 0.05750  0.75930  0.05620  Biso   1.000  H
  H367     1.0000 0.05750  0.74070  0.55620  Biso   1.000  H
  H368     1.0000 0.94250  0.24070  0.94380  Biso   1.000  H
  C277     1.0000 0.86600  0.25140  0.34000  Biso   1.000  C
  C278     1.0000 0.13400  0.75140  0.16000  Biso   1.000  C
  C279     1.0000 0.13400  0.74860  0.66000  Biso   1.000  C
  C280     1.0000 0.86600  0.24860  0.84000  Biso   1.000  C
  H369     1.0000 0.82490  0.27720  0.33750  Biso   1.000  H
  H370     1.0000 0.17510  0.77720  0.16250  Biso   1.000  H
  H371     1.0000 0.17510  0.72280  0.66250  Biso   1.000  H
  H372     1.0000 0.82490  0.22280  0.83750  Biso   1.000  H
  H373     1.0000 0.84210  0.22220  0.35470  Biso   1.000  H
  H374     1.0000 0.15790  0.72220  0.14530  Biso   1.000  H
  H375     1.0000 0.15790  0.77780  0.64530  Biso   1.000  H
  H376     1.0000 0.84210  0.27780  0.85470  Biso   1.000  H
  H377     1.0000 0.87660  0.24740  0.28760  Biso   1.000  H
  H378     1.0000 0.12340  0.74740  0.21240  Biso   1.000  H
  H379     1.0000 0.12340  0.75260  0.71240  Biso   1.000  H
  H380     1.0000 0.87660  0.25260  0.78760  Biso   1.000  H
  O49      1.0000 0.36500  0.33960  0.69220  Biso   1.000  O
  O50      1.0000 0.63500  0.83960  0.80780  Biso   1.000  O
  O51      1.0000 0.63500  0.66040  0.30780  Biso   1.000  O
  O52      1.0000 0.36500  0.16040  0.19220  Biso   1.000  O
  O53      1.0000 0.38700  0.26330  0.71700  Biso   1.000  O
  O54      1.0000 0.61300  0.76330  0.78300  Biso   1.000  O
  O55      1.0000 0.61300  0.73670  0.28300  Biso   1.000  O
  O56      1.0000 0.38700  0.23670  0.21700  Biso   1.000  O
  N25      1.0000 0.37580  0.29520  0.67400  Biso   1.000  N
  N26      1.0000 0.62420  0.79520  0.82600  Biso   1.000  N
  N27      1.0000 0.62420  0.70480  0.32600  Biso   1.000  N
  N28      1.0000 0.37580  0.20480  0.17400  Biso   1.000  N
  O57      1.0000 0.32910  0.33340  0.68750  Biso   1.000  O
  O58      1.0000 0.67090  0.83340  0.81250  Biso   1.000  O
  O59      1.0000 0.67090  0.66660  0.31250  Biso   1.000  O
  O60      1.0000 0.32910  0.16660  0.18750  Biso   1.000  O
  N29      1.0000 0.38190  0.30760  0.66700  Biso   1.000  N
  N30      1.0000 0.61810  0.80760  0.83300  Biso   1.000  N
  N31      1.0000 0.61810  0.69240  0.33300  Biso   1.000  N
  N32      1.0000 0.38190  0.19240  0.16700  Biso   1.000  N
  O61      1.0000 0.44820  0.30240  0.72670  Biso   1.000  O
  O62      1.0000 0.55180  0.80240  0.77330  Biso   1.000  O
  O63      1.0000 0.55180  0.69760  0.27330  Biso   1.000  O
  O64      1.0000 0.44820  0.19760  0.22670  Biso   1.000  O
