data_image0
_cell_length_a       19.156
_cell_length_b       19.156
_cell_length_c       61.292
_cell_angle_alpha    90
_cell_angle_beta     90
_cell_angle_gamma    90

_symmetry_space_group_name_H-M    "P 1"
_symmetry_int_tables_number       1

loop_
  _symmetry_equiv_pos_as_xyz
  'x, y, z'

loop_
  _atom_site_label
  _atom_site_occupancy
  _atom_site_fract_x
  _atom_site_fract_y
  _atom_site_fract_z
  _atom_site_thermal_displace_type
  _atom_site_B_iso_or_equiv
  _atom_site_type_symbol
  Cu1      1.0000 0.68130  0.75000  0.75223  Biso   1.000  Cu
  Cu2      1.0000 0.31870  0.75000  0.75223  Biso   1.000  Cu
  Cu3      1.0000 0.68130  0.25000  0.24777  Biso   1.000  Cu
  Cu4      1.0000 0.31870  0.25000  0.24777  Biso   1.000  Cu
  Cu5      1.0000 0.50000  0.56870  0.99777  Biso   1.000  Cu
  Cu6      1.0000 0.00000  0.43130  0.49777  Biso   1.000  Cu
  Cu7      1.0000 0.00000  0.56870  0.50223  Biso   1.000  Cu
  Cu8      1.0000 0.50000  0.43130  0.00223  Biso   1.000  Cu
  Cu9      1.0000 0.18130  0.25000  0.25223  Biso   1.000  Cu
  Cu10     1.0000 0.81870  0.25000  0.25223  Biso   1.000  Cu
  Cu11     1.0000 0.18130  0.75000  0.74777  Biso   1.000  Cu
  Cu12     1.0000 0.81870  0.75000  0.74777  Biso   1.000  Cu
  Cu13     1.0000 0.00000  0.06870  0.49777  Biso   1.000  Cu
  Cu14     1.0000 0.50000  0.93130  0.99777  Biso   1.000  Cu
  Cu15     1.0000 0.50000  0.06870  0.00223  Biso   1.000  Cu
  Cu16     1.0000 0.00000  0.93130  0.50223  Biso   1.000  Cu
  Cu17     1.0000 0.50000  0.25000  0.64643  Biso   1.000  Cu
  Cu18     1.0000 0.50000  0.75000  0.35357  Biso   1.000  Cu
  Cu19     1.0000 0.00000  0.75000  0.10357  Biso   1.000  Cu
  Cu20     1.0000 0.50000  0.25000  0.60357  Biso   1.000  Cu
  Cu21     1.0000 0.50000  0.75000  0.39643  Biso   1.000  Cu
  Cu22     1.0000 0.00000  0.25000  0.89643  Biso   1.000  Cu
  Cu23     1.0000 0.00000  0.75000  0.14643  Biso   1.000  Cu
  Cu24     1.0000 0.00000  0.25000  0.85357  Biso   1.000  Cu
  C1       1.0000 0.74371  0.83958  0.72008  Biso   1.000  C
  C2       1.0000 0.25629  0.66042  0.72008  Biso   1.000  C
  C3       1.0000 0.74371  0.16042  0.27992  Biso   1.000  C
  C4       1.0000 0.25629  0.33958  0.27992  Biso   1.000  C
  C5       1.0000 0.41042  0.50629  0.02992  Biso   1.000  C
  C6       1.0000 0.08958  0.49371  0.52992  Biso   1.000  C
  C7       1.0000 0.08958  0.50629  0.47008  Biso   1.000  C
  C8       1.0000 0.41042  0.49371  0.97008  Biso   1.000  C
  C9       1.0000 0.24371  0.33958  0.22008  Biso   1.000  C
  C10      1.0000 0.75629  0.16042  0.22008  Biso   1.000  C
  C11      1.0000 0.24371  0.66042  0.77992  Biso   1.000  C
  C12      1.0000 0.75629  0.83958  0.77992  Biso   1.000  C
  C13      1.0000 0.91042  0.00629  0.52992  Biso   1.000  C
  C14      1.0000 0.58958  0.99371  0.02992  Biso   1.000  C
  C15      1.0000 0.58958  0.00629  0.97008  Biso   1.000  C
  C16      1.0000 0.91042  0.99371  0.47008  Biso   1.000  C
  C17      1.0000 0.25629  0.16042  0.27992  Biso   1.000  C
  C18      1.0000 0.74371  0.33958  0.27992  Biso   1.000  C
  C19      1.0000 0.25629  0.83958  0.72008  Biso   1.000  C
  C20      1.0000 0.74371  0.66042  0.72008  Biso   1.000  C
  C21      1.0000 0.08958  0.99371  0.47008  Biso   1.000  C
  C22      1.0000 0.41042  0.00629  0.97008  Biso   1.000  C
  C23      1.0000 0.41042  0.99371  0.02992  Biso   1.000  C
  C24      1.0000 0.08958  0.00629  0.52992  Biso   1.000  C
  C25      1.0000 0.75629  0.66042  0.77992  Biso   1.000  C
  C26      1.0000 0.24371  0.83958  0.77992  Biso   1.000  C
  C27      1.0000 0.75629  0.33958  0.22008  Biso   1.000  C
  C28      1.0000 0.24371  0.16042  0.22008  Biso   1.000  C
  C29      1.0000 0.58958  0.49371  0.97008  Biso   1.000  C
  C30      1.0000 0.91042  0.50629  0.47008  Biso   1.000  C
  C31      1.0000 0.91042  0.49371  0.52992  Biso   1.000  C
  C32      1.0000 0.58958  0.50629  0.02992  Biso   1.000  C
  C33      1.0000 0.73605  0.88598  0.70072  Biso   1.000  C
  C34      1.0000 0.26395  0.61402  0.70072  Biso   1.000  C
  C35      1.0000 0.73605  0.11402  0.29928  Biso   1.000  C
  C36      1.0000 0.26395  0.38598  0.29928  Biso   1.000  C
  C37      1.0000 0.36402  0.51395  0.04928  Biso   1.000  C
  C38      1.0000 0.13598  0.48605  0.54928  Biso   1.000  C
  C39      1.0000 0.13598  0.51395  0.45072  Biso   1.000  C
  C40      1.0000 0.36402  0.48605  0.95072  Biso   1.000  C
  C41      1.0000 0.23605  0.38598  0.20072  Biso   1.000  C
  C42      1.0000 0.76395  0.11402  0.20072  Biso   1.000  C
  C43      1.0000 0.23605  0.61402  0.79928  Biso   1.000  C
  C44      1.0000 0.76395  0.88598  0.79928  Biso   1.000  C
  C45      1.0000 0.86402  0.01395  0.54928  Biso   1.000  C
  C46      1.0000 0.63598  0.98605  0.04928  Biso   1.000  C
  C47      1.0000 0.63598  0.01395  0.95072  Biso   1.000  C
  C48      1.0000 0.86402  0.98605  0.45072  Biso   1.000  C
  C49      1.0000 0.26395  0.11402  0.29928  Biso   1.000  C
  C50      1.0000 0.73605  0.38598  0.29928  Biso   1.000  C
  C51      1.0000 0.26395  0.88598  0.70072  Biso   1.000  C
  C52      1.0000 0.73605  0.61402  0.70072  Biso   1.000  C
  C53      1.0000 0.13598  0.98605  0.45072  Biso   1.000  C
  C54      1.0000 0.36402  0.01395  0.95072  Biso   1.000  C
  C55      1.0000 0.36402  0.98605  0.04928  Biso   1.000  C
  C56      1.0000 0.13598  0.01395  0.54928  Biso   1.000  C
  C57      1.0000 0.76395  0.61402  0.79928  Biso   1.000  C
  C58      1.0000 0.23605  0.88598  0.79928  Biso   1.000  C
  C59      1.0000 0.76395  0.38598  0.20072  Biso   1.000  C
  C60      1.0000 0.23605  0.11402  0.20072  Biso   1.000  C
  C61      1.0000 0.63598  0.48605  0.95072  Biso   1.000  C
  C62      1.0000 0.86402  0.51395  0.45072  Biso   1.000  C
  C63      1.0000 0.86402  0.48605  0.54928  Biso   1.000  C
  C64      1.0000 0.63598  0.51395  0.04928  Biso   1.000  C
  C65      1.0000 0.79365  0.90539  0.68855  Biso   1.000  C
  C66      1.0000 0.20635  0.59461  0.68855  Biso   1.000  C
  C67      1.0000 0.79365  0.09461  0.31145  Biso   1.000  C
  C68      1.0000 0.20635  0.40539  0.31145  Biso   1.000  C
  C69      1.0000 0.34461  0.45635  0.06145  Biso   1.000  C
  C70      1.0000 0.15539  0.54365  0.56145  Biso   1.000  C
  C71      1.0000 0.15539  0.45635  0.43855  Biso   1.000  C
  C72      1.0000 0.34461  0.54365  0.93855  Biso   1.000  C
  C73      1.0000 0.29365  0.40539  0.18855  Biso   1.000  C
  C74      1.0000 0.70635  0.09461  0.18855  Biso   1.000  C
  C75      1.0000 0.29365  0.59461  0.81145  Biso   1.000  C
  C76      1.0000 0.70635  0.90539  0.81145  Biso   1.000  C
  C77      1.0000 0.84461  0.95635  0.56145  Biso   1.000  C
  C78      1.0000 0.65539  0.04365  0.06145  Biso   1.000  C
  C79      1.0000 0.65539  0.95635  0.93855  Biso   1.000  C
  C80      1.0000 0.84461  0.04365  0.43855  Biso   1.000  C
  C81      1.0000 0.20635  0.09461  0.31145  Biso   1.000  C
  C82      1.0000 0.79365  0.40539  0.31145  Biso   1.000  C
  C83      1.0000 0.20635  0.90539  0.68855  Biso   1.000  C
  C84      1.0000 0.79365  0.59461  0.68855  Biso   1.000  C
  C85      1.0000 0.15539  0.04365  0.43855  Biso   1.000  C
  C86      1.0000 0.34461  0.95635  0.93855  Biso   1.000  C
  C87      1.0000 0.34461  0.04365  0.06145  Biso   1.000  C
  C88      1.0000 0.15539  0.95635  0.56145  Biso   1.000  C
  C89      1.0000 0.70635  0.59461  0.81145  Biso   1.000  C
  C90      1.0000 0.29365  0.90539  0.81145  Biso   1.000  C
  C91      1.0000 0.70635  0.40539  0.18855  Biso   1.000  C
  C92      1.0000 0.29365  0.09461  0.18855  Biso   1.000  C
  C93      1.0000 0.65539  0.54365  0.93855  Biso   1.000  C
  C94      1.0000 0.84461  0.45635  0.43855  Biso   1.000  C
  C95      1.0000 0.84461  0.54365  0.56145  Biso   1.000  C
  C96      1.0000 0.65539  0.45635  0.06145  Biso   1.000  C
  H1       1.0000 0.83800  0.89100  0.69280  Biso   1.000  H
  H2       1.0000 0.16200  0.60900  0.69280  Biso   1.000  H
  H3       1.0000 0.83800  0.10900  0.30720  Biso   1.000  H
  H4       1.0000 0.16200  0.39100  0.30720  Biso   1.000  H
  H5       1.0000 0.35900  0.41200  0.05720  Biso   1.000  H
  H6       1.0000 0.14100  0.58800  0.55720  Biso   1.000  H
  H7       1.0000 0.14100  0.41200  0.44280  Biso   1.000  H
  H8       1.0000 0.35900  0.58800  0.94280  Biso   1.000  H
  H9       1.0000 0.33800  0.39100  0.19280  Biso   1.000  H
  H10      1.0000 0.66200  0.10900  0.19280  Biso   1.000  H
  H11      1.0000 0.33800  0.60900  0.80720  Biso   1.000  H
  H12      1.0000 0.66200  0.89100  0.80720  Biso   1.000  H
  H13      1.0000 0.85900  0.91200  0.55720  Biso   1.000  H
  H14      1.0000 0.64100  0.08800  0.05720  Biso   1.000  H
  H15      1.0000 0.64100  0.91200  0.94280  Biso   1.000  H
  H16      1.0000 0.85900  0.08800  0.44280  Biso   1.000  H
  H17      1.0000 0.16200  0.10900  0.30720  Biso   1.000  H
  H18      1.0000 0.83800  0.39100  0.30720  Biso   1.000  H
  H19      1.0000 0.16200  0.89100  0.69280  Biso   1.000  H
  H20      1.0000 0.83800  0.60900  0.69280  Biso   1.000  H
  H21      1.0000 0.14100  0.08800  0.44280  Biso   1.000  H
  H22      1.0000 0.35900  0.91200  0.94280  Biso   1.000  H
  H23      1.0000 0.35900  0.08800  0.05720  Biso   1.000  H
  H24      1.0000 0.14100  0.91200  0.55720  Biso   1.000  H
  H25      1.0000 0.66200  0.60900  0.80720  Biso   1.000  H
  H26      1.0000 0.33800  0.89100  0.80720  Biso   1.000  H
  H27      1.0000 0.66200  0.39100  0.19280  Biso   1.000  H
  H28      1.0000 0.33800  0.10900  0.19280  Biso   1.000  H
  H29      1.0000 0.64100  0.58800  0.94280  Biso   1.000  H
  H30      1.0000 0.85900  0.41200  0.44280  Biso   1.000  H
  H31      1.0000 0.85900  0.58800  0.55720  Biso   1.000  H
  H32      1.0000 0.64100  0.41200  0.05720  Biso   1.000  H
  C97      1.0000 0.78569  0.94618  0.67006  Biso   1.000  C
  C98      1.0000 0.21431  0.55382  0.67006  Biso   1.000  C
  C99      1.0000 0.78569  0.05382  0.32994  Biso   1.000  C
  C100     1.0000 0.21431  0.44618  0.32994  Biso   1.000  C
  C101     1.0000 0.30382  0.46431  0.07994  Biso   1.000  C
  C102     1.0000 0.19618  0.53569  0.57994  Biso   1.000  C
  C103     1.0000 0.19618  0.46431  0.42006  Biso   1.000  C
  C104     1.0000 0.30382  0.53569  0.92006  Biso   1.000  C
  C105     1.0000 0.28569  0.44618  0.17006  Biso   1.000  C
  C106     1.0000 0.71431  0.05382  0.17006  Biso   1.000  C
  C107     1.0000 0.28569  0.55382  0.82994  Biso   1.000  C
  C108     1.0000 0.71431  0.94618  0.82994  Biso   1.000  C
  C109     1.0000 0.80382  0.96431  0.57994  Biso   1.000  C
  C110     1.0000 0.69618  0.03569  0.07994  Biso   1.000  C
  C111     1.0000 0.69618  0.96431  0.92006  Biso   1.000  C
  C112     1.0000 0.80382  0.03569  0.42006  Biso   1.000  C
  C113     1.0000 0.21431  0.05382  0.32994  Biso   1.000  C
  C114     1.0000 0.78569  0.44618  0.32994  Biso   1.000  C
  C115     1.0000 0.21431  0.94618  0.67006  Biso   1.000  C
  C116     1.0000 0.78569  0.55382  0.67006  Biso   1.000  C
  C117     1.0000 0.19618  0.03569  0.42006  Biso   1.000  C
  C118     1.0000 0.30382  0.96431  0.92006  Biso   1.000  C
  C119     1.0000 0.30382  0.03569  0.07994  Biso   1.000  C
  C120     1.0000 0.19618  0.96431  0.57994  Biso   1.000  C
  C121     1.0000 0.71431  0.55382  0.82994  Biso   1.000  C
  C122     1.0000 0.28569  0.94618  0.82994  Biso   1.000  C
  C123     1.0000 0.71431  0.44618  0.17006  Biso   1.000  C
  C124     1.0000 0.28569  0.05382  0.17006  Biso   1.000  C
  C125     1.0000 0.69618  0.53569  0.92006  Biso   1.000  C
  C126     1.0000 0.80382  0.46431  0.42006  Biso   1.000  C
  C127     1.0000 0.80382  0.53569  0.57994  Biso   1.000  C
  C128     1.0000 0.69618  0.46431  0.07994  Biso   1.000  C
  H33      1.0000 0.82470  0.95860  0.66190  Biso   1.000  H
  H34      1.0000 0.17530  0.54140  0.66190  Biso   1.000  H
  H35      1.0000 0.82470  0.04140  0.33810  Biso   1.000  H
  H36      1.0000 0.17530  0.45860  0.33810  Biso   1.000  H
  H37      1.0000 0.29140  0.42530  0.08810  Biso   1.000  H
  H38      1.0000 0.20860  0.57470  0.58810  Biso   1.000  H
  H39      1.0000 0.20860  0.42530  0.41190  Biso   1.000  H
  H40      1.0000 0.29140  0.57470  0.91190  Biso   1.000  H
  H41      1.0000 0.32470  0.45860  0.16190  Biso   1.000  H
  H42      1.0000 0.67530  0.04140  0.16190  Biso   1.000  H
  H43      1.0000 0.32470  0.54140  0.83810  Biso   1.000  H
  H44      1.0000 0.67530  0.95860  0.83810  Biso   1.000  H
  H45      1.0000 0.79140  0.92530  0.58810  Biso   1.000  H
  H46      1.0000 0.70860  0.07470  0.08810  Biso   1.000  H
  H47      1.0000 0.70860  0.92530  0.91190  Biso   1.000  H
  H48      1.0000 0.79140  0.07470  0.41190  Biso   1.000  H
  H49      1.0000 0.17530  0.04140  0.33810  Biso   1.000  H
  H50      1.0000 0.82470  0.45860  0.33810  Biso   1.000  H
  H51      1.0000 0.17530  0.95860  0.66190  Biso   1.000  H
  H52      1.0000 0.82470  0.54140  0.66190  Biso   1.000  H
  H53      1.0000 0.20860  0.07470  0.41190  Biso   1.000  H
  H54      1.0000 0.29140  0.92530  0.91190  Biso   1.000  H
  H55      1.0000 0.29140  0.07470  0.08810  Biso   1.000  H
  H56      1.0000 0.20860  0.92530  0.58810  Biso   1.000  H
  H57      1.0000 0.67530  0.54140  0.83810  Biso   1.000  H
  H58      1.0000 0.32470  0.95860  0.83810  Biso   1.000  H
  H59      1.0000 0.67530  0.45860  0.16190  Biso   1.000  H
  H60      1.0000 0.32470  0.04140  0.16190  Biso   1.000  H
  H61      1.0000 0.70860  0.57470  0.91190  Biso   1.000  H
  H62      1.0000 0.79140  0.42530  0.41190  Biso   1.000  H
  H63      1.0000 0.79140  0.57470  0.58810  Biso   1.000  H
  H64      1.0000 0.70860  0.42530  0.08810  Biso   1.000  H
  C129     1.0000 0.72023  0.96864  0.66358  Biso   1.000  C
  C130     1.0000 0.27977  0.53136  0.66358  Biso   1.000  C
  C131     1.0000 0.72023  0.03136  0.33642  Biso   1.000  C
  C132     1.0000 0.27977  0.46864  0.33642  Biso   1.000  C
  C133     1.0000 0.28136  0.52977  0.08642  Biso   1.000  C
  C134     1.0000 0.21864  0.47023  0.58642  Biso   1.000  C
  C135     1.0000 0.21864  0.52977  0.41358  Biso   1.000  C
  C136     1.0000 0.28136  0.47023  0.91358  Biso   1.000  C
  C137     1.0000 0.22023  0.46864  0.16358  Biso   1.000  C
  C138     1.0000 0.77977  0.03136  0.16358  Biso   1.000  C
  C139     1.0000 0.22023  0.53136  0.83642  Biso   1.000  C
  C140     1.0000 0.77977  0.96864  0.83642  Biso   1.000  C
  C141     1.0000 0.78136  0.02977  0.58642  Biso   1.000  C
  C142     1.0000 0.71864  0.97023  0.08642  Biso   1.000  C
  C143     1.0000 0.71864  0.02977  0.91358  Biso   1.000  C
  C144     1.0000 0.78136  0.97023  0.41358  Biso   1.000  C
  C145     1.0000 0.27977  0.03136  0.33642  Biso   1.000  C
  C146     1.0000 0.72023  0.46864  0.33642  Biso   1.000  C
  C147     1.0000 0.27977  0.96864  0.66358  Biso   1.000  C
  C148     1.0000 0.72023  0.53136  0.66358  Biso   1.000  C
  C149     1.0000 0.21864  0.97023  0.41358  Biso   1.000  C
  C150     1.0000 0.28136  0.02977  0.91358  Biso   1.000  C
  C151     1.0000 0.28136  0.97023  0.08642  Biso   1.000  C
  C152     1.0000 0.21864  0.02977  0.58642  Biso   1.000  C
  C153     1.0000 0.77977  0.53136  0.83642  Biso   1.000  C
  C154     1.0000 0.22023  0.96864  0.83642  Biso   1.000  C
  C155     1.0000 0.77977  0.46864  0.16358  Biso   1.000  C
  C156     1.0000 0.22023  0.03136  0.16358  Biso   1.000  C
  C157     1.0000 0.71864  0.47023  0.91358  Biso   1.000  C
  C158     1.0000 0.78136  0.52977  0.41358  Biso   1.000  C
  C159     1.0000 0.78136  0.47023  0.58642  Biso   1.000  C
  C160     1.0000 0.71864  0.52977  0.08642  Biso   1.000  C
  C161     1.0000 0.66314  0.94909  0.67594  Biso   1.000  C
  C162     1.0000 0.33686  0.55091  0.67594  Biso   1.000  C
  C163     1.0000 0.66314  0.05091  0.32406  Biso   1.000  C
  C164     1.0000 0.33686  0.44909  0.32406  Biso   1.000  C
  C165     1.0000 0.30091  0.58686  0.07406  Biso   1.000  C
  C166     1.0000 0.19909  0.41314  0.57406  Biso   1.000  C
  C167     1.0000 0.19909  0.58686  0.42594  Biso   1.000  C
  C168     1.0000 0.30091  0.41314  0.92594  Biso   1.000  C
  C169     1.0000 0.16314  0.44909  0.17594  Biso   1.000  C
  C170     1.0000 0.83686  0.05091  0.17594  Biso   1.000  C
  C171     1.0000 0.16314  0.55091  0.82406  Biso   1.000  C
  C172     1.0000 0.83686  0.94909  0.82406  Biso   1.000  C
  C173     1.0000 0.80091  0.08686  0.57406  Biso   1.000  C
  C174     1.0000 0.69909  0.91314  0.07406  Biso   1.000  C
  C175     1.0000 0.69909  0.08686  0.92594  Biso   1.000  C
  C176     1.0000 0.80091  0.91314  0.42594  Biso   1.000  C
  C177     1.0000 0.33686  0.05091  0.32406  Biso   1.000  C
  C178     1.0000 0.66314  0.44909  0.32406  Biso   1.000  C
  C179     1.0000 0.33686  0.94909  0.67594  Biso   1.000  C
  C180     1.0000 0.66314  0.55091  0.67594  Biso   1.000  C
  C181     1.0000 0.19909  0.91314  0.42594  Biso   1.000  C
  C182     1.0000 0.30091  0.08686  0.92594  Biso   1.000  C
  C183     1.0000 0.30091  0.91314  0.07406  Biso   1.000  C
  C184     1.0000 0.19909  0.08686  0.57406  Biso   1.000  C
  C185     1.0000 0.83686  0.55091  0.82406  Biso   1.000  C
  C186     1.0000 0.16314  0.94909  0.82406  Biso   1.000  C
  C187     1.0000 0.83686  0.44909  0.17594  Biso   1.000  C
  C188     1.0000 0.16314  0.05091  0.17594  Biso   1.000  C
  C189     1.0000 0.69909  0.41314  0.92594  Biso   1.000  C
  C190     1.0000 0.80091  0.58686  0.42594  Biso   1.000  C
  C191     1.0000 0.80091  0.41314  0.57406  Biso   1.000  C
  C192     1.0000 0.69909  0.58686  0.07406  Biso   1.000  C
  H65      1.0000 0.61880  0.96380  0.67180  Biso   1.000  H
  H66      1.0000 0.38120  0.53620  0.67180  Biso   1.000  H
  H67      1.0000 0.61880  0.03620  0.32820  Biso   1.000  H
  H68      1.0000 0.38120  0.46380  0.32820  Biso   1.000  H
  H69      1.0000 0.28620  0.63120  0.07820  Biso   1.000  H
  H70      1.0000 0.21380  0.36880  0.57820  Biso   1.000  H
  H71      1.0000 0.21380  0.63120  0.42180  Biso   1.000  H
  H72      1.0000 0.28620  0.36880  0.92180  Biso   1.000  H
  H73      1.0000 0.11880  0.46380  0.17180  Biso   1.000  H
  H74      1.0000 0.88120  0.03620  0.17180  Biso   1.000  H
  H75      1.0000 0.11880  0.53620  0.82820  Biso   1.000  H
  H76      1.0000 0.88120  0.96380  0.82820  Biso   1.000  H
  H77      1.0000 0.78620  0.13120  0.57820  Biso   1.000  H
  H78      1.0000 0.71380  0.86880  0.07820  Biso   1.000  H
  H79      1.0000 0.71380  0.13120  0.92180  Biso   1.000  H
  H80      1.0000 0.78620  0.86880  0.42180  Biso   1.000  H
  H81      1.0000 0.38120  0.03620  0.32820  Biso   1.000  H
  H82      1.0000 0.61880  0.46380  0.32820  Biso   1.000  H
  H83      1.0000 0.38120  0.96380  0.67180  Biso   1.000  H
  H84      1.0000 0.61880  0.53620  0.67180  Biso   1.000  H
  H85      1.0000 0.21380  0.86880  0.42180  Biso   1.000  H
  H86      1.0000 0.28620  0.13120  0.92180  Biso   1.000  H
  H87      1.0000 0.28620  0.86880  0.07820  Biso   1.000  H
  H88      1.0000 0.21380  0.13120  0.57820  Biso   1.000  H
  H89      1.0000 0.88120  0.53620  0.82820  Biso   1.000  H
  H90      1.0000 0.11880  0.96380  0.82820  Biso   1.000  H
  H91      1.0000 0.88120  0.46380  0.17180  Biso   1.000  H
  H92      1.0000 0.11880  0.03620  0.17180  Biso   1.000  H
  H93      1.0000 0.71380  0.36880  0.92180  Biso   1.000  H
  H94      1.0000 0.78620  0.63120  0.42180  Biso   1.000  H
  H95      1.0000 0.78620  0.36880  0.57820  Biso   1.000  H
  H96      1.0000 0.71380  0.63120  0.07820  Biso   1.000  H
  C193     1.0000 0.67049  0.90810  0.69432  Biso   1.000  C
  C194     1.0000 0.32951  0.59190  0.69432  Biso   1.000  C
  C195     1.0000 0.67049  0.09190  0.30568  Biso   1.000  C
  C196     1.0000 0.32951  0.40810  0.30568  Biso   1.000  C
  C197     1.0000 0.34190  0.57951  0.05568  Biso   1.000  C
  C198     1.0000 0.15810  0.42049  0.55568  Biso   1.000  C
  C199     1.0000 0.15810  0.57951  0.44432  Biso   1.000  C
  C200     1.0000 0.34190  0.42049  0.94432  Biso   1.000  C
  C201     1.0000 0.17049  0.40810  0.19432  Biso   1.000  C
  C202     1.0000 0.82951  0.09190  0.19432  Biso   1.000  C
  C203     1.0000 0.17049  0.59190  0.80568  Biso   1.000  C
  C204     1.0000 0.82951  0.90810  0.80568  Biso   1.000  C
  C205     1.0000 0.84190  0.07951  0.55568  Biso   1.000  C
  C206     1.0000 0.65810  0.92049  0.05568  Biso   1.000  C
  C207     1.0000 0.65810  0.07951  0.94432  Biso   1.000  C
  C208     1.0000 0.84190  0.92049  0.44432  Biso   1.000  C
  C209     1.0000 0.32951  0.09190  0.30568  Biso   1.000  C
  C210     1.0000 0.67049  0.40810  0.30568  Biso   1.000  C
  C211     1.0000 0.32951  0.90810  0.69432  Biso   1.000  C
  C212     1.0000 0.67049  0.59190  0.69432  Biso   1.000  C
  C213     1.0000 0.15810  0.92049  0.44432  Biso   1.000  C
  C214     1.0000 0.34190  0.07951  0.94432  Biso   1.000  C
  C215     1.0000 0.34190  0.92049  0.05568  Biso   1.000  C
  C216     1.0000 0.15810  0.07951  0.55568  Biso   1.000  C
  C217     1.0000 0.82951  0.59190  0.80568  Biso   1.000  C
  C218     1.0000 0.17049  0.90810  0.80568  Biso   1.000  C
  C219     1.0000 0.82951  0.40810  0.19432  Biso   1.000  C
  C220     1.0000 0.17049  0.09190  0.19432  Biso   1.000  C
  C221     1.0000 0.65810  0.42049  0.94432  Biso   1.000  C
  C222     1.0000 0.84190  0.57951  0.44432  Biso   1.000  C
  C223     1.0000 0.84190  0.42049  0.55568  Biso   1.000  C
  C224     1.0000 0.65810  0.57951  0.05568  Biso   1.000  C
  H97      1.0000 0.63140  0.89540  0.70240  Biso   1.000  H
  H98      1.0000 0.36860  0.60460  0.70240  Biso   1.000  H
  H99      1.0000 0.63140  0.10460  0.29760  Biso   1.000  H
  H100     1.0000 0.36860  0.39540  0.29760  Biso   1.000  H
  H101     1.0000 0.35460  0.61860  0.04760  Biso   1.000  H
  H102     1.0000 0.14540  0.38140  0.54760  Biso   1.000  H
  H103     1.0000 0.14540  0.61860  0.45240  Biso   1.000  H
  H104     1.0000 0.35460  0.38140  0.95240  Biso   1.000  H
  H105     1.0000 0.13140  0.39540  0.20240  Biso   1.000  H
  H106     1.0000 0.86860  0.10460  0.20240  Biso   1.000  H
  H107     1.0000 0.13140  0.60460  0.79760  Biso   1.000  H
  H108     1.0000 0.86860  0.89540  0.79760  Biso   1.000  H
  H109     1.0000 0.85460  0.11860  0.54760  Biso   1.000  H
  H110     1.0000 0.64540  0.88140  0.04760  Biso   1.000  H
  H111     1.0000 0.64540  0.11860  0.95240  Biso   1.000  H
  H112     1.0000 0.85460  0.88140  0.45240  Biso   1.000  H
  H113     1.0000 0.36860  0.10460  0.29760  Biso   1.000  H
  H114     1.0000 0.63140  0.39540  0.29760  Biso   1.000  H
  H115     1.0000 0.36860  0.89540  0.70240  Biso   1.000  H
  H116     1.0000 0.63140  0.60460  0.70240  Biso   1.000  H
  H117     1.0000 0.14540  0.88140  0.45240  Biso   1.000  H
  H118     1.0000 0.35460  0.11860  0.95240  Biso   1.000  H
  H119     1.0000 0.35460  0.88140  0.04760  Biso   1.000  H
  H120     1.0000 0.14540  0.11860  0.54760  Biso   1.000  H
  H121     1.0000 0.86860  0.60460  0.79760  Biso   1.000  H
  H122     1.0000 0.13140  0.89540  0.79760  Biso   1.000  H
  H123     1.0000 0.86860  0.39540  0.20240  Biso   1.000  H
  H124     1.0000 0.13140  0.10460  0.20240  Biso   1.000  H
  H125     1.0000 0.64540  0.38140  0.95240  Biso   1.000  H
  H126     1.0000 0.85460  0.61860  0.45240  Biso   1.000  H
  H127     1.0000 0.85460  0.38140  0.54760  Biso   1.000  H
  H128     1.0000 0.64540  0.61860  0.04760  Biso   1.000  H
  C225     1.0000 0.71005  0.01163  0.64380  Biso   1.000  C
  C226     1.0000 0.28995  0.48837  0.64380  Biso   1.000  C
  C227     1.0000 0.71005  0.98837  0.35620  Biso   1.000  C
  C228     1.0000 0.28995  0.51163  0.35620  Biso   1.000  C
  C229     1.0000 0.23837  0.53995  0.10620  Biso   1.000  C
  C230     1.0000 0.26163  0.46005  0.60620  Biso   1.000  C
  C231     1.0000 0.26163  0.53995  0.39380  Biso   1.000  C
  C232     1.0000 0.23837  0.46005  0.89380  Biso   1.000  C
  C233     1.0000 0.21005  0.51163  0.14380  Biso   1.000  C
  C234     1.0000 0.78995  0.98837  0.14380  Biso   1.000  C
  C235     1.0000 0.21005  0.48837  0.85620  Biso   1.000  C
  C236     1.0000 0.78995  0.01163  0.85620  Biso   1.000  C
  C237     1.0000 0.73837  0.03995  0.60620  Biso   1.000  C
  C238     1.0000 0.76163  0.96005  0.10620  Biso   1.000  C
  C239     1.0000 0.76163  0.03995  0.89380  Biso   1.000  C
  C240     1.0000 0.73837  0.96005  0.39380  Biso   1.000  C
  C241     1.0000 0.28995  0.98837  0.35620  Biso   1.000  C
  C242     1.0000 0.71005  0.51163  0.35620  Biso   1.000  C
  C243     1.0000 0.28995  0.01163  0.64380  Biso   1.000  C
  C244     1.0000 0.71005  0.48837  0.64380  Biso   1.000  C
  C245     1.0000 0.26163  0.96005  0.39380  Biso   1.000  C
  C246     1.0000 0.23837  0.03995  0.89380  Biso   1.000  C
  C247     1.0000 0.23837  0.96005  0.10620  Biso   1.000  C
  C248     1.0000 0.26163  0.03995  0.60620  Biso   1.000  C
  C249     1.0000 0.78995  0.48837  0.85620  Biso   1.000  C
  C250     1.0000 0.21005  0.01163  0.85620  Biso   1.000  C
  C251     1.0000 0.78995  0.51163  0.14380  Biso   1.000  C
  C252     1.0000 0.21005  0.98837  0.14380  Biso   1.000  C
  C253     1.0000 0.76163  0.46005  0.89380  Biso   1.000  C
  C254     1.0000 0.73837  0.53995  0.39380  Biso   1.000  C
  C255     1.0000 0.73837  0.46005  0.60620  Biso   1.000  C
  C256     1.0000 0.76163  0.53995  0.10620  Biso   1.000  C
  C257     1.0000 0.74961  0.00039  0.62500  Biso   1.000  C
  C258     1.0000 0.25039  0.49961  0.62500  Biso   1.000  C
  C259     1.0000 0.74961  0.99961  0.37500  Biso   1.000  C
  C260     1.0000 0.25039  0.50039  0.37500  Biso   1.000  C
  C261     1.0000 0.24961  0.50039  0.12500  Biso   1.000  C
  C262     1.0000 0.24961  0.49961  0.87500  Biso   1.000  C
  C263     1.0000 0.75039  0.99961  0.12500  Biso   1.000  C
  C264     1.0000 0.75039  0.00039  0.87500  Biso   1.000  C
  C265     1.0000 0.25039  0.99961  0.37500  Biso   1.000  C
  C266     1.0000 0.74961  0.50039  0.37500  Biso   1.000  C
  C267     1.0000 0.25039  0.00039  0.62500  Biso   1.000  C
  C268     1.0000 0.74961  0.49961  0.62500  Biso   1.000  C
  C269     1.0000 0.24961  0.00039  0.87500  Biso   1.000  C
  C270     1.0000 0.24961  0.99961  0.12500  Biso   1.000  C
  C271     1.0000 0.75039  0.49961  0.87500  Biso   1.000  C
  C272     1.0000 0.75039  0.50039  0.12500  Biso   1.000  C
  H129     1.0000 0.78390  0.96610  0.62500  Biso   1.000  H
  H130     1.0000 0.21610  0.53390  0.62500  Biso   1.000  H
  H131     1.0000 0.78390  0.03390  0.37500  Biso   1.000  H
  H132     1.0000 0.21610  0.46610  0.37500  Biso   1.000  H
  H133     1.0000 0.28390  0.46610  0.12500  Biso   1.000  H
  H134     1.0000 0.28390  0.53390  0.87500  Biso   1.000  H
  H135     1.0000 0.71610  0.03390  0.12500  Biso   1.000  H
  H136     1.0000 0.71610  0.96610  0.87500  Biso   1.000  H
  H137     1.0000 0.21610  0.03390  0.37500  Biso   1.000  H
  H138     1.0000 0.78390  0.46610  0.37500  Biso   1.000  H
  H139     1.0000 0.21610  0.96610  0.62500  Biso   1.000  H
  H140     1.0000 0.78390  0.53390  0.62500  Biso   1.000  H
  H141     1.0000 0.28390  0.96610  0.87500  Biso   1.000  H
  H142     1.0000 0.28390  0.03390  0.12500  Biso   1.000  H
  H143     1.0000 0.71610  0.53390  0.87500  Biso   1.000  H
  H144     1.0000 0.71610  0.46610  0.12500  Biso   1.000  H
  C273     1.0000 0.66009  0.06371  0.64371  Biso   1.000  C
  C274     1.0000 0.33991  0.43629  0.64371  Biso   1.000  C
  C275     1.0000 0.66009  0.93629  0.35629  Biso   1.000  C
  C276     1.0000 0.33991  0.56371  0.35629  Biso   1.000  C
  C277     1.0000 0.18629  0.58991  0.10629  Biso   1.000  C
  C278     1.0000 0.31371  0.41009  0.60629  Biso   1.000  C
  C279     1.0000 0.31371  0.58991  0.39371  Biso   1.000  C
  C280     1.0000 0.18629  0.41009  0.89371  Biso   1.000  C
  C281     1.0000 0.16009  0.56371  0.14371  Biso   1.000  C
  C282     1.0000 0.83991  0.93629  0.14371  Biso   1.000  C
  C283     1.0000 0.16009  0.43629  0.85629  Biso   1.000  C
  C284     1.0000 0.83991  0.06371  0.85629  Biso   1.000  C
  C285     1.0000 0.68629  0.08991  0.60629  Biso   1.000  C
  C286     1.0000 0.81371  0.91009  0.10629  Biso   1.000  C
  C287     1.0000 0.81371  0.08991  0.89371  Biso   1.000  C
  C288     1.0000 0.68629  0.91009  0.39371  Biso   1.000  C
  C289     1.0000 0.33991  0.93629  0.35629  Biso   1.000  C
  C290     1.0000 0.66009  0.56371  0.35629  Biso   1.000  C
  C291     1.0000 0.33991  0.06371  0.64371  Biso   1.000  C
  C292     1.0000 0.66009  0.43629  0.64371  Biso   1.000  C
  C293     1.0000 0.31371  0.91009  0.39371  Biso   1.000  C
  C294     1.0000 0.18629  0.08991  0.89371  Biso   1.000  C
  C295     1.0000 0.18629  0.91009  0.10629  Biso   1.000  C
  C296     1.0000 0.31371  0.08991  0.60629  Biso   1.000  C
  C297     1.0000 0.83991  0.43629  0.85629  Biso   1.000  C
  C298     1.0000 0.16009  0.06371  0.85629  Biso   1.000  C
  C299     1.0000 0.83991  0.56371  0.14371  Biso   1.000  C
  C300     1.0000 0.16009  0.93629  0.14371  Biso   1.000  C
  C301     1.0000 0.81371  0.41009  0.89371  Biso   1.000  C
  C302     1.0000 0.68629  0.58991  0.39371  Biso   1.000  C
  C303     1.0000 0.68629  0.41009  0.60629  Biso   1.000  C
  C304     1.0000 0.81371  0.58991  0.10629  Biso   1.000  C
  H145     1.0000 0.63460  0.07290  0.65630  Biso   1.000  H
  H146     1.0000 0.36540  0.42710  0.65630  Biso   1.000  H
  H147     1.0000 0.63460  0.92710  0.34370  Biso   1.000  H
  H148     1.0000 0.36540  0.57290  0.34370  Biso   1.000  H
  H149     1.0000 0.17710  0.61540  0.09370  Biso   1.000  H
  H150     1.0000 0.32290  0.38460  0.59370  Biso   1.000  H
  H151     1.0000 0.32290  0.61540  0.40630  Biso   1.000  H
  H152     1.0000 0.17710  0.38460  0.90630  Biso   1.000  H
  H153     1.0000 0.13460  0.57290  0.15630  Biso   1.000  H
  H154     1.0000 0.86540  0.92710  0.15630  Biso   1.000  H
  H155     1.0000 0.13460  0.42710  0.84370  Biso   1.000  H
  H156     1.0000 0.86540  0.07290  0.84370  Biso   1.000  H
  H157     1.0000 0.67710  0.11540  0.59370  Biso   1.000  H
  H158     1.0000 0.82290  0.88460  0.09370  Biso   1.000  H
  H159     1.0000 0.82290  0.11540  0.90630  Biso   1.000  H
  H160     1.0000 0.67710  0.88460  0.40630  Biso   1.000  H
  H161     1.0000 0.36540  0.92710  0.34370  Biso   1.000  H
  H162     1.0000 0.63460  0.57290  0.34370  Biso   1.000  H
  H163     1.0000 0.36540  0.07290  0.65630  Biso   1.000  H
  H164     1.0000 0.63460  0.42710  0.65630  Biso   1.000  H
  H165     1.0000 0.32290  0.88460  0.40630  Biso   1.000  H
  H166     1.0000 0.17710  0.11540  0.90630  Biso   1.000  H
  H167     1.0000 0.17710  0.88460  0.09370  Biso   1.000  H
  H168     1.0000 0.32290  0.11540  0.59370  Biso   1.000  H
  H169     1.0000 0.86540  0.42710  0.84370  Biso   1.000  H
  H170     1.0000 0.13460  0.07290  0.84370  Biso   1.000  H
  H171     1.0000 0.86540  0.57290  0.15630  Biso   1.000  H
  H172     1.0000 0.13460  0.92710  0.15630  Biso   1.000  H
  H173     1.0000 0.82290  0.38460  0.90630  Biso   1.000  H
  H174     1.0000 0.67710  0.61540  0.40630  Biso   1.000  H
  H175     1.0000 0.67710  0.38460  0.59370  Biso   1.000  H
  H176     1.0000 0.82290  0.61540  0.09370  Biso   1.000  H
  C305     1.0000 0.64771  0.10229  0.62500  Biso   1.000  C
  C306     1.0000 0.35229  0.39771  0.62500  Biso   1.000  C
  C307     1.0000 0.64771  0.89771  0.37500  Biso   1.000  C
  C308     1.0000 0.35229  0.60229  0.37500  Biso   1.000  C
  C309     1.0000 0.14771  0.60229  0.12500  Biso   1.000  C
  C310     1.0000 0.14771  0.39771  0.87500  Biso   1.000  C
  C311     1.0000 0.85229  0.89771  0.12500  Biso   1.000  C
  C312     1.0000 0.85229  0.10229  0.87500  Biso   1.000  C
  C313     1.0000 0.35229  0.89771  0.37500  Biso   1.000  C
  C314     1.0000 0.64771  0.60229  0.37500  Biso   1.000  C
  C315     1.0000 0.35229  0.10229  0.62500  Biso   1.000  C
  C316     1.0000 0.64771  0.39771  0.62500  Biso   1.000  C
  C317     1.0000 0.14771  0.10229  0.87500  Biso   1.000  C
  C318     1.0000 0.14771  0.89771  0.12500  Biso   1.000  C
  C319     1.0000 0.85229  0.39771  0.87500  Biso   1.000  C
  C320     1.0000 0.85229  0.60229  0.12500  Biso   1.000  C
  C321     1.0000 0.59247  0.15753  0.62500  Biso   1.000  C
  C322     1.0000 0.40753  0.34247  0.62500  Biso   1.000  C
  C323     1.0000 0.59247  0.84247  0.37500  Biso   1.000  C
  C324     1.0000 0.40753  0.65753  0.37500  Biso   1.000  C
  C325     1.0000 0.09247  0.65753  0.12500  Biso   1.000  C
  C326     1.0000 0.09247  0.34247  0.87500  Biso   1.000  C
  C327     1.0000 0.90753  0.84247  0.12500  Biso   1.000  C
  C328     1.0000 0.90753  0.15753  0.87500  Biso   1.000  C
  C329     1.0000 0.40753  0.84247  0.37500  Biso   1.000  C
  C330     1.0000 0.59247  0.65753  0.37500  Biso   1.000  C
  C331     1.0000 0.40753  0.15753  0.62500  Biso   1.000  C
  C332     1.0000 0.59247  0.34247  0.62500  Biso   1.000  C
  C333     1.0000 0.09247  0.15753  0.87500  Biso   1.000  C
  C334     1.0000 0.09247  0.84247  0.12500  Biso   1.000  C
  C335     1.0000 0.90753  0.34247  0.87500  Biso   1.000  C
  C336     1.0000 0.90753  0.65753  0.12500  Biso   1.000  C
  N1       1.0000 0.56720  0.75000  0.75306  Biso   1.000  N
  N2       1.0000 0.43280  0.75000  0.75306  Biso   1.000  N
  N3       1.0000 0.56720  0.25000  0.24694  Biso   1.000  N
  N4       1.0000 0.43280  0.25000  0.24694  Biso   1.000  N
  N5       1.0000 0.50000  0.68280  0.99694  Biso   1.000  N
  N6       1.0000 0.00000  0.31720  0.49694  Biso   1.000  N
  N7       1.0000 0.00000  0.68280  0.50306  Biso   1.000  N
  N8       1.0000 0.50000  0.31720  0.00306  Biso   1.000  N
  N9       1.0000 0.06720  0.25000  0.25306  Biso   1.000  N
  N10      1.0000 0.93280  0.25000  0.25306  Biso   1.000  N
  N11      1.0000 0.06720  0.75000  0.74694  Biso   1.000  N
  N12      1.0000 0.93280  0.75000  0.74694  Biso   1.000  N
  N13      1.0000 0.00000  0.18280  0.49694  Biso   1.000  N
  N14      1.0000 0.50000  0.81720  0.99694  Biso   1.000  N
  N15      1.0000 0.50000  0.18280  0.00306  Biso   1.000  N
  N16      1.0000 0.00000  0.81720  0.50306  Biso   1.000  N
  O1       1.0000 0.68865  0.82138  0.72952  Biso   1.000  O
  O2       1.0000 0.31135  0.67862  0.72952  Biso   1.000  O
  O3       1.0000 0.68865  0.17862  0.27048  Biso   1.000  O
  O4       1.0000 0.31135  0.32138  0.27048  Biso   1.000  O
  O5       1.0000 0.42862  0.56135  0.02048  Biso   1.000  O
  O6       1.0000 0.07138  0.43865  0.52048  Biso   1.000  O
  O7       1.0000 0.07138  0.56135  0.47952  Biso   1.000  O
  O8       1.0000 0.42862  0.43865  0.97952  Biso   1.000  O
  O9       1.0000 0.18865  0.32138  0.22952  Biso   1.000  O
  O10      1.0000 0.81135  0.17862  0.22952  Biso   1.000  O
  O11      1.0000 0.18865  0.67862  0.77048  Biso   1.000  O
  O12      1.0000 0.81135  0.82138  0.77048  Biso   1.000  O
  O13      1.0000 0.92862  0.06135  0.52048  Biso   1.000  O
  O14      1.0000 0.57138  0.93865  0.02048  Biso   1.000  O
  O15      1.0000 0.57138  0.06135  0.97952  Biso   1.000  O
  O16      1.0000 0.92862  0.93865  0.47952  Biso   1.000  O
  O17      1.0000 0.31135  0.17862  0.27048  Biso   1.000  O
  O18      1.0000 0.68865  0.32138  0.27048  Biso   1.000  O
  O19      1.0000 0.31135  0.82138  0.72952  Biso   1.000  O
  O20      1.0000 0.68865  0.67862  0.72952  Biso   1.000  O
  O21      1.0000 0.07138  0.93865  0.47952  Biso   1.000  O
  O22      1.0000 0.42862  0.06135  0.97952  Biso   1.000  O
  O23      1.0000 0.42862  0.93865  0.02048  Biso   1.000  O
  O24      1.0000 0.07138  0.06135  0.52048  Biso   1.000  O
  O25      1.0000 0.81135  0.67862  0.77048  Biso   1.000  O
  O26      1.0000 0.18865  0.82138  0.77048  Biso   1.000  O
  O27      1.0000 0.81135  0.32138  0.22952  Biso   1.000  O
  O28      1.0000 0.18865  0.17862  0.22952  Biso   1.000  O
  O29      1.0000 0.57138  0.43865  0.97952  Biso   1.000  O
  O30      1.0000 0.92862  0.56135  0.47952  Biso   1.000  O
  O31      1.0000 0.92862  0.43865  0.52048  Biso   1.000  O
  O32      1.0000 0.57138  0.56135  0.02048  Biso   1.000  O
  O33      1.0000 0.80415  0.82075  0.72521  Biso   1.000  O
  O34      1.0000 0.19585  0.67925  0.72521  Biso   1.000  O
  O35      1.0000 0.80415  0.17925  0.27479  Biso   1.000  O
  O36      1.0000 0.19585  0.32075  0.27479  Biso   1.000  O
  O37      1.0000 0.42925  0.44585  0.02479  Biso   1.000  O
  O38      1.0000 0.07075  0.55415  0.52479  Biso   1.000  O
  O39      1.0000 0.07075  0.44585  0.47521  Biso   1.000  O
  O40      1.0000 0.42925  0.55415  0.97521  Biso   1.000  O
  O41      1.0000 0.30415  0.32075  0.22521  Biso   1.000  O
  O42      1.0000 0.69585  0.17925  0.22521  Biso   1.000  O
  O43      1.0000 0.30415  0.67925  0.77479  Biso   1.000  O
  O44      1.0000 0.69585  0.82075  0.77479  Biso   1.000  O
  O45      1.0000 0.92925  0.94585  0.52479  Biso   1.000  O
  O46      1.0000 0.57075  0.05415  0.02479  Biso   1.000  O
  O47      1.0000 0.57075  0.94585  0.97521  Biso   1.000  O
  O48      1.0000 0.92925  0.05415  0.47521  Biso   1.000  O
  O49      1.0000 0.19585  0.17925  0.27479  Biso   1.000  O
  O50      1.0000 0.80415  0.32075  0.27479  Biso   1.000  O
  O51      1.0000 0.19585  0.82075  0.72521  Biso   1.000  O
  O52      1.0000 0.80415  0.67925  0.72521  Biso   1.000  O
  O53      1.0000 0.07075  0.05415  0.47521  Biso   1.000  O
  O54      1.0000 0.42925  0.94585  0.97521  Biso   1.000  O
  O55      1.0000 0.42925  0.05415  0.02479  Biso   1.000  O
  O56      1.0000 0.07075  0.94585  0.52479  Biso   1.000  O
  O57      1.0000 0.69585  0.67925  0.77479  Biso   1.000  O
  O58      1.0000 0.30415  0.82075  0.77479  Biso   1.000  O
  O59      1.0000 0.69585  0.32075  0.22521  Biso   1.000  O
  O60      1.0000 0.30415  0.17925  0.22521  Biso   1.000  O
  O61      1.0000 0.57075  0.55415  0.97521  Biso   1.000  O
  O62      1.0000 0.92925  0.44585  0.47521  Biso   1.000  O
  O63      1.0000 0.92925  0.55415  0.52479  Biso   1.000  O
  O64      1.0000 0.57075  0.44585  0.02479  Biso   1.000  O
  O65      1.0000 0.57117  0.17822  0.64327  Biso   1.000  O
  O66      1.0000 0.42883  0.32178  0.64327  Biso   1.000  O
  O67      1.0000 0.57117  0.82178  0.35673  Biso   1.000  O
  O68      1.0000 0.42883  0.67822  0.35673  Biso   1.000  O
  O69      1.0000 0.07178  0.67883  0.10673  Biso   1.000  O
  O70      1.0000 0.42822  0.32117  0.60673  Biso   1.000  O
  O71      1.0000 0.42822  0.67883  0.39327  Biso   1.000  O
  O72      1.0000 0.07178  0.32117  0.89327  Biso   1.000  O
  O73      1.0000 0.07117  0.67822  0.14327  Biso   1.000  O
  O74      1.0000 0.92883  0.82178  0.14327  Biso   1.000  O
  O75      1.0000 0.07117  0.32178  0.85673  Biso   1.000  O
  O76      1.0000 0.92883  0.17822  0.85673  Biso   1.000  O
  O77      1.0000 0.57178  0.17883  0.60673  Biso   1.000  O
  O78      1.0000 0.92822  0.82117  0.10673  Biso   1.000  O
  O79      1.0000 0.92822  0.17883  0.89327  Biso   1.000  O
  O80      1.0000 0.57178  0.82117  0.39327  Biso   1.000  O
  O81      1.0000 0.42883  0.82178  0.35673  Biso   1.000  O
  O82      1.0000 0.57117  0.67822  0.35673  Biso   1.000  O
  O83      1.0000 0.42883  0.17822  0.64327  Biso   1.000  O
  O84      1.0000 0.57117  0.32178  0.64327  Biso   1.000  O
  O85      1.0000 0.42822  0.82117  0.39327  Biso   1.000  O
  O86      1.0000 0.07178  0.17883  0.89327  Biso   1.000  O
  O87      1.0000 0.07178  0.82117  0.10673  Biso   1.000  O
  O88      1.0000 0.42822  0.17883  0.60673  Biso   1.000  O
  O89      1.0000 0.92883  0.32178  0.85673  Biso   1.000  O
  O90      1.0000 0.07117  0.17822  0.85673  Biso   1.000  O
  O91      1.0000 0.92883  0.67822  0.14327  Biso   1.000  O
  O92      1.0000 0.07117  0.82178  0.14327  Biso   1.000  O
  O93      1.0000 0.92822  0.32117  0.89327  Biso   1.000  O
  O94      1.0000 0.57178  0.67883  0.39327  Biso   1.000  O
  O95      1.0000 0.57178  0.32117  0.60673  Biso   1.000  O
  O96      1.0000 0.92822  0.67883  0.10673  Biso   1.000  O
  O97      1.0000 0.50000  0.25000  0.68155  Biso   1.000  O
  O98      1.0000 0.50000  0.75000  0.31845  Biso   1.000  O
  O99      1.0000 0.00000  0.75000  0.06845  Biso   1.000  O
  O100     1.0000 0.50000  0.25000  0.56845  Biso   1.000  O
  O101     1.0000 0.50000  0.75000  0.43155  Biso   1.000  O
  O102     1.0000 0.00000  0.25000  0.93155  Biso   1.000  O
  O103     1.0000 0.00000  0.75000  0.18155  Biso   1.000  O
  O104     1.0000 0.00000  0.25000  0.81845  Biso   1.000  O
  C337     1.0000 0.54041  0.80890  0.76361  Biso   1.000  C
  C338     1.0000 0.45959  0.69110  0.76361  Biso   1.000  C
  C339     1.0000 0.54041  0.19110  0.23639  Biso   1.000  C
  C340     1.0000 0.45959  0.30890  0.23639  Biso   1.000  C
  C341     1.0000 0.44110  0.70959  0.98639  Biso   1.000  C
  C342     1.0000 0.05890  0.29041  0.48639  Biso   1.000  C
  C343     1.0000 0.05890  0.70959  0.51361  Biso   1.000  C
  C344     1.0000 0.44110  0.29041  0.01361  Biso   1.000  C
  C345     1.0000 0.04041  0.30890  0.26361  Biso   1.000  C
  C346     1.0000 0.95959  0.19110  0.26361  Biso   1.000  C
  C347     1.0000 0.04041  0.69110  0.73639  Biso   1.000  C
  C348     1.0000 0.95959  0.80890  0.73639  Biso   1.000  C
  C349     1.0000 0.94110  0.20959  0.48639  Biso   1.000  C
  C350     1.0000 0.55890  0.79041  0.98639  Biso   1.000  C
  C351     1.0000 0.55890  0.20959  0.01361  Biso   1.000  C
  C352     1.0000 0.94110  0.79041  0.51361  Biso   1.000  C
  C353     1.0000 0.45959  0.19110  0.23639  Biso   1.000  C
  C354     1.0000 0.54041  0.30890  0.23639  Biso   1.000  C
  C355     1.0000 0.45959  0.80890  0.76361  Biso   1.000  C
  C356     1.0000 0.54041  0.69110  0.76361  Biso   1.000  C
  C357     1.0000 0.05890  0.79041  0.51361  Biso   1.000  C
  C358     1.0000 0.44110  0.20959  0.01361  Biso   1.000  C
  C359     1.0000 0.44110  0.79041  0.98639  Biso   1.000  C
  C360     1.0000 0.05890  0.20959  0.48639  Biso   1.000  C
  C361     1.0000 0.95959  0.69110  0.73639  Biso   1.000  C
  C362     1.0000 0.04041  0.80890  0.73639  Biso   1.000  C
  C363     1.0000 0.95959  0.30890  0.26361  Biso   1.000  C
  C364     1.0000 0.04041  0.19110  0.26361  Biso   1.000  C
  C365     1.0000 0.55890  0.29041  0.01361  Biso   1.000  C
  C366     1.0000 0.94110  0.70959  0.51361  Biso   1.000  C
  C367     1.0000 0.94110  0.29041  0.48639  Biso   1.000  C
  C368     1.0000 0.55890  0.70959  0.98639  Biso   1.000  C
  H177     1.0000 0.55720  0.80990  0.77850  Biso   1.000  H
  H178     1.0000 0.44280  0.69010  0.77850  Biso   1.000  H
  H179     1.0000 0.55720  0.19010  0.22150  Biso   1.000  H
  H180     1.0000 0.44280  0.30990  0.22150  Biso   1.000  H
  H181     1.0000 0.44010  0.69280  0.97150  Biso   1.000  H
  H182     1.0000 0.05990  0.30720  0.47150  Biso   1.000  H
  H183     1.0000 0.05990  0.69280  0.52850  Biso   1.000  H
  H184     1.0000 0.44010  0.30720  0.02850  Biso   1.000  H
  H185     1.0000 0.05720  0.30990  0.27850  Biso   1.000  H
  H186     1.0000 0.94280  0.19010  0.27850  Biso   1.000  H
  H187     1.0000 0.05720  0.69010  0.72150  Biso   1.000  H
  H188     1.0000 0.94280  0.80990  0.72150  Biso   1.000  H
  H189     1.0000 0.94010  0.19280  0.47150  Biso   1.000  H
  H190     1.0000 0.55990  0.80720  0.97150  Biso   1.000  H
  H191     1.0000 0.55990  0.19280  0.02850  Biso   1.000  H
  H192     1.0000 0.94010  0.80720  0.52850  Biso   1.000  H
  H193     1.0000 0.44280  0.19010  0.22150  Biso   1.000  H
  H194     1.0000 0.55720  0.30990  0.22150  Biso   1.000  H
  H195     1.0000 0.44280  0.80990  0.77850  Biso   1.000  H
  H196     1.0000 0.55720  0.69010  0.77850  Biso   1.000  H
  H197     1.0000 0.05990  0.80720  0.52850  Biso   1.000  H
  H198     1.0000 0.44010  0.19280  0.02850  Biso   1.000  H
  H199     1.0000 0.44010  0.80720  0.97150  Biso   1.000  H
  H200     1.0000 0.05990  0.19280  0.47150  Biso   1.000  H
  H201     1.0000 0.94280  0.69010  0.72150  Biso   1.000  H
  H202     1.0000 0.05720  0.80990  0.72150  Biso   1.000  H
  H203     1.0000 0.94280  0.30990  0.27850  Biso   1.000  H
  H204     1.0000 0.05720  0.19010  0.27850  Biso   1.000  H
  H205     1.0000 0.55990  0.30720  0.02850  Biso   1.000  H
  H206     1.0000 0.94010  0.69280  0.52850  Biso   1.000  H
  H207     1.0000 0.94010  0.30720  0.47150  Biso   1.000  H
  H208     1.0000 0.55990  0.69280  0.97150  Biso   1.000  H
  H209     1.0000 0.55720  0.85060  0.75630  Biso   1.000  H
  H210     1.0000 0.44280  0.64940  0.75630  Biso   1.000  H
  H211     1.0000 0.55720  0.14940  0.24370  Biso   1.000  H
  H212     1.0000 0.44280  0.35060  0.24370  Biso   1.000  H
  H213     1.0000 0.39940  0.69280  0.99370  Biso   1.000  H
  H214     1.0000 0.10060  0.30720  0.49370  Biso   1.000  H
  H215     1.0000 0.10060  0.69280  0.50630  Biso   1.000  H
  H216     1.0000 0.39940  0.30720  0.00630  Biso   1.000  H
  H217     1.0000 0.05720  0.35060  0.25630  Biso   1.000  H
  H218     1.0000 0.94280  0.14940  0.25630  Biso   1.000  H
  H219     1.0000 0.05720  0.64940  0.74370  Biso   1.000  H
  H220     1.0000 0.94280  0.85060  0.74370  Biso   1.000  H
  H221     1.0000 0.89940  0.19280  0.49370  Biso   1.000  H
  H222     1.0000 0.60060  0.80720  0.99370  Biso   1.000  H
  H223     1.0000 0.60060  0.19280  0.00630  Biso   1.000  H
  H224     1.0000 0.89940  0.80720  0.50630  Biso   1.000  H
  H225     1.0000 0.44280  0.14940  0.24370  Biso   1.000  H
  H226     1.0000 0.55720  0.35060  0.24370  Biso   1.000  H
  H227     1.0000 0.44280  0.85060  0.75630  Biso   1.000  H
  H228     1.0000 0.55720  0.64940  0.75630  Biso   1.000  H
  H229     1.0000 0.10060  0.80720  0.50630  Biso   1.000  H
  H230     1.0000 0.39940  0.19280  0.00630  Biso   1.000  H
  H231     1.0000 0.39940  0.80720  0.99370  Biso   1.000  H
  H232     1.0000 0.10060  0.19280  0.49370  Biso   1.000  H
  H233     1.0000 0.94280  0.64940  0.74370  Biso   1.000  H
  H234     1.0000 0.05720  0.85060  0.74370  Biso   1.000  H
  H235     1.0000 0.94280  0.35060  0.25630  Biso   1.000  H
  H236     1.0000 0.05720  0.14940  0.25630  Biso   1.000  H
  H237     1.0000 0.60060  0.30720  0.00630  Biso   1.000  H
  H238     1.0000 0.89940  0.69280  0.50630  Biso   1.000  H
  H239     1.0000 0.89940  0.30720  0.49370  Biso   1.000  H
  H240     1.0000 0.60060  0.69280  0.99370  Biso   1.000  H
  C369     1.0000 0.54100  0.75000  0.73164  Biso   1.000  C
  C370     1.0000 0.45900  0.75000  0.73164  Biso   1.000  C
  C371     1.0000 0.54100  0.25000  0.26836  Biso   1.000  C
  C372     1.0000 0.45900  0.25000  0.26836  Biso   1.000  C
  C373     1.0000 0.50000  0.70900  0.01836  Biso   1.000  C
  C374     1.0000 0.00000  0.29100  0.51836  Biso   1.000  C
  C375     1.0000 0.00000  0.70900  0.48164  Biso   1.000  C
  C376     1.0000 0.50000  0.29100  0.98164  Biso   1.000  C
  C377     1.0000 0.04100  0.25000  0.23164  Biso   1.000  C
  C378     1.0000 0.95900  0.25000  0.23164  Biso   1.000  C
  C379     1.0000 0.04100  0.75000  0.76836  Biso   1.000  C
  C380     1.0000 0.95900  0.75000  0.76836  Biso   1.000  C
  C381     1.0000 0.00000  0.20900  0.51836  Biso   1.000  C
  C382     1.0000 0.50000  0.79100  0.01836  Biso   1.000  C
  C383     1.0000 0.50000  0.20900  0.98164  Biso   1.000  C
  C384     1.0000 0.00000  0.79100  0.48164  Biso   1.000  C
  H241     1.0000 0.55780  0.70940  0.72400  Biso   1.000  H
  H242     1.0000 0.44220  0.79060  0.72400  Biso   1.000  H
  H243     1.0000 0.55780  0.29060  0.27600  Biso   1.000  H
  H244     1.0000 0.44220  0.20940  0.27600  Biso   1.000  H
  H245     1.0000 0.54060  0.69220  0.02600  Biso   1.000  H
  H246     1.0000 0.95940  0.30780  0.52600  Biso   1.000  H
  H247     1.0000 0.95940  0.69220  0.47400  Biso   1.000  H
  H248     1.0000 0.54060  0.30780  0.97400  Biso   1.000  H
  H249     1.0000 0.05780  0.20940  0.22400  Biso   1.000  H
  H250     1.0000 0.94220  0.29060  0.22400  Biso   1.000  H
  H251     1.0000 0.05780  0.79060  0.77600  Biso   1.000  H
  H252     1.0000 0.94220  0.70940  0.77600  Biso   1.000  H
  H253     1.0000 0.04060  0.19220  0.52600  Biso   1.000  H
  H254     1.0000 0.45940  0.80780  0.02600  Biso   1.000  H
  H255     1.0000 0.45940  0.19220  0.97400  Biso   1.000  H
  H256     1.0000 0.04060  0.80780  0.47400  Biso   1.000  H
  H257     1.0000 0.44220  0.29060  0.27600  Biso   1.000  H
  H258     1.0000 0.55780  0.20940  0.27600  Biso   1.000  H
  H259     1.0000 0.44220  0.70940  0.72400  Biso   1.000  H
  H260     1.0000 0.55780  0.79060  0.72400  Biso   1.000  H
  H261     1.0000 0.95940  0.80780  0.47400  Biso   1.000  H
  H262     1.0000 0.54060  0.19220  0.97400  Biso   1.000  H
  H263     1.0000 0.54060  0.80780  0.02600  Biso   1.000  H
  H264     1.0000 0.95940  0.19220  0.52600  Biso   1.000  H
  H265     1.0000 0.94220  0.79060  0.77600  Biso   1.000  H
  H266     1.0000 0.05780  0.70940  0.77600  Biso   1.000  H
  H267     1.0000 0.94220  0.20940  0.22400  Biso   1.000  H
  H268     1.0000 0.05780  0.29060  0.22400  Biso   1.000  H
  H269     1.0000 0.45940  0.30780  0.97400  Biso   1.000  H
  H270     1.0000 0.04060  0.69220  0.47400  Biso   1.000  H
  H271     1.0000 0.04060  0.30780  0.52600  Biso   1.000  H
  H272     1.0000 0.45940  0.69220  0.02600  Biso   1.000  H
