data_image0
_cell_length_a       25.368
_cell_length_b       16.9
_cell_length_c       14.759
_cell_angle_alpha    90
_cell_angle_beta     96.855
_cell_angle_gamma    90

_symmetry_space_group_name_H-M    "P 1"
_symmetry_int_tables_number       1

loop_
  _symmetry_equiv_pos_as_xyz
  'x, y, z'

loop_
  _atom_site_label
  _atom_site_occupancy
  _atom_site_fract_x
  _atom_site_fract_y
  _atom_site_fract_z
  _atom_site_thermal_displace_type
  _atom_site_B_iso_or_equiv
  _atom_site_type_symbol
  Cu1      1.0000 0.22876  0.07254  0.56319  Biso   1.000  Cu
  Cu2      1.0000 0.77124  0.07254  0.93681  Biso   1.000  Cu
  Cu3      1.0000 0.72876  0.57254  0.56319  Biso   1.000  Cu
  Cu4      1.0000 0.27124  0.57254  0.93681  Biso   1.000  Cu
  Cu5      1.0000 0.77124  0.92746  0.43681  Biso   1.000  Cu
  Cu6      1.0000 0.22876  0.92746  0.06319  Biso   1.000  Cu
  Cu7      1.0000 0.27124  0.42746  0.43681  Biso   1.000  Cu
  Cu8      1.0000 0.72876  0.42746  0.06319  Biso   1.000  Cu
  Cu9      1.0000 0.25000  0.25000  0.50000  Biso   1.000  Cu
  Cu10     1.0000 0.75000  0.25000  0.00000  Biso   1.000  Cu
  Cu11     1.0000 0.75000  0.75000  0.50000  Biso   1.000  Cu
  Cu12     1.0000 0.25000  0.75000  0.00000  Biso   1.000  Cu
  Cu13     1.0000 0.13869  0.20231  0.56851  Biso   1.000  Cu
  Cu14     1.0000 0.86131  0.20231  0.93149  Biso   1.000  Cu
  Cu15     1.0000 0.63869  0.70231  0.56851  Biso   1.000  Cu
  Cu16     1.0000 0.36131  0.70231  0.93149  Biso   1.000  Cu
  Cu17     1.0000 0.86131  0.79769  0.43149  Biso   1.000  Cu
  Cu18     1.0000 0.13869  0.79769  0.06851  Biso   1.000  Cu
  Cu19     1.0000 0.36131  0.29769  0.43149  Biso   1.000  Cu
  Cu20     1.0000 0.63869  0.29769  0.06851  Biso   1.000  Cu
  O1       1.0000 0.21530  0.18570  0.58510  Biso   1.000  O
  O2       1.0000 0.78470  0.18570  0.91490  Biso   1.000  O
  O3       1.0000 0.71530  0.68570  0.58510  Biso   1.000  O
  O4       1.0000 0.28470  0.68570  0.91490  Biso   1.000  O
  O5       1.0000 0.78470  0.81430  0.41490  Biso   1.000  O
  O6       1.0000 0.21530  0.81430  0.08510  Biso   1.000  O
  O7       1.0000 0.28470  0.31430  0.41490  Biso   1.000  O
  O8       1.0000 0.71530  0.31430  0.08510  Biso   1.000  O
  O9       1.0000 0.20450  0.20490  0.39480  Biso   1.000  O
  O10      1.0000 0.79550  0.20490  0.10520  Biso   1.000  O
  O11      1.0000 0.70450  0.70490  0.39480  Biso   1.000  O
  O12      1.0000 0.29550  0.70490  0.10520  Biso   1.000  O
  O13      1.0000 0.79550  0.79510  0.60520  Biso   1.000  O
  O14      1.0000 0.20450  0.79510  0.89480  Biso   1.000  O
  O15      1.0000 0.29550  0.29510  0.60520  Biso   1.000  O
  O16      1.0000 0.70450  0.29510  0.89480  Biso   1.000  O
  O17      1.0000 0.19740  0.07860  0.43560  Biso   1.000  O
  O18      1.0000 0.80260  0.07860  0.06440  Biso   1.000  O
  O19      1.0000 0.69740  0.57860  0.43560  Biso   1.000  O
  O20      1.0000 0.30260  0.57860  0.06440  Biso   1.000  O
  O21      1.0000 0.80260  0.92140  0.56440  Biso   1.000  O
  O22      1.0000 0.19740  0.92140  0.93560  Biso   1.000  O
  O23      1.0000 0.30260  0.42140  0.56440  Biso   1.000  O
  O24      1.0000 0.69740  0.42140  0.93560  Biso   1.000  O
  O25      1.0000 0.23690  0.55390  0.81560  Biso   1.000  O
  O26      1.0000 0.76310  0.55390  0.68440  Biso   1.000  O
  O27      1.0000 0.73690  0.05390  0.81560  Biso   1.000  O
  O28      1.0000 0.26310  0.05390  0.68440  Biso   1.000  O
  O29      1.0000 0.76310  0.44610  0.18440  Biso   1.000  O
  O30      1.0000 0.23690  0.44610  0.31560  Biso   1.000  O
  O31      1.0000 0.26310  0.94610  0.18440  Biso   1.000  O
  O32      1.0000 0.73690  0.94610  0.31560  Biso   1.000  O
  O33      1.0000 0.23250  0.67220  0.74760  Biso   1.000  O
  O34      1.0000 0.76750  0.67220  0.75240  Biso   1.000  O
  O35      1.0000 0.73250  0.17220  0.74760  Biso   1.000  O
  O36      1.0000 0.26750  0.17220  0.75240  Biso   1.000  O
  O37      1.0000 0.76750  0.32780  0.25240  Biso   1.000  O
  O38      1.0000 0.23250  0.32780  0.24760  Biso   1.000  O
  O39      1.0000 0.26750  0.82780  0.25240  Biso   1.000  O
  O40      1.0000 0.73250  0.82780  0.24760  Biso   1.000  O
  O41      1.0000 0.07680  0.05750  0.04030  Biso   1.000  O
  O42      1.0000 0.92320  0.05750  0.45970  Biso   1.000  O
  O43      1.0000 0.57680  0.55750  0.04030  Biso   1.000  O
  O44      1.0000 0.42320  0.55750  0.45970  Biso   1.000  O
  O45      1.0000 0.92320  0.94250  0.95970  Biso   1.000  O
  O46      1.0000 0.07680  0.94250  0.54030  Biso   1.000  O
  O47      1.0000 0.42320  0.44250  0.95970  Biso   1.000  O
  O48      1.0000 0.57680  0.44250  0.54030  Biso   1.000  O
  O49      1.0000 0.13280  0.90930  0.08920  Biso   1.000  O
  O50      1.0000 0.86720  0.90930  0.41080  Biso   1.000  O
  O51      1.0000 0.63280  0.40930  0.08920  Biso   1.000  O
  O52      1.0000 0.36720  0.40930  0.41080  Biso   1.000  O
  O53      1.0000 0.86720  0.09070  0.91080  Biso   1.000  O
  O54      1.0000 0.13280  0.09070  0.58920  Biso   1.000  O
  O55      1.0000 0.36720  0.59070  0.91080  Biso   1.000  O
  O56      1.0000 0.63280  0.59070  0.58920  Biso   1.000  O
  O57      1.0000 0.09340  0.88830  0.20480  Biso   1.000  O
  O58      1.0000 0.90660  0.88830  0.29520  Biso   1.000  O
  O59      1.0000 0.59340  0.38830  0.20480  Biso   1.000  O
  O60      1.0000 0.40660  0.38830  0.29520  Biso   1.000  O
  O61      1.0000 0.90660  0.11170  0.79520  Biso   1.000  O
  O62      1.0000 0.09340  0.11170  0.70480  Biso   1.000  O
  O63      1.0000 0.40660  0.61170  0.79520  Biso   1.000  O
  O64      1.0000 0.59340  0.61170  0.70480  Biso   1.000  O
  N1       1.0000 0.23050  0.95070  0.54810  Biso   1.000  N
  N2       1.0000 0.76950  0.95070  0.95190  Biso   1.000  N
  N3       1.0000 0.73050  0.45070  0.54810  Biso   1.000  N
  N4       1.0000 0.26950  0.45070  0.95190  Biso   1.000  N
  N5       1.0000 0.76950  0.04930  0.45190  Biso   1.000  N
  N6       1.0000 0.23050  0.04930  0.04810  Biso   1.000  N
  N7       1.0000 0.26950  0.54930  0.45190  Biso   1.000  N
  N8       1.0000 0.73050  0.54930  0.04810  Biso   1.000  N
  C1       1.0000 0.25210  0.90050  0.61730  Biso   1.000  C
  C2       1.0000 0.74790  0.90050  0.88270  Biso   1.000  C
  C3       1.0000 0.75210  0.40050  0.61730  Biso   1.000  C
  C4       1.0000 0.24790  0.40050  0.88270  Biso   1.000  C
  C5       1.0000 0.74790  0.09950  0.38270  Biso   1.000  C
  C6       1.0000 0.25210  0.09950  0.11730  Biso   1.000  C
  C7       1.0000 0.24790  0.59950  0.38270  Biso   1.000  C
  C8       1.0000 0.75210  0.59950  0.11730  Biso   1.000  C
  H1       1.0000 0.26390  0.92080  0.67480  Biso   1.000  H
  H2       1.0000 0.73610  0.92080  0.82520  Biso   1.000  H
  H3       1.0000 0.76390  0.42080  0.67480  Biso   1.000  H
  H4       1.0000 0.23610  0.42080  0.82520  Biso   1.000  H
  H5       1.0000 0.73610  0.07920  0.32520  Biso   1.000  H
  H6       1.0000 0.26390  0.07920  0.17480  Biso   1.000  H
  H7       1.0000 0.23610  0.57920  0.32520  Biso   1.000  H
  H8       1.0000 0.76390  0.57920  0.17480  Biso   1.000  H
  C9       1.0000 0.25620  0.81990  0.60070  Biso   1.000  C
  C10      1.0000 0.74380  0.81990  0.89930  Biso   1.000  C
  C11      1.0000 0.75620  0.31990  0.60070  Biso   1.000  C
  C12      1.0000 0.24380  0.31990  0.89930  Biso   1.000  C
  C13      1.0000 0.74380  0.18010  0.39930  Biso   1.000  C
  C14      1.0000 0.25620  0.18010  0.10070  Biso   1.000  C
  C15      1.0000 0.24380  0.68010  0.39930  Biso   1.000  C
  C16      1.0000 0.75620  0.68010  0.10070  Biso   1.000  C
  H9       1.0000 0.27070  0.78630  0.64710  Biso   1.000  H
  H10      1.0000 0.72930  0.78630  0.85290  Biso   1.000  H
  H11      1.0000 0.77070  0.28630  0.64710  Biso   1.000  H
  H12      1.0000 0.22930  0.28630  0.85290  Biso   1.000  H
  H13      1.0000 0.72930  0.21370  0.35290  Biso   1.000  H
  H14      1.0000 0.27070  0.21370  0.14710  Biso   1.000  H
  H15      1.0000 0.22930  0.71370  0.35290  Biso   1.000  H
  H16      1.0000 0.77070  0.71370  0.14710  Biso   1.000  H
  C17      1.0000 0.23860  0.78950  0.51490  Biso   1.000  C
  C18      1.0000 0.76140  0.78950  0.98510  Biso   1.000  C
  C19      1.0000 0.73860  0.28950  0.51490  Biso   1.000  C
  C20      1.0000 0.26140  0.28950  0.98510  Biso   1.000  C
  C21      1.0000 0.76140  0.21050  0.48510  Biso   1.000  C
  C22      1.0000 0.23860  0.21050  0.01490  Biso   1.000  C
  C23      1.0000 0.26140  0.71050  0.48510  Biso   1.000  C
  C24      1.0000 0.73860  0.71050  0.01490  Biso   1.000  C
  C25      1.0000 0.21690  0.83970  0.44570  Biso   1.000  C
  C26      1.0000 0.78310  0.83970  0.05430  Biso   1.000  C
  C27      1.0000 0.71690  0.33970  0.44570  Biso   1.000  C
  C28      1.0000 0.28310  0.33970  0.05430  Biso   1.000  C
  C29      1.0000 0.78310  0.16030  0.55430  Biso   1.000  C
  C30      1.0000 0.21690  0.16030  0.94570  Biso   1.000  C
  C31      1.0000 0.28310  0.66030  0.55430  Biso   1.000  C
  C32      1.0000 0.71690  0.66030  0.94570  Biso   1.000  C
  H17      1.0000 0.20520  0.81940  0.38830  Biso   1.000  H
  H18      1.0000 0.79480  0.81940  0.11170  Biso   1.000  H
  H19      1.0000 0.70520  0.31940  0.38830  Biso   1.000  H
  H20      1.0000 0.29480  0.31940  0.11170  Biso   1.000  H
  H21      1.0000 0.79480  0.18060  0.61170  Biso   1.000  H
  H22      1.0000 0.20520  0.18060  0.88830  Biso   1.000  H
  H23      1.0000 0.29480  0.68060  0.61170  Biso   1.000  H
  H24      1.0000 0.70520  0.68060  0.88830  Biso   1.000  H
  C33      1.0000 0.21290  0.92030  0.46230  Biso   1.000  C
  C34      1.0000 0.78710  0.92030  0.03770  Biso   1.000  C
  C35      1.0000 0.71290  0.42030  0.46230  Biso   1.000  C
  C36      1.0000 0.28710  0.42030  0.03770  Biso   1.000  C
  C37      1.0000 0.78710  0.07970  0.53770  Biso   1.000  C
  C38      1.0000 0.21290  0.07970  0.96230  Biso   1.000  C
  C39      1.0000 0.28710  0.57970  0.53770  Biso   1.000  C
  C40      1.0000 0.71290  0.57970  0.96230  Biso   1.000  C
  H25      1.0000 0.19840  0.95390  0.41600  Biso   1.000  H
  H26      1.0000 0.80160  0.95390  0.08400  Biso   1.000  H
  H27      1.0000 0.69840  0.45390  0.41600  Biso   1.000  H
  H28      1.0000 0.30160  0.45390  0.08400  Biso   1.000  H
  H29      1.0000 0.80160  0.04610  0.58400  Biso   1.000  H
  H30      1.0000 0.19840  0.04610  0.91600  Biso   1.000  H
  H31      1.0000 0.30160  0.54610  0.58400  Biso   1.000  H
  H32      1.0000 0.69840  0.54610  0.91600  Biso   1.000  H
  N9       1.0000 0.08170  0.20160  0.46200  Biso   1.000  N
  N10      1.0000 0.91830  0.20160  0.03800  Biso   1.000  N
  N11      1.0000 0.58170  0.70160  0.46200  Biso   1.000  N
  N12      1.0000 0.41830  0.70160  0.03800  Biso   1.000  N
  N13      1.0000 0.91830  0.79840  0.53800  Biso   1.000  N
  N14      1.0000 0.08170  0.79840  0.96200  Biso   1.000  N
  N15      1.0000 0.41830  0.29840  0.53800  Biso   1.000  N
  N16      1.0000 0.58170  0.29840  0.96200  Biso   1.000  N
  C41      1.0000 0.14770  0.17480  0.22550  Biso   1.000  C
  C42      1.0000 0.85230  0.17480  0.27450  Biso   1.000  C
  C43      1.0000 0.64770  0.67480  0.22550  Biso   1.000  C
  C44      1.0000 0.35230  0.67480  0.27450  Biso   1.000  C
  C45      1.0000 0.85230  0.82520  0.77450  Biso   1.000  C
  C46      1.0000 0.14770  0.82520  0.72550  Biso   1.000  C
  C47      1.0000 0.35230  0.32520  0.77450  Biso   1.000  C
  C48      1.0000 0.64770  0.32520  0.72550  Biso   1.000  C
  H33      1.0000 0.15860  0.22640  0.23880  Biso   1.000  H
  H34      1.0000 0.84140  0.22640  0.26120  Biso   1.000  H
  H35      1.0000 0.65860  0.72640  0.23880  Biso   1.000  H
  H36      1.0000 0.34140  0.72640  0.26120  Biso   1.000  H
  H37      1.0000 0.84140  0.77360  0.76120  Biso   1.000  H
  H38      1.0000 0.15860  0.77360  0.73880  Biso   1.000  H
  H39      1.0000 0.34140  0.27360  0.76120  Biso   1.000  H
  H40      1.0000 0.65860  0.27360  0.73880  Biso   1.000  H
  C49      1.0000 0.01670  0.19830  0.29520  Biso   1.000  C
  C50      1.0000 0.98330  0.19830  0.20480  Biso   1.000  C
  C51      1.0000 0.51670  0.69830  0.29520  Biso   1.000  C
  C52      1.0000 0.48330  0.69830  0.20480  Biso   1.000  C
  C53      1.0000 0.98330  0.80170  0.70480  Biso   1.000  C
  C54      1.0000 0.01670  0.80170  0.79520  Biso   1.000  C
  C55      1.0000 0.48330  0.30170  0.70480  Biso   1.000  C
  C56      1.0000 0.51670  0.30170  0.79520  Biso   1.000  C
  C57      1.0000 0.12050  0.02020  0.18040  Biso   1.000  C
  C58      1.0000 0.87950  0.02020  0.31960  Biso   1.000  C
  C59      1.0000 0.62050  0.52020  0.18040  Biso   1.000  C
  C60      1.0000 0.37950  0.52020  0.31960  Biso   1.000  C
  C61      1.0000 0.87950  0.97980  0.81960  Biso   1.000  C
  C62      1.0000 0.12050  0.97980  0.68040  Biso   1.000  C
  C63      1.0000 0.37950  0.47980  0.81960  Biso   1.000  C
  C64      1.0000 0.62050  0.47980  0.68040  Biso   1.000  C
  C65      1.0000 0.16080  0.11590  0.28950  Biso   1.000  C
  C66      1.0000 0.83920  0.11590  0.21050  Biso   1.000  C
  C67      1.0000 0.66080  0.61590  0.28950  Biso   1.000  C
  C68      1.0000 0.33920  0.61590  0.21050  Biso   1.000  C
  C69      1.0000 0.83920  0.88410  0.71050  Biso   1.000  C
  C70      1.0000 0.16080  0.88410  0.78950  Biso   1.000  C
  C71      1.0000 0.33920  0.38410  0.71050  Biso   1.000  C
  C72      1.0000 0.66080  0.38410  0.78950  Biso   1.000  C
  C73      1.0000 0.22050  0.60130  0.74990  Biso   1.000  C
  C74      1.0000 0.77950  0.60130  0.75010  Biso   1.000  C
  C75      1.0000 0.72050  0.10130  0.74990  Biso   1.000  C
  C76      1.0000 0.27950  0.10130  0.75010  Biso   1.000  C
  C77      1.0000 0.77950  0.39870  0.25010  Biso   1.000  C
  C78      1.0000 0.22050  0.39870  0.24990  Biso   1.000  C
  C79      1.0000 0.27950  0.89870  0.25010  Biso   1.000  C
  C80      1.0000 0.72050  0.89870  0.24990  Biso   1.000  C
  C81      1.0000 0.19000  0.13450  0.38090  Biso   1.000  C
  C82      1.0000 0.81000  0.13450  0.11910  Biso   1.000  C
  C83      1.0000 0.69000  0.63450  0.38090  Biso   1.000  C
  C84      1.0000 0.31000  0.63450  0.11910  Biso   1.000  C
  C85      1.0000 0.81000  0.86550  0.61910  Biso   1.000  C
  C86      1.0000 0.19000  0.86550  0.88090  Biso   1.000  C
  C87      1.0000 0.31000  0.36550  0.61910  Biso   1.000  C
  C88      1.0000 0.69000  0.36550  0.88090  Biso   1.000  C
  C89      1.0000 0.14790  0.03930  0.26490  Biso   1.000  C
  C90      1.0000 0.85210  0.03930  0.23510  Biso   1.000  C
  C91      1.0000 0.64790  0.53930  0.26490  Biso   1.000  C
  C92      1.0000 0.35210  0.53930  0.23510  Biso   1.000  C
  C93      1.0000 0.85210  0.96070  0.73510  Biso   1.000  C
  C94      1.0000 0.14790  0.96070  0.76490  Biso   1.000  C
  C95      1.0000 0.35210  0.46070  0.73510  Biso   1.000  C
  C96      1.0000 0.64790  0.46070  0.76490  Biso   1.000  C
  H41      1.0000 0.15790  0.99880  0.30610  Biso   1.000  H
  H42      1.0000 0.84210  0.99880  0.19390  Biso   1.000  H
  H43      1.0000 0.65790  0.49880  0.30610  Biso   1.000  H
  H44      1.0000 0.34210  0.49880  0.19390  Biso   1.000  H
  H45      1.0000 0.84210  0.00120  0.69390  Biso   1.000  H
  H46      1.0000 0.15790  0.00120  0.80610  Biso   1.000  H
  H47      1.0000 0.34210  0.50120  0.69390  Biso   1.000  H
  H48      1.0000 0.65790  0.50120  0.80610  Biso   1.000  H
  C97      1.0000 0.11440  0.93470  0.15280  Biso   1.000  C
  C98      1.0000 0.88560  0.93470  0.34720  Biso   1.000  C
  C99      1.0000 0.61440  0.43470  0.15280  Biso   1.000  C
  C100     1.0000 0.38560  0.43470  0.34720  Biso   1.000  C
  C101     1.0000 0.88560  0.06530  0.84720  Biso   1.000  C
  C102     1.0000 0.11440  0.06530  0.65280  Biso   1.000  C
  C103     1.0000 0.38560  0.56530  0.84720  Biso   1.000  C
  C104     1.0000 0.61440  0.56530  0.65280  Biso   1.000  C
  C105     1.0000 0.06140  0.13470  0.42540  Biso   1.000  C
  C106     1.0000 0.93860  0.13470  0.07460  Biso   1.000  C
  C107     1.0000 0.56140  0.63470  0.42540  Biso   1.000  C
  C108     1.0000 0.43860  0.63470  0.07460  Biso   1.000  C
  C109     1.0000 0.93860  0.86530  0.57460  Biso   1.000  C
  C110     1.0000 0.06140  0.86530  0.92540  Biso   1.000  C
  C111     1.0000 0.43860  0.36530  0.57460  Biso   1.000  C
  C112     1.0000 0.56140  0.36530  0.92540  Biso   1.000  C
  H49      1.0000 0.06930  0.08770  0.45690  Biso   1.000  H
  H50      1.0000 0.93070  0.08770  0.04310  Biso   1.000  H
  H51      1.0000 0.56930  0.58770  0.45690  Biso   1.000  H
  H52      1.0000 0.43070  0.58770  0.04310  Biso   1.000  H
  H53      1.0000 0.93070  0.91230  0.54310  Biso   1.000  H
  H54      1.0000 0.06930  0.91230  0.95690  Biso   1.000  H
  H55      1.0000 0.43070  0.41230  0.54310  Biso   1.000  H
  H56      1.0000 0.56930  0.41230  0.95690  Biso   1.000  H
  C113     1.0000 0.10580  0.08120  0.11970  Biso   1.000  C
  C114     1.0000 0.89420  0.08120  0.38030  Biso   1.000  C
  C115     1.0000 0.60580  0.58120  0.11970  Biso   1.000  C
  C116     1.0000 0.39420  0.58120  0.38030  Biso   1.000  C
  C117     1.0000 0.89420  0.91880  0.88030  Biso   1.000  C
  C118     1.0000 0.10580  0.91880  0.61970  Biso   1.000  C
  C119     1.0000 0.39420  0.41880  0.88030  Biso   1.000  C
  C120     1.0000 0.60580  0.41880  0.61970  Biso   1.000  C
  C121     1.0000 0.02980  0.13130  0.34460  Biso   1.000  C
  C122     1.0000 0.97020  0.13130  0.15540  Biso   1.000  C
  C123     1.0000 0.52980  0.63130  0.34460  Biso   1.000  C
  C124     1.0000 0.47020  0.63130  0.15540  Biso   1.000  C
  C125     1.0000 0.97020  0.86870  0.65540  Biso   1.000  C
  C126     1.0000 0.02980  0.86870  0.84460  Biso   1.000  C
  C127     1.0000 0.47020  0.36870  0.65540  Biso   1.000  C
  C128     1.0000 0.52980  0.36870  0.84460  Biso   1.000  C
  H57      1.0000 0.01690  0.08270  0.32240  Biso   1.000  H
  H58      1.0000 0.98310  0.08270  0.17760  Biso   1.000  H
  H59      1.0000 0.51690  0.58270  0.32240  Biso   1.000  H
  H60      1.0000 0.48310  0.58270  0.17760  Biso   1.000  H
  H61      1.0000 0.98310  0.91730  0.67760  Biso   1.000  H
  H62      1.0000 0.01690  0.91730  0.82240  Biso   1.000  H
  H63      1.0000 0.48310  0.41730  0.67760  Biso   1.000  H
  H64      1.0000 0.51690  0.41730  0.82240  Biso   1.000  H
  C129     1.0000 0.11880  0.15840  0.14240  Biso   1.000  C
  C130     1.0000 0.88120  0.15840  0.35760  Biso   1.000  C
  C131     1.0000 0.61880  0.65840  0.14240  Biso   1.000  C
  C132     1.0000 0.38120  0.65840  0.35760  Biso   1.000  C
  C133     1.0000 0.88120  0.84160  0.85760  Biso   1.000  C
  C134     1.0000 0.11880  0.84160  0.64240  Biso   1.000  C
  C135     1.0000 0.38120  0.34160  0.85760  Biso   1.000  C
  C136     1.0000 0.61880  0.34160  0.64240  Biso   1.000  C
  H65      1.0000 0.10820  0.19920  0.10200  Biso   1.000  H
  H66      1.0000 0.89180  0.19920  0.39800  Biso   1.000  H
  H67      1.0000 0.60820  0.69920  0.10200  Biso   1.000  H
  H68      1.0000 0.39180  0.69920  0.39800  Biso   1.000  H
  H69      1.0000 0.89180  0.80080  0.89800  Biso   1.000  H
  H70      1.0000 0.10820  0.80080  0.60200  Biso   1.000  H
  H71      1.0000 0.39180  0.30080  0.89800  Biso   1.000  H
  H72      1.0000 0.60820  0.30080  0.60200  Biso   1.000  H
  C137     1.0000 0.03880  0.26840  0.33320  Biso   1.000  C
  C138     1.0000 0.96120  0.26840  0.16680  Biso   1.000  C
  C139     1.0000 0.53880  0.76840  0.33320  Biso   1.000  C
  C140     1.0000 0.46120  0.76840  0.16680  Biso   1.000  C
  C141     1.0000 0.96120  0.73160  0.66680  Biso   1.000  C
  C142     1.0000 0.03880  0.73160  0.83320  Biso   1.000  C
  C143     1.0000 0.46120  0.23160  0.66680  Biso   1.000  C
  C144     1.0000 0.53880  0.23160  0.83320  Biso   1.000  C
  H73      1.0000 0.03240  0.31610  0.30240  Biso   1.000  H
  H74      1.0000 0.96760  0.31610  0.19760  Biso   1.000  H
  H75      1.0000 0.53240  0.81610  0.30240  Biso   1.000  H
  H76      1.0000 0.46760  0.81610  0.19760  Biso   1.000  H
  H77      1.0000 0.96760  0.68390  0.69760  Biso   1.000  H
  H78      1.0000 0.03240  0.68390  0.80240  Biso   1.000  H
  H79      1.0000 0.46760  0.18390  0.69760  Biso   1.000  H
  H80      1.0000 0.53240  0.18390  0.80240  Biso   1.000  H
  C145     1.0000 0.06080  0.11590  0.97400  Biso   1.000  C
  C146     1.0000 0.93920  0.11590  0.52600  Biso   1.000  C
  C147     1.0000 0.56080  0.61590  0.97400  Biso   1.000  C
  C148     1.0000 0.43920  0.61590  0.52600  Biso   1.000  C
  C149     1.0000 0.93920  0.88410  0.02600  Biso   1.000  C
  C150     1.0000 0.06080  0.88410  0.47400  Biso   1.000  C
  C151     1.0000 0.43920  0.38410  0.02600  Biso   1.000  C
  C152     1.0000 0.56080  0.38410  0.47400  Biso   1.000  C
  H81      1.0000 0.03910  0.09200  0.92360  Biso   1.000  H
  H82      1.0000 0.96090  0.09200  0.57640  Biso   1.000  H
  H83      1.0000 0.53910  0.59200  0.92360  Biso   1.000  H
  H84      1.0000 0.46090  0.59200  0.57640  Biso   1.000  H
  H85      1.0000 0.96090  0.90800  0.07640  Biso   1.000  H
  H86      1.0000 0.03910  0.90800  0.42360  Biso   1.000  H
  H87      1.0000 0.46090  0.40800  0.07640  Biso   1.000  H
  H88      1.0000 0.53910  0.40800  0.42360  Biso   1.000  H
  H89      1.0000 0.09170  0.13900  0.95280  Biso   1.000  H
  H90      1.0000 0.90830  0.13900  0.54720  Biso   1.000  H
  H91      1.0000 0.59170  0.63900  0.95280  Biso   1.000  H
  H92      1.0000 0.40830  0.63900  0.54720  Biso   1.000  H
  H93      1.0000 0.90830  0.86100  0.04720  Biso   1.000  H
  H94      1.0000 0.09170  0.86100  0.45280  Biso   1.000  H
  H95      1.0000 0.40830  0.36100  0.04720  Biso   1.000  H
  H96      1.0000 0.59170  0.36100  0.45280  Biso   1.000  H
  H97      1.0000 0.04090  0.15620  0.00050  Biso   1.000  H
  H98      1.0000 0.95910  0.15620  0.49950  Biso   1.000  H
  H99      1.0000 0.54090  0.65620  0.00050  Biso   1.000  H
  H100     1.0000 0.45910  0.65620  0.49950  Biso   1.000  H
  H101     1.0000 0.95910  0.84380  0.99950  Biso   1.000  H
  H102     1.0000 0.04090  0.84380  0.50050  Biso   1.000  H
  H103     1.0000 0.45910  0.34380  0.99950  Biso   1.000  H
  H104     1.0000 0.54090  0.34380  0.50050  Biso   1.000  H
  C153     1.0000 0.06940  0.26690  0.41460  Biso   1.000  C
  C154     1.0000 0.93060  0.26690  0.08540  Biso   1.000  C
  C155     1.0000 0.56940  0.76690  0.41460  Biso   1.000  C
  C156     1.0000 0.43060  0.76690  0.08540  Biso   1.000  C
  C157     1.0000 0.93060  0.73310  0.58540  Biso   1.000  C
  C158     1.0000 0.06940  0.73310  0.91460  Biso   1.000  C
  C159     1.0000 0.43060  0.23310  0.58540  Biso   1.000  C
  C160     1.0000 0.56940  0.23310  0.91460  Biso   1.000  C
  H105     1.0000 0.08260  0.31470  0.43890  Biso   1.000  H
  H106     1.0000 0.91740  0.31470  0.06110  Biso   1.000  H
  H107     1.0000 0.58260  0.81470  0.43890  Biso   1.000  H
  H108     1.0000 0.41740  0.81470  0.06110  Biso   1.000  H
  H109     1.0000 0.91740  0.68530  0.56110  Biso   1.000  H
  H110     1.0000 0.08260  0.68530  0.93890  Biso   1.000  H
  H111     1.0000 0.41740  0.18530  0.56110  Biso   1.000  H
  H112     1.0000 0.58260  0.18530  0.93890  Biso   1.000  H
  O65      1.0000 0.13660  0.31550  0.59290  Biso   1.000  O
  O66      1.0000 0.86340  0.31550  0.90710  Biso   1.000  O
  O67      1.0000 0.63660  0.81550  0.59290  Biso   1.000  O
  O68      1.0000 0.36340  0.81550  0.90710  Biso   1.000  O
  O69      1.0000 0.86340  0.68450  0.40710  Biso   1.000  O
  O70      1.0000 0.13660  0.68450  0.09290  Biso   1.000  O
  O71      1.0000 0.36340  0.18450  0.40710  Biso   1.000  O
  O72      1.0000 0.63660  0.18450  0.09290  Biso   1.000  O
  O73      1.0000 0.18990  0.35460  0.49680  Biso   1.000  O
  O74      1.0000 0.81010  0.35460  0.00320  Biso   1.000  O
  O75      1.0000 0.68990  0.85460  0.49680  Biso   1.000  O
  O76      1.0000 0.31010  0.85460  0.00320  Biso   1.000  O
  O77      1.0000 0.81010  0.64540  0.50320  Biso   1.000  O
  O78      1.0000 0.18990  0.64540  0.99680  Biso   1.000  O
  O79      1.0000 0.31010  0.14540  0.50320  Biso   1.000  O
  O80      1.0000 0.68990  0.14540  0.99680  Biso   1.000  O
  C161     1.0000 0.16120  0.36850  0.55760  Biso   1.000  C
  C162     1.0000 0.83880  0.36850  0.94240  Biso   1.000  C
  C163     1.0000 0.66120  0.86850  0.55760  Biso   1.000  C
  C164     1.0000 0.33880  0.86850  0.94240  Biso   1.000  C
  C165     1.0000 0.83880  0.63150  0.44240  Biso   1.000  C
  C166     1.0000 0.16120  0.63150  0.05760  Biso   1.000  C
  C167     1.0000 0.33880  0.13150  0.44240  Biso   1.000  C
  C168     1.0000 0.66120  0.13150  0.05760  Biso   1.000  C
  H113     1.0000 0.23600  0.19000  0.63600  Biso   1.000  H
  H114     1.0000 0.76400  0.19000  0.86400  Biso   1.000  H
  H115     1.0000 0.73600  0.69000  0.63600  Biso   1.000  H
  H116     1.0000 0.26400  0.69000  0.86400  Biso   1.000  H
  H117     1.0000 0.76400  0.81000  0.36400  Biso   1.000  H
  H118     1.0000 0.23600  0.81000  0.13600  Biso   1.000  H
  H119     1.0000 0.26400  0.31000  0.36400  Biso   1.000  H
  H120     1.0000 0.73600  0.31000  0.13600  Biso   1.000  H
  O81      1.0000 0.10480  0.46450  0.43800  Biso   1.000  O
  O82      1.0000 0.89520  0.46450  0.06200  Biso   1.000  O
  O83      1.0000 0.60480  0.96450  0.43800  Biso   1.000  O
  O84      1.0000 0.39520  0.96450  0.06200  Biso   1.000  O
  O85      1.0000 0.89520  0.53550  0.56200  Biso   1.000  O
  O86      1.0000 0.10480  0.53550  0.93800  Biso   1.000  O
  O87      1.0000 0.39520  0.03550  0.56200  Biso   1.000  O
  O88      1.0000 0.60480  0.03550  0.93800  Biso   1.000  O
  C169     1.0000 0.08780  0.50500  0.35490  Biso   1.000  C
  C170     1.0000 0.91220  0.50500  0.14510  Biso   1.000  C
  C171     1.0000 0.58780  0.00500  0.35490  Biso   1.000  C
  C172     1.0000 0.41220  0.00500  0.14510  Biso   1.000  C
  C173     1.0000 0.91220  0.49500  0.64510  Biso   1.000  C
  C174     1.0000 0.08780  0.49500  0.85490  Biso   1.000  C
  C175     1.0000 0.41220  0.99500  0.64510  Biso   1.000  C
  C176     1.0000 0.58780  0.99500  0.85490  Biso   1.000  C
  H121     1.0000 0.06880  0.46900  0.31250  Biso   1.000  H
  H122     1.0000 0.93120  0.46900  0.18750  Biso   1.000  H
  H123     1.0000 0.56880  0.96900  0.31250  Biso   1.000  H
  H124     1.0000 0.43120  0.96900  0.18750  Biso   1.000  H
  H125     1.0000 0.93120  0.53100  0.68750  Biso   1.000  H
  H126     1.0000 0.06880  0.53100  0.81250  Biso   1.000  H
  H127     1.0000 0.43120  0.03100  0.68750  Biso   1.000  H
  H128     1.0000 0.56880  0.03100  0.81250  Biso   1.000  H
  H129     1.0000 0.11820  0.52520  0.32940  Biso   1.000  H
  H130     1.0000 0.88180  0.52520  0.17060  Biso   1.000  H
  H131     1.0000 0.61820  0.02520  0.32940  Biso   1.000  H
  H132     1.0000 0.38180  0.02520  0.17060  Biso   1.000  H
  H133     1.0000 0.88180  0.47480  0.67060  Biso   1.000  H
  H134     1.0000 0.11820  0.47480  0.82940  Biso   1.000  H
  H135     1.0000 0.38180  0.97480  0.67060  Biso   1.000  H
  H136     1.0000 0.61820  0.97480  0.82940  Biso   1.000  H
  H137     1.0000 0.06490  0.54800  0.36690  Biso   1.000  H
  H138     1.0000 0.93510  0.54800  0.13310  Biso   1.000  H
  H139     1.0000 0.56490  0.04800  0.36690  Biso   1.000  H
  H140     1.0000 0.43510  0.04800  0.13310  Biso   1.000  H
  H141     1.0000 0.93510  0.45200  0.63310  Biso   1.000  H
  H142     1.0000 0.06490  0.45200  0.86690  Biso   1.000  H
  H143     1.0000 0.43510  0.95200  0.63310  Biso   1.000  H
  H144     1.0000 0.56490  0.95200  0.86690  Biso   1.000  H
  C177     1.0000 0.18630  0.48510  0.65850  Biso   1.000  C
  C178     1.0000 0.81370  0.48510  0.84150  Biso   1.000  C
  C179     1.0000 0.68630  0.98510  0.65850  Biso   1.000  C
  C180     1.0000 0.31370  0.98510  0.84150  Biso   1.000  C
  C181     1.0000 0.81370  0.51490  0.34150  Biso   1.000  C
  C182     1.0000 0.18630  0.51490  0.15850  Biso   1.000  C
  C183     1.0000 0.31370  0.01490  0.34150  Biso   1.000  C
  C184     1.0000 0.68630  0.01490  0.15850  Biso   1.000  C
  H145     1.0000 0.20320  0.45130  0.70240  Biso   1.000  H
  H146     1.0000 0.79680  0.45130  0.79760  Biso   1.000  H
  H147     1.0000 0.70320  0.95130  0.70240  Biso   1.000  H
  H148     1.0000 0.29680  0.95130  0.79760  Biso   1.000  H
  H149     1.0000 0.79680  0.54870  0.29760  Biso   1.000  H
  H150     1.0000 0.20320  0.54870  0.20240  Biso   1.000  H
  H151     1.0000 0.29680  0.04870  0.29760  Biso   1.000  H
  H152     1.0000 0.70320  0.04870  0.20240  Biso   1.000  H
  C185     1.0000 0.15780  0.45430  0.58010  Biso   1.000  C
  C186     1.0000 0.84220  0.45430  0.91990  Biso   1.000  C
  C187     1.0000 0.65780  0.95430  0.58010  Biso   1.000  C
  C188     1.0000 0.34220  0.95430  0.91990  Biso   1.000  C
  C189     1.0000 0.84220  0.54570  0.41990  Biso   1.000  C
  C190     1.0000 0.15780  0.54570  0.08010  Biso   1.000  C
  C191     1.0000 0.34220  0.04570  0.41990  Biso   1.000  C
  C192     1.0000 0.65780  0.04570  0.08010  Biso   1.000  C
  C193     1.0000 0.13240  0.50490  0.51460  Biso   1.000  C
  C194     1.0000 0.86760  0.50490  0.98540  Biso   1.000  C
  C195     1.0000 0.63240  0.00490  0.51460  Biso   1.000  C
  C196     1.0000 0.36760  0.00490  0.98540  Biso   1.000  C
  C197     1.0000 0.86760  0.49510  0.48540  Biso   1.000  C
  C198     1.0000 0.13240  0.49510  0.01460  Biso   1.000  C
  C199     1.0000 0.36760  0.99510  0.48540  Biso   1.000  C
  C200     1.0000 0.63240  0.99510  0.01460  Biso   1.000  C
  C201     1.0000 0.13560  0.58630  0.52740  Biso   1.000  C
  C202     1.0000 0.86440  0.58630  0.97260  Biso   1.000  C
  C203     1.0000 0.63560  0.08630  0.52740  Biso   1.000  C
  C204     1.0000 0.36440  0.08630  0.97260  Biso   1.000  C
  C205     1.0000 0.86440  0.41370  0.47260  Biso   1.000  C
  C206     1.0000 0.13560  0.41370  0.02740  Biso   1.000  C
  C207     1.0000 0.36440  0.91370  0.47260  Biso   1.000  C
  C208     1.0000 0.63560  0.91370  0.02740  Biso   1.000  C
  H153     1.0000 0.11860  0.62020  0.48350  Biso   1.000  H
  H154     1.0000 0.88140  0.62020  0.01650  Biso   1.000  H
  H155     1.0000 0.61860  0.12020  0.48350  Biso   1.000  H
  H156     1.0000 0.38140  0.12020  0.01650  Biso   1.000  H
  H157     1.0000 0.88140  0.37980  0.51650  Biso   1.000  H
  H158     1.0000 0.11860  0.37980  0.98350  Biso   1.000  H
  H159     1.0000 0.38140  0.87980  0.51650  Biso   1.000  H
  H160     1.0000 0.61860  0.87980  0.98350  Biso   1.000  H
  C209     1.0000 0.16400  0.61720  0.60580  Biso   1.000  C
  C210     1.0000 0.83600  0.61720  0.89420  Biso   1.000  C
  C211     1.0000 0.66400  0.11720  0.60580  Biso   1.000  C
  C212     1.0000 0.33600  0.11720  0.89420  Biso   1.000  C
  C213     1.0000 0.83600  0.38280  0.39420  Biso   1.000  C
  C214     1.0000 0.16400  0.38280  0.10580  Biso   1.000  C
  C215     1.0000 0.33600  0.88280  0.39420  Biso   1.000  C
  C216     1.0000 0.66400  0.88280  0.10580  Biso   1.000  C
  H161     1.0000 0.16610  0.67160  0.61440  Biso   1.000  H
  H162     1.0000 0.83390  0.67160  0.88560  Biso   1.000  H
  H163     1.0000 0.66610  0.17160  0.61440  Biso   1.000  H
  H164     1.0000 0.33390  0.17160  0.88560  Biso   1.000  H
  H165     1.0000 0.83390  0.32840  0.38560  Biso   1.000  H
  H166     1.0000 0.16610  0.32840  0.11440  Biso   1.000  H
  H167     1.0000 0.33390  0.82840  0.38560  Biso   1.000  H
  H168     1.0000 0.66610  0.82840  0.11440  Biso   1.000  H
  C217     1.0000 0.18940  0.56660  0.67130  Biso   1.000  C
  C218     1.0000 0.81060  0.56660  0.82870  Biso   1.000  C
  C219     1.0000 0.68940  0.06660  0.67130  Biso   1.000  C
  C220     1.0000 0.31060  0.06660  0.82870  Biso   1.000  C
  C221     1.0000 0.81060  0.43340  0.32870  Biso   1.000  C
  C222     1.0000 0.18940  0.43340  0.17130  Biso   1.000  C
  C223     1.0000 0.31060  0.93340  0.32870  Biso   1.000  C
  C224     1.0000 0.68940  0.93340  0.17130  Biso   1.000  C
  O89      1.0000 0.00000  0.04490  0.75000  Biso   1.000  O
  O90      1.0000 0.50000  0.54490  0.75000  Biso   1.000  O
  O91      1.0000 0.00000  0.95510  0.25000  Biso   1.000  O
  O92      1.0000 0.50000  0.45510  0.25000  Biso   1.000  O
  O93      1.0000 0.09640  0.26600  0.81260  Biso   1.000  O
  O94      1.0000 0.90360  0.26600  0.68740  Biso   1.000  O
  O95      1.0000 0.59640  0.76600  0.81260  Biso   1.000  O
  O96      1.0000 0.40360  0.76600  0.68740  Biso   1.000  O
  O97      1.0000 0.90360  0.73400  0.18740  Biso   1.000  O
  O98      1.0000 0.09640  0.73400  0.31260  Biso   1.000  O
  O99      1.0000 0.40360  0.23400  0.18740  Biso   1.000  O
  O100     1.0000 0.59640  0.23400  0.31260  Biso   1.000  O
  H169     1.0000 0.09480  0.27680  0.86850  Biso   1.000  H
  H170     1.0000 0.90520  0.27680  0.63150  Biso   1.000  H
  H171     1.0000 0.59480  0.77680  0.86850  Biso   1.000  H
  H172     1.0000 0.40520  0.77680  0.63150  Biso   1.000  H
  H173     1.0000 0.90520  0.72320  0.13150  Biso   1.000  H
  H174     1.0000 0.09480  0.72320  0.36850  Biso   1.000  H
  H175     1.0000 0.40520  0.22320  0.13150  Biso   1.000  H
  H176     1.0000 0.59480  0.22320  0.36850  Biso   1.000  H
  H177     1.0000 0.07040  0.28770  0.78010  Biso   1.000  H
  H178     1.0000 0.92960  0.28770  0.71990  Biso   1.000  H
  H179     1.0000 0.57040  0.78770  0.78010  Biso   1.000  H
  H180     1.0000 0.42960  0.78770  0.71990  Biso   1.000  H
  H181     1.0000 0.92960  0.71230  0.21990  Biso   1.000  H
  H182     1.0000 0.07040  0.71230  0.28010  Biso   1.000  H
  H183     1.0000 0.42960  0.21230  0.21990  Biso   1.000  H
  H184     1.0000 0.57040  0.21230  0.28010  Biso   1.000  H
  C225     1.0000 0.18080  0.56460  0.67950  Biso   1.000  C
  C226     1.0000 0.81920  0.56460  0.82050  Biso   1.000  C
  C227     1.0000 0.68080  0.06460  0.67950  Biso   1.000  C
  C228     1.0000 0.31920  0.06460  0.82050  Biso   1.000  C
  C229     1.0000 0.81920  0.43540  0.32050  Biso   1.000  C
  C230     1.0000 0.18080  0.43540  0.17950  Biso   1.000  C
  C231     1.0000 0.31920  0.93540  0.32050  Biso   1.000  C
  C232     1.0000 0.68080  0.93540  0.17950  Biso   1.000  C
  C233     1.0000 0.18690  0.48570  0.65590  Biso   1.000  C
  C234     1.0000 0.81310  0.48570  0.84410  Biso   1.000  C
  C235     1.0000 0.68690  0.98570  0.65590  Biso   1.000  C
  C236     1.0000 0.31310  0.98570  0.84410  Biso   1.000  C
  C237     1.0000 0.81310  0.51430  0.34410  Biso   1.000  C
  C238     1.0000 0.18690  0.51430  0.15590  Biso   1.000  C
  C239     1.0000 0.31310  0.01430  0.34410  Biso   1.000  C
  C240     1.0000 0.68690  0.01430  0.15590  Biso   1.000  C
  H185     1.0000 0.21600  0.45710  0.68250  Biso   1.000  H
  H186     1.0000 0.78400  0.45710  0.81750  Biso   1.000  H
  H187     1.0000 0.71600  0.95710  0.68250  Biso   1.000  H
  H188     1.0000 0.28400  0.95710  0.81750  Biso   1.000  H
  H189     1.0000 0.78400  0.54290  0.31750  Biso   1.000  H
  H190     1.0000 0.21600  0.54290  0.18250  Biso   1.000  H
  H191     1.0000 0.28400  0.04290  0.31750  Biso   1.000  H
  H192     1.0000 0.71600  0.04290  0.18250  Biso   1.000  H
  C241     1.0000 0.14940  0.44980  0.59260  Biso   1.000  C
  C242     1.0000 0.85060  0.44980  0.90740  Biso   1.000  C
  C243     1.0000 0.64940  0.94980  0.59260  Biso   1.000  C
  C244     1.0000 0.35060  0.94980  0.90740  Biso   1.000  C
  C245     1.0000 0.85060  0.55020  0.40740  Biso   1.000  C
  C246     1.0000 0.14940  0.55020  0.09260  Biso   1.000  C
  C247     1.0000 0.35060  0.05020  0.40740  Biso   1.000  C
  C248     1.0000 0.64940  0.05020  0.09260  Biso   1.000  C
  C249     1.0000 0.10590  0.49260  0.55290  Biso   1.000  C
  C250     1.0000 0.89410  0.49260  0.94710  Biso   1.000  C
  C251     1.0000 0.60590  0.99260  0.55290  Biso   1.000  C
  C252     1.0000 0.39410  0.99260  0.94710  Biso   1.000  C
  C253     1.0000 0.89410  0.50740  0.44710  Biso   1.000  C
  C254     1.0000 0.10590  0.50740  0.05290  Biso   1.000  C
  C255     1.0000 0.39410  0.00740  0.44710  Biso   1.000  C
  C256     1.0000 0.60590  0.00740  0.05290  Biso   1.000  C
  C257     1.0000 0.09980  0.57150  0.57650  Biso   1.000  C
  C258     1.0000 0.90020  0.57150  0.92350  Biso   1.000  C
  C259     1.0000 0.59980  0.07150  0.57650  Biso   1.000  C
  C260     1.0000 0.40020  0.07150  0.92350  Biso   1.000  C
  C261     1.0000 0.90020  0.42850  0.42350  Biso   1.000  C
  C262     1.0000 0.09980  0.42850  0.07650  Biso   1.000  C
  C263     1.0000 0.40020  0.92850  0.42350  Biso   1.000  C
  C264     1.0000 0.59980  0.92850  0.07650  Biso   1.000  C
  H193     1.0000 0.07070  0.60010  0.54990  Biso   1.000  H
  H194     1.0000 0.92930  0.60010  0.95010  Biso   1.000  H
  H195     1.0000 0.57070  0.10010  0.54990  Biso   1.000  H
  H196     1.0000 0.42930  0.10010  0.95010  Biso   1.000  H
  H197     1.0000 0.92930  0.39990  0.45010  Biso   1.000  H
  H198     1.0000 0.07070  0.39990  0.04990  Biso   1.000  H
  H199     1.0000 0.42930  0.89990  0.45010  Biso   1.000  H
  H200     1.0000 0.57070  0.89990  0.04990  Biso   1.000  H
  C265     1.0000 0.13730  0.60740  0.63980  Biso   1.000  C
  C266     1.0000 0.86270  0.60740  0.86020  Biso   1.000  C
  C267     1.0000 0.63730  0.10740  0.63980  Biso   1.000  C
  C268     1.0000 0.36270  0.10740  0.86020  Biso   1.000  C
  C269     1.0000 0.86270  0.39260  0.36020  Biso   1.000  C
  C270     1.0000 0.13730  0.39260  0.13980  Biso   1.000  C
  C271     1.0000 0.36270  0.89260  0.36020  Biso   1.000  C
  C272     1.0000 0.63730  0.89260  0.13980  Biso   1.000  C
  H201     1.0000 0.13320  0.66020  0.65560  Biso   1.000  H
  H202     1.0000 0.86680  0.66020  0.84440  Biso   1.000  H
  H203     1.0000 0.63320  0.16020  0.65560  Biso   1.000  H
  H204     1.0000 0.36680  0.16020  0.84440  Biso   1.000  H
  H205     1.0000 0.86680  0.33980  0.34440  Biso   1.000  H
  H206     1.0000 0.13320  0.33980  0.15560  Biso   1.000  H
  H207     1.0000 0.36680  0.83980  0.34440  Biso   1.000  H
  H208     1.0000 0.63320  0.83980  0.15560  Biso   1.000  H
  O101     1.0000 0.06970  0.45350  0.48700  Biso   1.000  O
  O102     1.0000 0.93030  0.45350  0.01300  Biso   1.000  O
  O103     1.0000 0.56970  0.95350  0.48700  Biso   1.000  O
  O104     1.0000 0.43030  0.95350  0.01300  Biso   1.000  O
  O105     1.0000 0.93030  0.54650  0.51300  Biso   1.000  O
  O106     1.0000 0.06970  0.54650  0.98700  Biso   1.000  O
  O107     1.0000 0.43030  0.04650  0.51300  Biso   1.000  O
  O108     1.0000 0.56970  0.04650  0.98700  Biso   1.000  O
  C273     1.0000 0.01650  0.48900  0.46110  Biso   1.000  C
  C274     1.0000 0.98350  0.48900  0.03890  Biso   1.000  C
  C275     1.0000 0.51650  0.98900  0.46110  Biso   1.000  C
  C276     1.0000 0.48350  0.98900  0.03890  Biso   1.000  C
  C277     1.0000 0.98350  0.51100  0.53890  Biso   1.000  C
  C278     1.0000 0.01650  0.51100  0.96110  Biso   1.000  C
  C279     1.0000 0.48350  0.01100  0.53890  Biso   1.000  C
  C280     1.0000 0.51650  0.01100  0.96110  Biso   1.000  C
  H209     1.0000 0.99580  0.45220  0.42090  Biso   1.000  H
  H210     1.0000 0.00420  0.45220  0.07910  Biso   1.000  H
  H211     1.0000 0.49580  0.95220  0.42090  Biso   1.000  H
  H212     1.0000 0.50420  0.95220  0.07910  Biso   1.000  H
  H213     1.0000 0.00420  0.54780  0.57910  Biso   1.000  H
  H214     1.0000 0.99580  0.54780  0.92090  Biso   1.000  H
  H215     1.0000 0.50420  0.04780  0.57910  Biso   1.000  H
  H216     1.0000 0.49580  0.04780  0.92090  Biso   1.000  H
  H217     1.0000 0.02110  0.53660  0.42610  Biso   1.000  H
  H218     1.0000 0.97890  0.53660  0.07390  Biso   1.000  H
  H219     1.0000 0.52110  0.03660  0.42610  Biso   1.000  H
  H220     1.0000 0.47890  0.03660  0.07390  Biso   1.000  H
  H221     1.0000 0.97890  0.46340  0.57390  Biso   1.000  H
  H222     1.0000 0.02110  0.46340  0.92610  Biso   1.000  H
  H223     1.0000 0.47890  0.96340  0.57390  Biso   1.000  H
  H224     1.0000 0.52110  0.96340  0.92610  Biso   1.000  H
  N17      1.0000 0.24050  0.95590  0.53840  Biso   1.000  N
  N18      1.0000 0.75950  0.95590  0.96160  Biso   1.000  N
  N19      1.0000 0.74050  0.45590  0.53840  Biso   1.000  N
  N20      1.0000 0.25950  0.45590  0.96160  Biso   1.000  N
  N21      1.0000 0.75950  0.04410  0.46160  Biso   1.000  N
  N22      1.0000 0.24050  0.04410  0.03840  Biso   1.000  N
  N23      1.0000 0.25950  0.54410  0.46160  Biso   1.000  N
  N24      1.0000 0.74050  0.54410  0.03840  Biso   1.000  N
  C281     1.0000 0.28720  0.91790  0.57310  Biso   1.000  C
  C282     1.0000 0.71280  0.91790  0.92690  Biso   1.000  C
  C283     1.0000 0.78720  0.41790  0.57310  Biso   1.000  C
  C284     1.0000 0.21280  0.41790  0.92690  Biso   1.000  C
  C285     1.0000 0.71280  0.08210  0.42690  Biso   1.000  C
  C286     1.0000 0.28720  0.08210  0.07310  Biso   1.000  C
  C287     1.0000 0.21280  0.58210  0.42690  Biso   1.000  C
  C288     1.0000 0.78720  0.58210  0.07310  Biso   1.000  C
  H225     1.0000 0.31380  0.94600  0.60810  Biso   1.000  H
  H226     1.0000 0.68620  0.94600  0.89190  Biso   1.000  H
  H227     1.0000 0.81380  0.44600  0.60810  Biso   1.000  H
  H228     1.0000 0.18620  0.44600  0.89190  Biso   1.000  H
  H229     1.0000 0.68620  0.05400  0.39190  Biso   1.000  H
  H230     1.0000 0.31380  0.05400  0.10810  Biso   1.000  H
  H231     1.0000 0.18620  0.55400  0.39190  Biso   1.000  H
  H232     1.0000 0.81380  0.55400  0.10810  Biso   1.000  H
  C289     1.0000 0.29400  0.83800  0.55570  Biso   1.000  C
  C290     1.0000 0.70600  0.83800  0.94430  Biso   1.000  C
  C291     1.0000 0.79400  0.33800  0.55570  Biso   1.000  C
  C292     1.0000 0.20600  0.33800  0.94430  Biso   1.000  C
  C293     1.0000 0.70600  0.16200  0.44430  Biso   1.000  C
  C294     1.0000 0.29400  0.16200  0.05570  Biso   1.000  C
  C295     1.0000 0.20600  0.66200  0.44430  Biso   1.000  C
  C296     1.0000 0.79400  0.66200  0.05570  Biso   1.000  C
  H233     1.0000 0.32520  0.81260  0.57900  Biso   1.000  H
  H234     1.0000 0.67480  0.81260  0.92100  Biso   1.000  H
  H235     1.0000 0.82520  0.31260  0.57900  Biso   1.000  H
  H236     1.0000 0.17480  0.31260  0.92100  Biso   1.000  H
  H237     1.0000 0.67480  0.18740  0.42100  Biso   1.000  H
  H238     1.0000 0.32520  0.18740  0.07900  Biso   1.000  H
  H239     1.0000 0.17480  0.68740  0.42100  Biso   1.000  H
  H240     1.0000 0.82520  0.68740  0.07900  Biso   1.000  H
  C297     1.0000 0.25420  0.79600  0.50350  Biso   1.000  C
  C298     1.0000 0.74580  0.79600  0.99650  Biso   1.000  C
  C299     1.0000 0.75420  0.29600  0.50350  Biso   1.000  C
  C300     1.0000 0.24580  0.29600  0.99650  Biso   1.000  C
  C301     1.0000 0.74580  0.20400  0.49650  Biso   1.000  C
  C302     1.0000 0.25420  0.20400  0.00350  Biso   1.000  C
  C303     1.0000 0.24580  0.70400  0.49650  Biso   1.000  C
  C304     1.0000 0.75420  0.70400  0.00350  Biso   1.000  C
  C305     1.0000 0.20750  0.83400  0.46870  Biso   1.000  C
  C306     1.0000 0.79250  0.83400  0.03130  Biso   1.000  C
  C307     1.0000 0.70750  0.33400  0.46870  Biso   1.000  C
  C308     1.0000 0.29250  0.33400  0.03130  Biso   1.000  C
  C309     1.0000 0.79250  0.16600  0.53130  Biso   1.000  C
  C310     1.0000 0.20750  0.16600  0.96870  Biso   1.000  C
  C311     1.0000 0.29250  0.66600  0.53130  Biso   1.000  C
  C312     1.0000 0.70750  0.66600  0.96870  Biso   1.000  C
  H241     1.0000 0.18090  0.80590  0.43370  Biso   1.000  H
  H242     1.0000 0.81910  0.80590  0.06630  Biso   1.000  H
  H243     1.0000 0.68090  0.30590  0.43370  Biso   1.000  H
  H244     1.0000 0.31910  0.30590  0.06630  Biso   1.000  H
  H245     1.0000 0.81910  0.19410  0.56630  Biso   1.000  H
  H246     1.0000 0.18090  0.19410  0.93370  Biso   1.000  H
  H247     1.0000 0.31910  0.69410  0.56630  Biso   1.000  H
  H248     1.0000 0.68090  0.69410  0.93370  Biso   1.000  H
  C313     1.0000 0.20070  0.91390  0.48610  Biso   1.000  C
  C314     1.0000 0.79930  0.91390  0.01390  Biso   1.000  C
  C315     1.0000 0.70070  0.41390  0.48610  Biso   1.000  C
  C316     1.0000 0.29930  0.41390  0.01390  Biso   1.000  C
  C317     1.0000 0.79930  0.08610  0.51390  Biso   1.000  C
  C318     1.0000 0.20070  0.08610  0.98610  Biso   1.000  C
  C319     1.0000 0.29930  0.58610  0.51390  Biso   1.000  C
  C320     1.0000 0.70070  0.58610  0.98610  Biso   1.000  C
  H249     1.0000 0.16940  0.93930  0.46290  Biso   1.000  H
  H250     1.0000 0.83060  0.93930  0.03710  Biso   1.000  H
  H251     1.0000 0.66940  0.43930  0.46290  Biso   1.000  H
  H252     1.0000 0.33060  0.43930  0.03710  Biso   1.000  H
  H253     1.0000 0.83060  0.06070  0.53710  Biso   1.000  H
  H254     1.0000 0.16940  0.06070  0.96290  Biso   1.000  H
  H255     1.0000 0.33060  0.56070  0.53710  Biso   1.000  H
  H256     1.0000 0.66940  0.56070  0.96290  Biso   1.000  H
  H257     1.0000 0.01440  0.09030  0.75290  Biso   1.000  H
  H258     1.0000 0.98560  0.09030  0.74710  Biso   1.000  H
  H259     1.0000 0.51440  0.59030  0.75290  Biso   1.000  H
  H260     1.0000 0.48560  0.59030  0.74710  Biso   1.000  H
  H261     1.0000 0.98560  0.90970  0.24710  Biso   1.000  H
  H262     1.0000 0.01440  0.90970  0.25290  Biso   1.000  H
  H263     1.0000 0.48560  0.40970  0.24710  Biso   1.000  H
  H264     1.0000 0.51440  0.40970  0.25290  Biso   1.000  H
  H265     1.0000 0.97570  0.04180  0.80200  Biso   1.000  H
  H266     1.0000 0.02430  0.04180  0.69800  Biso   1.000  H
  H267     1.0000 0.47570  0.54180  0.80200  Biso   1.000  H
  H268     1.0000 0.52430  0.54180  0.69800  Biso   1.000  H
  H269     1.0000 0.02430  0.95820  0.19800  Biso   1.000  H
  H270     1.0000 0.97570  0.95820  0.30200  Biso   1.000  H
  H271     1.0000 0.52430  0.45820  0.19800  Biso   1.000  H
  H272     1.0000 0.47570  0.45820  0.30200  Biso   1.000  H
