data_image0
_cell_length_a       14.1878
_cell_length_b       13.3086
_cell_length_c       40.4807
_cell_angle_alpha    90
_cell_angle_beta     90.608
_cell_angle_gamma    90

_symmetry_space_group_name_H-M    "P 1"
_symmetry_int_tables_number       1

loop_
  _symmetry_equiv_pos_as_xyz
  'x, y, z'

loop_
  _atom_site_label
  _atom_site_occupancy
  _atom_site_fract_x
  _atom_site_fract_y
  _atom_site_fract_z
  _atom_site_thermal_displace_type
  _atom_site_B_iso_or_equiv
  _atom_site_type_symbol
  Cu1      1.0000 0.72212  0.24860  0.38447  Biso   1.000  Cu
  Cu2      1.0000 0.27788  0.24860  0.11553  Biso   1.000  Cu
  Cu3      1.0000 0.22212  0.74860  0.38447  Biso   1.000  Cu
  Cu4      1.0000 0.77788  0.74860  0.11553  Biso   1.000  Cu
  Cu5      1.0000 0.27788  0.75140  0.61553  Biso   1.000  Cu
  Cu6      1.0000 0.72212  0.75140  0.88447  Biso   1.000  Cu
  Cu7      1.0000 0.77788  0.25140  0.61553  Biso   1.000  Cu
  Cu8      1.0000 0.22212  0.25140  0.88447  Biso   1.000  Cu
  S1       1.0000 0.60320  0.01243  0.41680  Biso   1.000  S
  S2       1.0000 0.39680  0.01243  0.08320  Biso   1.000  S
  S3       1.0000 0.10320  0.51243  0.41680  Biso   1.000  S
  S4       1.0000 0.89680  0.51243  0.08320  Biso   1.000  S
  S5       1.0000 0.39680  0.98757  0.58320  Biso   1.000  S
  S6       1.0000 0.60320  0.98757  0.91680  Biso   1.000  S
  S7       1.0000 0.89680  0.48757  0.58320  Biso   1.000  S
  S8       1.0000 0.10320  0.48757  0.91680  Biso   1.000  S
  N1       1.0000 0.78250  0.09490  0.29874  Biso   1.000  N
  N2       1.0000 0.21750  0.09490  0.20126  Biso   1.000  N
  N3       1.0000 0.28250  0.59490  0.29874  Biso   1.000  N
  N4       1.0000 0.71750  0.59490  0.20126  Biso   1.000  N
  N5       1.0000 0.21750  0.90510  0.70126  Biso   1.000  N
  N6       1.0000 0.78250  0.90510  0.79874  Biso   1.000  N
  N7       1.0000 0.71750  0.40510  0.70126  Biso   1.000  N
  N8       1.0000 0.28250  0.40510  0.79874  Biso   1.000  N
  N9       1.0000 0.97340  0.87400  0.34823  Biso   1.000  N
  N10      1.0000 0.02660  0.87400  0.15177  Biso   1.000  N
  N11      1.0000 0.47340  0.37400  0.34823  Biso   1.000  N
  N12      1.0000 0.52660  0.37400  0.15177  Biso   1.000  N
  N13      1.0000 0.02660  0.12600  0.65177  Biso   1.000  N
  N14      1.0000 0.97340  0.12600  0.84823  Biso   1.000  N
  N15      1.0000 0.52660  0.62600  0.65177  Biso   1.000  N
  N16      1.0000 0.47340  0.62600  0.84823  Biso   1.000  N
  N17      1.0000 0.72860  0.16270  0.34411  Biso   1.000  N
  N18      1.0000 0.27140  0.16270  0.15589  Biso   1.000  N
  N19      1.0000 0.22860  0.66270  0.34411  Biso   1.000  N
  N20      1.0000 0.77140  0.66270  0.15589  Biso   1.000  N
  N21      1.0000 0.27140  0.83730  0.65589  Biso   1.000  N
  N22      1.0000 0.72860  0.83730  0.84411  Biso   1.000  N
  N23      1.0000 0.77140  0.33730  0.65589  Biso   1.000  N
  N24      1.0000 0.22860  0.33730  0.84411  Biso   1.000  N
  O1       1.0000 0.64410  0.11100  0.41677  Biso   1.000  O
  O2       1.0000 0.35590  0.11100  0.08323  Biso   1.000  O
  O3       1.0000 0.14410  0.61100  0.41677  Biso   1.000  O
  O4       1.0000 0.85590  0.61100  0.08323  Biso   1.000  O
  O5       1.0000 0.35590  0.88900  0.58323  Biso   1.000  O
  O6       1.0000 0.64410  0.88900  0.91677  Biso   1.000  O
  O7       1.0000 0.85590  0.38900  0.58323  Biso   1.000  O
  O8       1.0000 0.14410  0.38900  0.91677  Biso   1.000  O
  N25      1.0000 0.09150  0.79520  0.37166  Biso   1.000  N
  N26      1.0000 0.90850  0.79520  0.12834  Biso   1.000  N
  N27      1.0000 0.59150  0.29520  0.37166  Biso   1.000  N
  N28      1.0000 0.40850  0.29520  0.12834  Biso   1.000  N
  N29      1.0000 0.90850  0.20480  0.62834  Biso   1.000  N
  N30      1.0000 0.09150  0.20480  0.87166  Biso   1.000  N
  N31      1.0000 0.40850  0.70480  0.62834  Biso   1.000  N
  N32      1.0000 0.59150  0.70480  0.87166  Biso   1.000  N
  O9       1.0000 0.66760  0.93050  0.41919  Biso   1.000  O
  O10      1.0000 0.33240  0.93050  0.08081  Biso   1.000  O
  O11      1.0000 0.16760  0.43050  0.41919  Biso   1.000  O
  O12      1.0000 0.83240  0.43050  0.08081  Biso   1.000  O
  O13      1.0000 0.33240  0.06950  0.58081  Biso   1.000  O
  O14      1.0000 0.66760  0.06950  0.91919  Biso   1.000  O
  O15      1.0000 0.83240  0.56950  0.58081  Biso   1.000  O
  O16      1.0000 0.16760  0.56950  0.91919  Biso   1.000  O
  F1       1.0000 0.47680  0.08020  0.45655  Biso   1.000  F
  F2       1.0000 0.52320  0.08020  0.04345  Biso   1.000  F
  F3       1.0000 0.97680  0.58020  0.45655  Biso   1.000  F
  F4       1.0000 0.02320  0.58020  0.04345  Biso   1.000  F
  F5       1.0000 0.52320  0.91980  0.54345  Biso   1.000  F
  F6       1.0000 0.47680  0.91980  0.95655  Biso   1.000  F
  F7       1.0000 0.02320  0.41980  0.54345  Biso   1.000  F
  F8       1.0000 0.97680  0.41980  0.95655  Biso   1.000  F
  N33      1.0000 0.48550  0.66430  0.41986  Biso   1.000  N
  N34      1.0000 0.51450  0.66430  0.08014  Biso   1.000  N
  N35      1.0000 0.98550  0.16430  0.41986  Biso   1.000  N
  N36      1.0000 0.01450  0.16430  0.08014  Biso   1.000  N
  N37      1.0000 0.51450  0.33570  0.58014  Biso   1.000  N
  N38      1.0000 0.48550  0.33570  0.91986  Biso   1.000  N
  N39      1.0000 0.01450  0.83570  0.58014  Biso   1.000  N
  N40      1.0000 0.98550  0.83570  0.91986  Biso   1.000  N
  F9       1.0000 0.49160  0.92180  0.45799  Biso   1.000  F
  F10      1.0000 0.50840  0.92180  0.04201  Biso   1.000  F
  F11      1.0000 0.99160  0.42180  0.45799  Biso   1.000  F
  F12      1.0000 0.00840  0.42180  0.04201  Biso   1.000  F
  F13      1.0000 0.50840  0.07820  0.54201  Biso   1.000  F
  F14      1.0000 0.49160  0.07820  0.95799  Biso   1.000  F
  F15      1.0000 0.00840  0.57820  0.54201  Biso   1.000  F
  F16      1.0000 0.99160  0.57820  0.95799  Biso   1.000  F
  N41      1.0000 0.73900  0.48270  0.45201  Biso   1.000  N
  N42      1.0000 0.26100  0.48270  0.04799  Biso   1.000  N
  N43      1.0000 0.23900  0.98270  0.45201  Biso   1.000  N
  N44      1.0000 0.76100  0.98270  0.04799  Biso   1.000  N
  N45      1.0000 0.26100  0.51730  0.54799  Biso   1.000  N
  N46      1.0000 0.73900  0.51730  0.95201  Biso   1.000  N
  N47      1.0000 0.76100  0.01730  0.54799  Biso   1.000  N
  N48      1.0000 0.23900  0.01730  0.95201  Biso   1.000  N
  F17      1.0000 0.59800  0.01690  0.48028  Biso   1.000  F
  F18      1.0000 0.40200  0.01690  0.01972  Biso   1.000  F
  F19      1.0000 0.09800  0.51690  0.48028  Biso   1.000  F
  F20      1.0000 0.90200  0.51690  0.01972  Biso   1.000  F
  F21      1.0000 0.40200  0.98310  0.51972  Biso   1.000  F
  F22      1.0000 0.59800  0.98310  0.98028  Biso   1.000  F
  F23      1.0000 0.90200  0.48310  0.51972  Biso   1.000  F
  F24      1.0000 0.09800  0.48310  0.98028  Biso   1.000  F
  N49      1.0000 0.34430  0.68810  0.40049  Biso   1.000  N
  N50      1.0000 0.65570  0.68810  0.09951  Biso   1.000  N
  N51      1.0000 0.84430  0.18810  0.40049  Biso   1.000  N
  N52      1.0000 0.15570  0.18810  0.09951  Biso   1.000  N
  N53      1.0000 0.65570  0.31190  0.59951  Biso   1.000  N
  N54      1.0000 0.34430  0.31190  0.90049  Biso   1.000  N
  N55      1.0000 0.15570  0.81190  0.59951  Biso   1.000  N
  N56      1.0000 0.84430  0.81190  0.90049  Biso   1.000  N
  N57      1.0000 0.72520  0.34520  0.42236  Biso   1.000  N
  N58      1.0000 0.27480  0.34520  0.07764  Biso   1.000  N
  N59      1.0000 0.22520  0.84520  0.42236  Biso   1.000  N
  N60      1.0000 0.77480  0.84520  0.07764  Biso   1.000  N
  N61      1.0000 0.27480  0.65480  0.57764  Biso   1.000  N
  N62      1.0000 0.72520  0.65480  0.92236  Biso   1.000  N
  N63      1.0000 0.77480  0.15480  0.57764  Biso   1.000  N
  N64      1.0000 0.22520  0.15480  0.92236  Biso   1.000  N
  C1       1.0000 0.85770  0.95440  0.26793  Biso   1.000  C
  C2       1.0000 0.14230  0.95440  0.23207  Biso   1.000  C
  C3       1.0000 0.35770  0.45440  0.26793  Biso   1.000  C
  C4       1.0000 0.64230  0.45440  0.23207  Biso   1.000  C
  C5       1.0000 0.14230  0.04560  0.73207  Biso   1.000  C
  C6       1.0000 0.85770  0.04560  0.76793  Biso   1.000  C
  C7       1.0000 0.64230  0.54560  0.73207  Biso   1.000  C
  C8       1.0000 0.35770  0.54560  0.76793  Biso   1.000  C
  C9       1.0000 0.84900  0.06730  0.27216  Biso   1.000  C
  C10      1.0000 0.15100  0.06730  0.22784  Biso   1.000  C
  C11      1.0000 0.34900  0.56730  0.27216  Biso   1.000  C
  C12      1.0000 0.65100  0.56730  0.22784  Biso   1.000  C
  C13      1.0000 0.15100  0.93270  0.72784  Biso   1.000  C
  C14      1.0000 0.84900  0.93270  0.77216  Biso   1.000  C
  C15      1.0000 0.65100  0.43270  0.72784  Biso   1.000  C
  C16      1.0000 0.34900  0.43270  0.77216  Biso   1.000  C
  H1       1.0000 0.91190  0.09570  0.27740  Biso   1.000  H
  H2       1.0000 0.08810  0.09570  0.22260  Biso   1.000  H
  H3       1.0000 0.41190  0.59570  0.27740  Biso   1.000  H
  H4       1.0000 0.58810  0.59570  0.22260  Biso   1.000  H
  H5       1.0000 0.08810  0.90430  0.72260  Biso   1.000  H
  H6       1.0000 0.91190  0.90430  0.77740  Biso   1.000  H
  H7       1.0000 0.58810  0.40430  0.72260  Biso   1.000  H
  H8       1.0000 0.41190  0.40430  0.77740  Biso   1.000  H
  H9       1.0000 0.82690  0.09720  0.25110  Biso   1.000  H
  H10      1.0000 0.17310  0.09720  0.24890  Biso   1.000  H
  H11      1.0000 0.32690  0.59720  0.25110  Biso   1.000  H
  H12      1.0000 0.67310  0.59720  0.24890  Biso   1.000  H
  H13      1.0000 0.17310  0.90280  0.74890  Biso   1.000  H
  H14      1.0000 0.82690  0.90280  0.75110  Biso   1.000  H
  H15      1.0000 0.67310  0.40280  0.74890  Biso   1.000  H
  H16      1.0000 0.32690  0.40280  0.75110  Biso   1.000  H
  C17      1.0000 0.89500  0.89340  0.29291  Biso   1.000  C
  C18      1.0000 0.10500  0.89340  0.20709  Biso   1.000  C
  C19      1.0000 0.39500  0.39340  0.29291  Biso   1.000  C
  C20      1.0000 0.60500  0.39340  0.20709  Biso   1.000  C
  C21      1.0000 0.10500  0.10660  0.70709  Biso   1.000  C
  C22      1.0000 0.89500  0.10660  0.79291  Biso   1.000  C
  C23      1.0000 0.60500  0.60660  0.70709  Biso   1.000  C
  C24      1.0000 0.39500  0.60660  0.79291  Biso   1.000  C
  C25      1.0000 0.80240  0.15490  0.32459  Biso   1.000  C
  C26      1.0000 0.19760  0.15490  0.17541  Biso   1.000  C
  C27      1.0000 0.30240  0.65490  0.32459  Biso   1.000  C
  C28      1.0000 0.69760  0.65490  0.17541  Biso   1.000  C
  C29      1.0000 0.19760  0.84510  0.67541  Biso   1.000  C
  C30      1.0000 0.80240  0.84510  0.82459  Biso   1.000  C
  C31      1.0000 0.69760  0.34510  0.67541  Biso   1.000  C
  C32      1.0000 0.30240  0.34510  0.82459  Biso   1.000  C
  H17      1.0000 0.86130  0.18720  0.32830  Biso   1.000  H
  H18      1.0000 0.13870  0.18720  0.17170  Biso   1.000  H
  H19      1.0000 0.36130  0.68720  0.32830  Biso   1.000  H
  H20      1.0000 0.63870  0.68720  0.17170  Biso   1.000  H
  H21      1.0000 0.13870  0.81280  0.67170  Biso   1.000  H
  H22      1.0000 0.86130  0.81280  0.82830  Biso   1.000  H
  H23      1.0000 0.63870  0.31280  0.67170  Biso   1.000  H
  H24      1.0000 0.36130  0.31280  0.82830  Biso   1.000  H
  C33      1.0000 0.69200  0.06240  0.30187  Biso   1.000  C
  C34      1.0000 0.30800  0.06240  0.19813  Biso   1.000  C
  C35      1.0000 0.19200  0.56240  0.30187  Biso   1.000  C
  C36      1.0000 0.80800  0.56240  0.19813  Biso   1.000  C
  C37      1.0000 0.30800  0.93760  0.69813  Biso   1.000  C
  C38      1.0000 0.69200  0.93760  0.80187  Biso   1.000  C
  C39      1.0000 0.80800  0.43760  0.69813  Biso   1.000  C
  C40      1.0000 0.19200  0.43760  0.80187  Biso   1.000  C
  H25      1.0000 0.65880  0.01850  0.28730  Biso   1.000  H
  H26      1.0000 0.34120  0.01850  0.21270  Biso   1.000  H
  H27      1.0000 0.15880  0.51850  0.28730  Biso   1.000  H
  H28      1.0000 0.84120  0.51850  0.21270  Biso   1.000  H
  H29      1.0000 0.34120  0.98150  0.71270  Biso   1.000  H
  H30      1.0000 0.65880  0.98150  0.78730  Biso   1.000  H
  H31      1.0000 0.84120  0.48150  0.71270  Biso   1.000  H
  H32      1.0000 0.15880  0.48150  0.78730  Biso   1.000  H
  C41      1.0000 0.87580  0.74990  0.25777  Biso   1.000  C
  C42      1.0000 0.12420  0.74990  0.24223  Biso   1.000  C
  C43      1.0000 0.37580  0.24990  0.25777  Biso   1.000  C
  C44      1.0000 0.62420  0.24990  0.24223  Biso   1.000  C
  C45      1.0000 0.12420  0.25010  0.74223  Biso   1.000  C
  C46      1.0000 0.87580  0.25010  0.75777  Biso   1.000  C
  C47      1.0000 0.62420  0.75010  0.74223  Biso   1.000  C
  C48      1.0000 0.37580  0.75010  0.75777  Biso   1.000  C
  H33      1.0000 0.88200  0.67960  0.25420  Biso   1.000  H
  H34      1.0000 0.11800  0.67960  0.24580  Biso   1.000  H
  H35      1.0000 0.38200  0.17960  0.25420  Biso   1.000  H
  H36      1.0000 0.61800  0.17960  0.24580  Biso   1.000  H
  H37      1.0000 0.11800  0.32040  0.74580  Biso   1.000  H
  H38      1.0000 0.88200  0.32040  0.75420  Biso   1.000  H
  H39      1.0000 0.61800  0.82040  0.74580  Biso   1.000  H
  H40      1.0000 0.38200  0.82040  0.75420  Biso   1.000  H
  C49      1.0000 0.82860  0.91150  0.23862  Biso   1.000  C
  C50      1.0000 0.17140  0.91150  0.26138  Biso   1.000  C
  C51      1.0000 0.32860  0.41150  0.23862  Biso   1.000  C
  C52      1.0000 0.67140  0.41150  0.26138  Biso   1.000  C
  C53      1.0000 0.17140  0.08850  0.76138  Biso   1.000  C
  C54      1.0000 0.82860  0.08850  0.73862  Biso   1.000  C
  C55      1.0000 0.67140  0.58850  0.76138  Biso   1.000  C
  C56      1.0000 0.32860  0.58850  0.73862  Biso   1.000  C
  H41      1.0000 0.80200  0.95260  0.22170  Biso   1.000  H
  H42      1.0000 0.19800  0.95260  0.27830  Biso   1.000  H
  H43      1.0000 0.30200  0.45260  0.22170  Biso   1.000  H
  H44      1.0000 0.69800  0.45260  0.27830  Biso   1.000  H
  H45      1.0000 0.19800  0.04740  0.77830  Biso   1.000  H
  H46      1.0000 0.80200  0.04740  0.72170  Biso   1.000  H
  H47      1.0000 0.69800  0.54740  0.77830  Biso   1.000  H
  H48      1.0000 0.30200  0.54740  0.72170  Biso   1.000  H
  C57      1.0000 0.06810  0.86290  0.34987  Biso   1.000  C
  C58      1.0000 0.93190  0.86290  0.15013  Biso   1.000  C
  C59      1.0000 0.56810  0.36290  0.34987  Biso   1.000  C
  C60      1.0000 0.43190  0.36290  0.15013  Biso   1.000  C
  C61      1.0000 0.93190  0.13710  0.65013  Biso   1.000  C
  C62      1.0000 0.06810  0.13710  0.84987  Biso   1.000  C
  C63      1.0000 0.43190  0.63710  0.65013  Biso   1.000  C
  C64      1.0000 0.56810  0.63710  0.84987  Biso   1.000  C
  H49      1.0000 0.11170  0.89950  0.33690  Biso   1.000  H
  H50      1.0000 0.88830  0.89950  0.16310  Biso   1.000  H
  H51      1.0000 0.61170  0.39950  0.33690  Biso   1.000  H
  H52      1.0000 0.38830  0.39950  0.16310  Biso   1.000  H
  H53      1.0000 0.88830  0.10050  0.66310  Biso   1.000  H
  H54      1.0000 0.11170  0.10050  0.83690  Biso   1.000  H
  H55      1.0000 0.38830  0.60050  0.66310  Biso   1.000  H
  H56      1.0000 0.61170  0.60050  0.83690  Biso   1.000  H
  O17      1.0000 0.52750  0.00030  0.39276  Biso   1.000  O
  O18      1.0000 0.47250  0.00030  0.10724  Biso   1.000  O
  O19      1.0000 0.02750  0.50030  0.39276  Biso   1.000  O
  O20      1.0000 0.97250  0.50030  0.10724  Biso   1.000  O
  O21      1.0000 0.47250  0.99970  0.60724  Biso   1.000  O
  O22      1.0000 0.52750  0.99970  0.89276  Biso   1.000  O
  O23      1.0000 0.97250  0.49970  0.60724  Biso   1.000  O
  O24      1.0000 0.02750  0.49970  0.89276  Biso   1.000  O
  C65      1.0000 0.90530  0.79170  0.28746  Biso   1.000  C
  C66      1.0000 0.09470  0.79170  0.21254  Biso   1.000  C
  C67      1.0000 0.40530  0.29170  0.28746  Biso   1.000  C
  C68      1.0000 0.59470  0.29170  0.21254  Biso   1.000  C
  C69      1.0000 0.09470  0.20830  0.71254  Biso   1.000  C
  C70      1.0000 0.90530  0.20830  0.78746  Biso   1.000  C
  C71      1.0000 0.59470  0.70830  0.71254  Biso   1.000  C
  C72      1.0000 0.40530  0.70830  0.78746  Biso   1.000  C
  H57      1.0000 0.93260  0.75030  0.30410  Biso   1.000  H
  H58      1.0000 0.06740  0.75030  0.19590  Biso   1.000  H
  H59      1.0000 0.43260  0.25030  0.30410  Biso   1.000  H
  H60      1.0000 0.56740  0.25030  0.19590  Biso   1.000  H
  H61      1.0000 0.06740  0.24970  0.69590  Biso   1.000  H
  H62      1.0000 0.93260  0.24970  0.80410  Biso   1.000  H
  H63      1.0000 0.56740  0.74970  0.69590  Biso   1.000  H
  H64      1.0000 0.43260  0.74970  0.80410  Biso   1.000  H
  N65      1.0000 0.80240  0.38280  0.35006  Biso   1.000  N
  N66      1.0000 0.19760  0.38280  0.14994  Biso   1.000  N
  N67      1.0000 0.30240  0.88280  0.35006  Biso   1.000  N
  N68      1.0000 0.69760  0.88280  0.14994  Biso   1.000  N
  N69      1.0000 0.19760  0.61720  0.64994  Biso   1.000  N
  N70      1.0000 0.80240  0.61720  0.85006  Biso   1.000  N
  N71      1.0000 0.69760  0.11720  0.64994  Biso   1.000  N
  N72      1.0000 0.30240  0.11720  0.85006  Biso   1.000  N
  C73      1.0000 0.83780  0.80950  0.23352  Biso   1.000  C
  C74      1.0000 0.16220  0.80950  0.26648  Biso   1.000  C
  C75      1.0000 0.33780  0.30950  0.23352  Biso   1.000  C
  C76      1.0000 0.66220  0.30950  0.26648  Biso   1.000  C
  C77      1.0000 0.16220  0.19050  0.76648  Biso   1.000  C
  C78      1.0000 0.83780  0.19050  0.73352  Biso   1.000  C
  C79      1.0000 0.66220  0.69050  0.76648  Biso   1.000  C
  C80      1.0000 0.33780  0.69050  0.73352  Biso   1.000  C
  H65      1.0000 0.81770  0.78070  0.21320  Biso   1.000  H
  H66      1.0000 0.18230  0.78070  0.28680  Biso   1.000  H
  H67      1.0000 0.31770  0.28070  0.21320  Biso   1.000  H
  H68      1.0000 0.68230  0.28070  0.28680  Biso   1.000  H
  H69      1.0000 0.18230  0.21930  0.78680  Biso   1.000  H
  H70      1.0000 0.81770  0.21930  0.71320  Biso   1.000  H
  H71      1.0000 0.68230  0.71930  0.78680  Biso   1.000  H
  H72      1.0000 0.31770  0.71930  0.71320  Biso   1.000  H
  C81      1.0000 0.65860  0.10480  0.32971  Biso   1.000  C
  C82      1.0000 0.34140  0.10480  0.17029  Biso   1.000  C
  C83      1.0000 0.15860  0.60480  0.32971  Biso   1.000  C
  C84      1.0000 0.84140  0.60480  0.17029  Biso   1.000  C
  C85      1.0000 0.34140  0.89520  0.67029  Biso   1.000  C
  C86      1.0000 0.65860  0.89520  0.82971  Biso   1.000  C
  C87      1.0000 0.84140  0.39520  0.67029  Biso   1.000  C
  C88      1.0000 0.15860  0.39520  0.82971  Biso   1.000  C
  H73      1.0000 0.59670  0.09620  0.33810  Biso   1.000  H
  H74      1.0000 0.40330  0.09620  0.16190  Biso   1.000  H
  H75      1.0000 0.09670  0.59620  0.33810  Biso   1.000  H
  H76      1.0000 0.90330  0.59620  0.16190  Biso   1.000  H
  H77      1.0000 0.40330  0.90380  0.66190  Biso   1.000  H
  H78      1.0000 0.59670  0.90380  0.83810  Biso   1.000  H
  H79      1.0000 0.90330  0.40380  0.66190  Biso   1.000  H
  H80      1.0000 0.09670  0.40380  0.83810  Biso   1.000  H
  C89      1.0000 0.73330  0.44410  0.42169  Biso   1.000  C
  C90      1.0000 0.26670  0.44410  0.07831  Biso   1.000  C
  C91      1.0000 0.23330  0.94410  0.42169  Biso   1.000  C
  C92      1.0000 0.76670  0.94410  0.07831  Biso   1.000  C
  C93      1.0000 0.26670  0.55590  0.57831  Biso   1.000  C
  C94      1.0000 0.73330  0.55590  0.92169  Biso   1.000  C
  C95      1.0000 0.76670  0.05590  0.57831  Biso   1.000  C
  C96      1.0000 0.23330  0.05590  0.92169  Biso   1.000  C
  H81      1.0000 0.73490  0.48300  0.40200  Biso   1.000  H
  H82      1.0000 0.26510  0.48300  0.09800  Biso   1.000  H
  H83      1.0000 0.23490  0.98300  0.40200  Biso   1.000  H
  H84      1.0000 0.76510  0.98300  0.09800  Biso   1.000  H
  H85      1.0000 0.26510  0.51700  0.59800  Biso   1.000  H
  H86      1.0000 0.73490  0.51700  0.90200  Biso   1.000  H
  H87      1.0000 0.76510  0.01700  0.59800  Biso   1.000  H
  H88      1.0000 0.23490  0.01700  0.90200  Biso   1.000  H
  C97      1.0000 0.68600  0.62940  0.51634  Biso   1.000  C
  C98      1.0000 0.31400  0.62940  0.98366  Biso   1.000  C
  C99      1.0000 0.18600  0.12940  0.51634  Biso   1.000  C
  C100     1.0000 0.81400  0.12940  0.98366  Biso   1.000  C
  C101     1.0000 0.31400  0.37060  0.48366  Biso   1.000  C
  C102     1.0000 0.68600  0.37060  0.01634  Biso   1.000  C
  C103     1.0000 0.81400  0.87060  0.48366  Biso   1.000  C
  C104     1.0000 0.18600  0.87060  0.01634  Biso   1.000  C
  H89      1.0000 0.74410  0.60730  0.52570  Biso   1.000  H
  H90      1.0000 0.25590  0.60730  0.97430  Biso   1.000  H
  H91      1.0000 0.24410  0.10730  0.52570  Biso   1.000  H
  H92      1.0000 0.75590  0.10730  0.97430  Biso   1.000  H
  H93      1.0000 0.25590  0.39270  0.47430  Biso   1.000  H
  H94      1.0000 0.74410  0.39270  0.02570  Biso   1.000  H
  H95      1.0000 0.75590  0.89270  0.47430  Biso   1.000  H
  H96      1.0000 0.24410  0.89270  0.02570  Biso   1.000  H
  C105     1.0000 0.92130  0.94090  0.32597  Biso   1.000  C
  C106     1.0000 0.07870  0.94090  0.17403  Biso   1.000  C
  C107     1.0000 0.42130  0.44090  0.32597  Biso   1.000  C
  C108     1.0000 0.57870  0.44090  0.17403  Biso   1.000  C
  C109     1.0000 0.07870  0.05910  0.67403  Biso   1.000  C
  C110     1.0000 0.92130  0.05910  0.82597  Biso   1.000  C
  C111     1.0000 0.57870  0.55910  0.67403  Biso   1.000  C
  C112     1.0000 0.42130  0.55910  0.82597  Biso   1.000  C
  H97      1.0000 0.96000  0.00140  0.32190  Biso   1.000  H
  H98      1.0000 0.04000  0.00140  0.17810  Biso   1.000  H
  H99      1.0000 0.46000  0.50140  0.32190  Biso   1.000  H
  H100     1.0000 0.54000  0.50140  0.17810  Biso   1.000  H
  H101     1.0000 0.04000  0.99860  0.67810  Biso   1.000  H
  H102     1.0000 0.96000  0.99860  0.82190  Biso   1.000  H
  H103     1.0000 0.54000  0.49860  0.67810  Biso   1.000  H
  H104     1.0000 0.46000  0.49860  0.82190  Biso   1.000  H
  H105     1.0000 0.86290  0.96290  0.33700  Biso   1.000  H
  H106     1.0000 0.13710  0.96290  0.16300  Biso   1.000  H
  H107     1.0000 0.36290  0.46290  0.33700  Biso   1.000  H
  H108     1.0000 0.63710  0.46290  0.16300  Biso   1.000  H
  H109     1.0000 0.13710  0.03710  0.66300  Biso   1.000  H
  H110     1.0000 0.86290  0.03710  0.83700  Biso   1.000  H
  H111     1.0000 0.63710  0.53710  0.66300  Biso   1.000  H
  H112     1.0000 0.36290  0.53710  0.83700  Biso   1.000  H
  C113     1.0000 0.67630  0.63030  0.48191  Biso   1.000  C
  C114     1.0000 0.32370  0.63030  0.01809  Biso   1.000  C
  C115     1.0000 0.17630  0.13030  0.48191  Biso   1.000  C
  C116     1.0000 0.82370  0.13030  0.01809  Biso   1.000  C
  C117     1.0000 0.32370  0.36970  0.51809  Biso   1.000  C
  C118     1.0000 0.67630  0.36970  0.98191  Biso   1.000  C
  C119     1.0000 0.82370  0.86970  0.51809  Biso   1.000  C
  C120     1.0000 0.17630  0.86970  0.98191  Biso   1.000  C
  C121     1.0000 0.59550  0.67180  0.46827  Biso   1.000  C
  C122     1.0000 0.40450  0.67180  0.03173  Biso   1.000  C
  C123     1.0000 0.09550  0.17180  0.46827  Biso   1.000  C
  C124     1.0000 0.90450  0.17180  0.03173  Biso   1.000  C
  C125     1.0000 0.40450  0.32820  0.53173  Biso   1.000  C
  C126     1.0000 0.59550  0.32820  0.96827  Biso   1.000  C
  C127     1.0000 0.90450  0.82820  0.53173  Biso   1.000  C
  C128     1.0000 0.09550  0.82820  0.96827  Biso   1.000  C
  C129     1.0000 0.00860  0.76150  0.38462  Biso   1.000  C
  C130     1.0000 0.99140  0.76150  0.11538  Biso   1.000  C
  C131     1.0000 0.50860  0.26150  0.38462  Biso   1.000  C
  C132     1.0000 0.49140  0.26150  0.11538  Biso   1.000  C
  C133     1.0000 0.99140  0.23850  0.61538  Biso   1.000  C
  C134     1.0000 0.00860  0.23850  0.88462  Biso   1.000  C
  C135     1.0000 0.49140  0.73850  0.61538  Biso   1.000  C
  C136     1.0000 0.50860  0.73850  0.88462  Biso   1.000  C
  H113     1.0000 0.00350  0.71160  0.40130  Biso   1.000  H
  H114     1.0000 0.99650  0.71160  0.09870  Biso   1.000  H
  H115     1.0000 0.50350  0.21160  0.40130  Biso   1.000  H
  H116     1.0000 0.49650  0.21160  0.09870  Biso   1.000  H
  H117     1.0000 0.99650  0.28840  0.59870  Biso   1.000  H
  H118     1.0000 0.00350  0.28840  0.90130  Biso   1.000  H
  H119     1.0000 0.49650  0.78840  0.59870  Biso   1.000  H
  H120     1.0000 0.50350  0.78840  0.90130  Biso   1.000  H
  C137     1.0000 0.93470  0.81000  0.37009  Biso   1.000  C
  C138     1.0000 0.06530  0.81000  0.12991  Biso   1.000  C
  C139     1.0000 0.43470  0.31000  0.37009  Biso   1.000  C
  C140     1.0000 0.56530  0.31000  0.12991  Biso   1.000  C
  C141     1.0000 0.06530  0.19000  0.62991  Biso   1.000  C
  C142     1.0000 0.93470  0.19000  0.87009  Biso   1.000  C
  C143     1.0000 0.56530  0.69000  0.62991  Biso   1.000  C
  C144     1.0000 0.43470  0.69000  0.87009  Biso   1.000  C
  H121     1.0000 0.86960  0.80080  0.37440  Biso   1.000  H
  H122     1.0000 0.13040  0.80080  0.12560  Biso   1.000  H
  H123     1.0000 0.36960  0.30080  0.37440  Biso   1.000  H
  H124     1.0000 0.63040  0.30080  0.12560  Biso   1.000  H
  H125     1.0000 0.13040  0.19920  0.62560  Biso   1.000  H
  H126     1.0000 0.86960  0.19920  0.87440  Biso   1.000  H
  H127     1.0000 0.63040  0.69920  0.62560  Biso   1.000  H
  H128     1.0000 0.36960  0.69920  0.87440  Biso   1.000  H
  C145     1.0000 0.75420  0.59040  0.46088  Biso   1.000  C
  C146     1.0000 0.24580  0.59040  0.03912  Biso   1.000  C
  C147     1.0000 0.25420  0.09040  0.46088  Biso   1.000  C
  C148     1.0000 0.74580  0.09040  0.03912  Biso   1.000  C
  C149     1.0000 0.24580  0.40960  0.53912  Biso   1.000  C
  C150     1.0000 0.75420  0.40960  0.96088  Biso   1.000  C
  C151     1.0000 0.74580  0.90960  0.53912  Biso   1.000  C
  C152     1.0000 0.25420  0.90960  0.96088  Biso   1.000  C
  H129     1.0000 0.75800  0.63090  0.44040  Biso   1.000  H
  H130     1.0000 0.24200  0.63090  0.05960  Biso   1.000  H
  H131     1.0000 0.25800  0.13090  0.44040  Biso   1.000  H
  H132     1.0000 0.74200  0.13090  0.05960  Biso   1.000  H
  H133     1.0000 0.24200  0.36910  0.55960  Biso   1.000  H
  H134     1.0000 0.75800  0.36910  0.94040  Biso   1.000  H
  H135     1.0000 0.74200  0.86910  0.55960  Biso   1.000  H
  H136     1.0000 0.25800  0.86910  0.94040  Biso   1.000  H
  H137     1.0000 0.81490  0.59730  0.47300  Biso   1.000  H
  H138     1.0000 0.18510  0.59730  0.02700  Biso   1.000  H
  H139     1.0000 0.31490  0.09730  0.47300  Biso   1.000  H
  H140     1.0000 0.68510  0.09730  0.02700  Biso   1.000  H
  H141     1.0000 0.18510  0.40270  0.52700  Biso   1.000  H
  H142     1.0000 0.81490  0.40270  0.97300  Biso   1.000  H
  H143     1.0000 0.68510  0.90270  0.52700  Biso   1.000  H
  H144     1.0000 0.31490  0.90270  0.97300  Biso   1.000  H
  C153     1.0000 0.73390  0.40420  0.47361  Biso   1.000  C
  C154     1.0000 0.26610  0.40420  0.02639  Biso   1.000  C
  C155     1.0000 0.23390  0.90420  0.47361  Biso   1.000  C
  C156     1.0000 0.76610  0.90420  0.02639  Biso   1.000  C
  C157     1.0000 0.26610  0.59580  0.52639  Biso   1.000  C
  C158     1.0000 0.73390  0.59580  0.97361  Biso   1.000  C
  C159     1.0000 0.76610  0.09580  0.52639  Biso   1.000  C
  C160     1.0000 0.23390  0.09580  0.97361  Biso   1.000  C
  H145     1.0000 0.73560  0.40820  0.49700  Biso   1.000  H
  H146     1.0000 0.26440  0.40820  0.00300  Biso   1.000  H
  H147     1.0000 0.23560  0.90820  0.49700  Biso   1.000  H
  H148     1.0000 0.76440  0.90820  0.00300  Biso   1.000  H
  H149     1.0000 0.26440  0.59180  0.50300  Biso   1.000  H
  H150     1.0000 0.73560  0.59180  0.99700  Biso   1.000  H
  H151     1.0000 0.76440  0.09180  0.50300  Biso   1.000  H
  H152     1.0000 0.23560  0.09180  0.99700  Biso   1.000  H
  C161     1.0000 0.42310  0.73260  0.40848  Biso   1.000  C
  C162     1.0000 0.57690  0.73260  0.09152  Biso   1.000  C
  C163     1.0000 0.92310  0.23260  0.40848  Biso   1.000  C
  C164     1.0000 0.07690  0.23260  0.09152  Biso   1.000  C
  C165     1.0000 0.57690  0.26740  0.59152  Biso   1.000  C
  C166     1.0000 0.42310  0.26740  0.90848  Biso   1.000  C
  C167     1.0000 0.07690  0.76740  0.59152  Biso   1.000  C
  C168     1.0000 0.92310  0.76740  0.90848  Biso   1.000  C
  H153     1.0000 0.43480  0.80260  0.40660  Biso   1.000  H
  H154     1.0000 0.56520  0.80260  0.09340  Biso   1.000  H
  H155     1.0000 0.93480  0.30260  0.40660  Biso   1.000  H
  H156     1.0000 0.06520  0.30260  0.09340  Biso   1.000  H
  H157     1.0000 0.56520  0.19740  0.59340  Biso   1.000  H
  H158     1.0000 0.43480  0.19740  0.90660  Biso   1.000  H
  H159     1.0000 0.06520  0.69740  0.59340  Biso   1.000  H
  H160     1.0000 0.93480  0.69740  0.90660  Biso   1.000  H
  C169     1.0000 0.52470  0.70030  0.48978  Biso   1.000  C
  C170     1.0000 0.47530  0.70030  0.01022  Biso   1.000  C
  C171     1.0000 0.02470  0.20030  0.48978  Biso   1.000  C
  C172     1.0000 0.97530  0.20030  0.01022  Biso   1.000  C
  C173     1.0000 0.47530  0.29970  0.51022  Biso   1.000  C
  C174     1.0000 0.52470  0.29970  0.98978  Biso   1.000  C
  C175     1.0000 0.97530  0.79970  0.51022  Biso   1.000  C
  C176     1.0000 0.02470  0.79970  0.98978  Biso   1.000  C
  H161     1.0000 0.46780  0.72680  0.48080  Biso   1.000  H
  H162     1.0000 0.53220  0.72680  0.01920  Biso   1.000  H
  H163     1.0000 0.96780  0.22680  0.48080  Biso   1.000  H
  H164     1.0000 0.03220  0.22680  0.01920  Biso   1.000  H
  H165     1.0000 0.53220  0.27320  0.51920  Biso   1.000  H
  H166     1.0000 0.46780  0.27320  0.98080  Biso   1.000  H
  H167     1.0000 0.03220  0.77320  0.51920  Biso   1.000  H
  H168     1.0000 0.96780  0.77320  0.98080  Biso   1.000  H
  C177     1.0000 0.58270  0.68830  0.43107  Biso   1.000  C
  C178     1.0000 0.41730  0.68830  0.06893  Biso   1.000  C
  C179     1.0000 0.08270  0.18830  0.43107  Biso   1.000  C
  C180     1.0000 0.91730  0.18830  0.06893  Biso   1.000  C
  C181     1.0000 0.41730  0.31170  0.56893  Biso   1.000  C
  C182     1.0000 0.58270  0.31170  0.93107  Biso   1.000  C
  C183     1.0000 0.91730  0.81170  0.56893  Biso   1.000  C
  C184     1.0000 0.08270  0.81170  0.93107  Biso   1.000  C
  H169     1.0000 0.59700  0.75920  0.42570  Biso   1.000  H
  H170     1.0000 0.40300  0.75920  0.07430  Biso   1.000  H
  H171     1.0000 0.09700  0.25920  0.42570  Biso   1.000  H
  H172     1.0000 0.90300  0.25920  0.07430  Biso   1.000  H
  H173     1.0000 0.40300  0.24080  0.57430  Biso   1.000  H
  H174     1.0000 0.59700  0.24080  0.92570  Biso   1.000  H
  H175     1.0000 0.90300  0.74080  0.57430  Biso   1.000  H
  H176     1.0000 0.09700  0.74080  0.92570  Biso   1.000  H
  H177     1.0000 0.62790  0.64530  0.41910  Biso   1.000  H
  H178     1.0000 0.37210  0.64530  0.08090  Biso   1.000  H
  H179     1.0000 0.12790  0.14530  0.41910  Biso   1.000  H
  H180     1.0000 0.87210  0.14530  0.08090  Biso   1.000  H
  H181     1.0000 0.37210  0.35470  0.58090  Biso   1.000  H
  H182     1.0000 0.62790  0.35470  0.91910  Biso   1.000  H
  H183     1.0000 0.87210  0.85470  0.58090  Biso   1.000  H
  H184     1.0000 0.12790  0.85470  0.91910  Biso   1.000  H
  C185     1.0000 0.84490  0.44660  0.34058  Biso   1.000  C
  C186     1.0000 0.15510  0.44660  0.15942  Biso   1.000  C
  C187     1.0000 0.34490  0.94660  0.34058  Biso   1.000  C
  C188     1.0000 0.65510  0.94660  0.15942  Biso   1.000  C
  C189     1.0000 0.15510  0.55340  0.65942  Biso   1.000  C
  C190     1.0000 0.84490  0.55340  0.84058  Biso   1.000  C
  C191     1.0000 0.65510  0.05340  0.65942  Biso   1.000  C
  C192     1.0000 0.34490  0.05340  0.84058  Biso   1.000  C
  C193     1.0000 0.35820  0.58630  0.40727  Biso   1.000  C
  C194     1.0000 0.64180  0.58630  0.09273  Biso   1.000  C
  C195     1.0000 0.85820  0.08630  0.40727  Biso   1.000  C
  C196     1.0000 0.14180  0.08630  0.09273  Biso   1.000  C
  C197     1.0000 0.64180  0.41370  0.59273  Biso   1.000  C
  C198     1.0000 0.35820  0.41370  0.90727  Biso   1.000  C
  C199     1.0000 0.14180  0.91370  0.59273  Biso   1.000  C
  C200     1.0000 0.85820  0.91370  0.90727  Biso   1.000  C
  H185     1.0000 0.31270  0.53470  0.40410  Biso   1.000  H
  H186     1.0000 0.68730  0.53470  0.09590  Biso   1.000  H
  H187     1.0000 0.81270  0.03470  0.40410  Biso   1.000  H
  H188     1.0000 0.18730  0.03470  0.09590  Biso   1.000  H
  H189     1.0000 0.68730  0.46530  0.59590  Biso   1.000  H
  H190     1.0000 0.31270  0.46530  0.90410  Biso   1.000  H
  H191     1.0000 0.18730  0.96530  0.59590  Biso   1.000  H
  H192     1.0000 0.81270  0.96530  0.90410  Biso   1.000  H
  C201     1.0000 0.53390  0.69170  0.52381  Biso   1.000  C
  C202     1.0000 0.46610  0.69170  0.97619  Biso   1.000  C
  C203     1.0000 0.03390  0.19170  0.52381  Biso   1.000  C
  C204     1.0000 0.96610  0.19170  0.97619  Biso   1.000  C
  C205     1.0000 0.46610  0.30830  0.47619  Biso   1.000  C
  C206     1.0000 0.53390  0.30830  0.02381  Biso   1.000  C
  C207     1.0000 0.96610  0.80830  0.47619  Biso   1.000  C
  C208     1.0000 0.03390  0.80830  0.02381  Biso   1.000  C
  H193     1.0000 0.48300  0.70880  0.53780  Biso   1.000  H
  H194     1.0000 0.51700  0.70880  0.96220  Biso   1.000  H
  H195     1.0000 0.98300  0.20880  0.53780  Biso   1.000  H
  H196     1.0000 0.01700  0.20880  0.96220  Biso   1.000  H
  H197     1.0000 0.51700  0.29120  0.46220  Biso   1.000  H
  H198     1.0000 0.48300  0.29120  0.03780  Biso   1.000  H
  H199     1.0000 0.01700  0.79120  0.46220  Biso   1.000  H
  H200     1.0000 0.98300  0.79120  0.03780  Biso   1.000  H
  C209     1.0000 0.72590  0.32060  0.45550  Biso   1.000  C
  C210     1.0000 0.27410  0.32060  0.04450  Biso   1.000  C
  C211     1.0000 0.22590  0.82060  0.45550  Biso   1.000  C
  C212     1.0000 0.77410  0.82060  0.04450  Biso   1.000  C
  C213     1.0000 0.27410  0.67940  0.54450  Biso   1.000  C
  C214     1.0000 0.72590  0.67940  0.95550  Biso   1.000  C
  C215     1.0000 0.77410  0.17940  0.54450  Biso   1.000  C
  C216     1.0000 0.22590  0.17940  0.95550  Biso   1.000  C
  H201     1.0000 0.72140  0.25430  0.46410  Biso   1.000  H
  H202     1.0000 0.27860  0.25430  0.03590  Biso   1.000  H
  H203     1.0000 0.22140  0.75430  0.46410  Biso   1.000  H
  H204     1.0000 0.77860  0.75430  0.03590  Biso   1.000  H
  H205     1.0000 0.27860  0.74570  0.53590  Biso   1.000  H
  H206     1.0000 0.72140  0.74570  0.96410  Biso   1.000  H
  H207     1.0000 0.77860  0.24570  0.53590  Biso   1.000  H
  H208     1.0000 0.22140  0.24570  0.96410  Biso   1.000  H
  C217     1.0000 0.61710  0.65820  0.53686  Biso   1.000  C
  C218     1.0000 0.38290  0.65820  0.96314  Biso   1.000  C
  C219     1.0000 0.11710  0.15820  0.53686  Biso   1.000  C
  C220     1.0000 0.88290  0.15820  0.96314  Biso   1.000  C
  C221     1.0000 0.38290  0.34180  0.46314  Biso   1.000  C
  C222     1.0000 0.61710  0.34180  0.03686  Biso   1.000  C
  C223     1.0000 0.88290  0.84180  0.46314  Biso   1.000  C
  C224     1.0000 0.11710  0.84180  0.03686  Biso   1.000  C
  H209     1.0000 0.62630  0.65530  0.56010  Biso   1.000  H
  H210     1.0000 0.37370  0.65530  0.93990  Biso   1.000  H
  H211     1.0000 0.12630  0.15530  0.56010  Biso   1.000  H
  H212     1.0000 0.87370  0.15530  0.93990  Biso   1.000  H
  H213     1.0000 0.37370  0.34470  0.43990  Biso   1.000  H
  H214     1.0000 0.62630  0.34470  0.06010  Biso   1.000  H
  H215     1.0000 0.87370  0.84470  0.43990  Biso   1.000  H
  H216     1.0000 0.12630  0.84470  0.06010  Biso   1.000  H
  C225     1.0000 0.44730  0.57300  0.41910  Biso   1.000  C
  C226     1.0000 0.55270  0.57300  0.08090  Biso   1.000  C
  C227     1.0000 0.94730  0.07300  0.41910  Biso   1.000  C
  C228     1.0000 0.05270  0.07300  0.08090  Biso   1.000  C
  C229     1.0000 0.55270  0.42700  0.58090  Biso   1.000  C
  C230     1.0000 0.44730  0.42700  0.91910  Biso   1.000  C
  C231     1.0000 0.05270  0.92700  0.58090  Biso   1.000  C
  C232     1.0000 0.94730  0.92700  0.91910  Biso   1.000  C
  H217     1.0000 0.47620  0.51150  0.42550  Biso   1.000  H
  H218     1.0000 0.52380  0.51150  0.07450  Biso   1.000  H
  H219     1.0000 0.97620  0.01150  0.42550  Biso   1.000  H
  H220     1.0000 0.02380  0.01150  0.07450  Biso   1.000  H
  H221     1.0000 0.52380  0.48850  0.57450  Biso   1.000  H
  H222     1.0000 0.47620  0.48850  0.92550  Biso   1.000  H
  H223     1.0000 0.02380  0.98850  0.57450  Biso   1.000  H
  H224     1.0000 0.97620  0.98850  0.92550  Biso   1.000  H
  C233     1.0000 0.53930  0.00720  0.45495  Biso   1.000  C
  C234     1.0000 0.46070  0.00720  0.04505  Biso   1.000  C
  C235     1.0000 0.03930  0.50720  0.45495  Biso   1.000  C
  C236     1.0000 0.96070  0.50720  0.04505  Biso   1.000  C
  C237     1.0000 0.46070  0.99280  0.54505  Biso   1.000  C
  C238     1.0000 0.53930  0.99280  0.95495  Biso   1.000  C
  C239     1.0000 0.96070  0.49280  0.54505  Biso   1.000  C
  C240     1.0000 0.03930  0.49280  0.95495  Biso   1.000  C
  C241     1.0000 0.89870  0.53170  0.32920  Biso   1.000  C
  C242     1.0000 0.10130  0.53170  0.17080  Biso   1.000  C
  C243     1.0000 0.39870  0.03170  0.32920  Biso   1.000  C
  C244     1.0000 0.60130  0.03170  0.17080  Biso   1.000  C
  C245     1.0000 0.10130  0.46830  0.67080  Biso   1.000  C
  C246     1.0000 0.89870  0.46830  0.82920  Biso   1.000  C
  C247     1.0000 0.60130  0.96830  0.67080  Biso   1.000  C
  C248     1.0000 0.39870  0.96830  0.82920  Biso   1.000  C
  H225     1.0000 0.96280  0.51000  0.32390  Biso   1.000  H
  H226     1.0000 0.03720  0.51000  0.17610  Biso   1.000  H
  H227     1.0000 0.46280  0.01000  0.32390  Biso   1.000  H
  H228     1.0000 0.53720  0.01000  0.17610  Biso   1.000  H
  H229     1.0000 0.03720  0.49000  0.67610  Biso   1.000  H
  H230     1.0000 0.96280  0.49000  0.82390  Biso   1.000  H
  H231     1.0000 0.53720  0.99000  0.67610  Biso   1.000  H
  H232     1.0000 0.46280  0.99000  0.82390  Biso   1.000  H
  H233     1.0000 0.90140  0.58300  0.34650  Biso   1.000  H
  H234     1.0000 0.09860  0.58300  0.15350  Biso   1.000  H
  H235     1.0000 0.40140  0.08300  0.34650  Biso   1.000  H
  H236     1.0000 0.59860  0.08300  0.15350  Biso   1.000  H
  H237     1.0000 0.09860  0.41700  0.65350  Biso   1.000  H
  H238     1.0000 0.90140  0.41700  0.84650  Biso   1.000  H
  H239     1.0000 0.59860  0.91700  0.65350  Biso   1.000  H
  H240     1.0000 0.40140  0.91700  0.84650  Biso   1.000  H
  H241     1.0000 0.86850  0.55990  0.30940  Biso   1.000  H
  H242     1.0000 0.13150  0.55990  0.19060  Biso   1.000  H
  H243     1.0000 0.36850  0.05990  0.30940  Biso   1.000  H
  H244     1.0000 0.63150  0.05990  0.19060  Biso   1.000  H
  H245     1.0000 0.13150  0.44010  0.69060  Biso   1.000  H
  H246     1.0000 0.86850  0.44010  0.80940  Biso   1.000  H
  H247     1.0000 0.63150  0.94010  0.69060  Biso   1.000  H
  H248     1.0000 0.36850  0.94010  0.80940  Biso   1.000  H
  S9       1.0000 0.63377  0.64961  0.32905  Biso   1.000  S
  S10      1.0000 0.36623  0.64961  0.17095  Biso   1.000  S
  S11      1.0000 0.13377  0.14961  0.32905  Biso   1.000  S
  S12      1.0000 0.86623  0.14961  0.17095  Biso   1.000  S
  S13      1.0000 0.36623  0.35039  0.67095  Biso   1.000  S
  S14      1.0000 0.63377  0.35039  0.82905  Biso   1.000  S
  S15      1.0000 0.86623  0.85039  0.67095  Biso   1.000  S
  S16      1.0000 0.13377  0.85039  0.82905  Biso   1.000  S
  O25      1.0000 0.63910  0.61270  0.35700  Biso   1.000  O
  O26      1.0000 0.36090  0.61270  0.14300  Biso   1.000  O
  O27      1.0000 0.13910  0.11270  0.35700  Biso   1.000  O
  O28      1.0000 0.86090  0.11270  0.14300  Biso   1.000  O
  O29      1.0000 0.36090  0.38730  0.64300  Biso   1.000  O
  O30      1.0000 0.63910  0.38730  0.85700  Biso   1.000  O
  O31      1.0000 0.86090  0.88730  0.64300  Biso   1.000  O
  O32      1.0000 0.13910  0.88730  0.85700  Biso   1.000  O
  F25      1.0000 0.71060  0.81080  0.35040  Biso   1.000  F
  F26      1.0000 0.28940  0.81080  0.14960  Biso   1.000  F
  F27      1.0000 0.21060  0.31080  0.35040  Biso   1.000  F
  F28      1.0000 0.78940  0.31080  0.14960  Biso   1.000  F
  F29      1.0000 0.28940  0.18920  0.64960  Biso   1.000  F
  F30      1.0000 0.71060  0.18920  0.85040  Biso   1.000  F
  F31      1.0000 0.78940  0.68920  0.64960  Biso   1.000  F
  F32      1.0000 0.21060  0.68920  0.85040  Biso   1.000  F
  F33      1.0000 0.57030  0.81320  0.35290  Biso   1.000  F
  F34      1.0000 0.42970  0.81320  0.14710  Biso   1.000  F
  F35      1.0000 0.07030  0.31320  0.35290  Biso   1.000  F
  F36      1.0000 0.92970  0.31320  0.14710  Biso   1.000  F
  F37      1.0000 0.42970  0.18680  0.64710  Biso   1.000  F
  F38      1.0000 0.57030  0.18680  0.85290  Biso   1.000  F
  F39      1.0000 0.92970  0.68680  0.64710  Biso   1.000  F
  F40      1.0000 0.07030  0.68680  0.85290  Biso   1.000  F
  F41      1.0000 0.64450  0.82830  0.30720  Biso   1.000  F
  F42      1.0000 0.35550  0.82830  0.19280  Biso   1.000  F
  F43      1.0000 0.14450  0.32830  0.30720  Biso   1.000  F
  F44      1.0000 0.85550  0.32830  0.19280  Biso   1.000  F
  F45      1.0000 0.35550  0.17170  0.69280  Biso   1.000  F
  F46      1.0000 0.64450  0.17170  0.80720  Biso   1.000  F
  F47      1.0000 0.85550  0.67170  0.69280  Biso   1.000  F
  F48      1.0000 0.14450  0.67170  0.80720  Biso   1.000  F
  C249     1.0000 0.63560  0.77990  0.33410  Biso   1.000  C
  C250     1.0000 0.36440  0.77990  0.16590  Biso   1.000  C
  C251     1.0000 0.13560  0.27990  0.33410  Biso   1.000  C
  C252     1.0000 0.86440  0.27990  0.16590  Biso   1.000  C
  C253     1.0000 0.36440  0.22010  0.66590  Biso   1.000  C
  C254     1.0000 0.63560  0.22010  0.83410  Biso   1.000  C
  C255     1.0000 0.86440  0.72010  0.66590  Biso   1.000  C
  C256     1.0000 0.13560  0.72010  0.83410  Biso   1.000  C
  O33      1.0000 0.70770  0.62450  0.30805  Biso   1.000  O
  O34      1.0000 0.29230  0.62450  0.19195  Biso   1.000  O
  O35      1.0000 0.20770  0.12450  0.30805  Biso   1.000  O
  O36      1.0000 0.79230  0.12450  0.19195  Biso   1.000  O
  O37      1.0000 0.29230  0.37550  0.69195  Biso   1.000  O
  O38      1.0000 0.70770  0.37550  0.80805  Biso   1.000  O
  O39      1.0000 0.79230  0.87550  0.69195  Biso   1.000  O
  O40      1.0000 0.20770  0.87550  0.80805  Biso   1.000  O
  O41      1.0000 0.54530  0.63780  0.31050  Biso   1.000  O
  O42      1.0000 0.45470  0.63780  0.18950  Biso   1.000  O
  O43      1.0000 0.04530  0.13780  0.31050  Biso   1.000  O
  O44      1.0000 0.95470  0.13780  0.18950  Biso   1.000  O
  O45      1.0000 0.45470  0.36220  0.68950  Biso   1.000  O
  O46      1.0000 0.54530  0.36220  0.81050  Biso   1.000  O
  O47      1.0000 0.95470  0.86220  0.68950  Biso   1.000  O
  O48      1.0000 0.04530  0.86220  0.81050  Biso   1.000  O
