data_image0
_cell_length_a       35.737
_cell_length_b       9.782
_cell_length_c       16.144
_cell_angle_alpha    90
_cell_angle_beta     90
_cell_angle_gamma    90

_symmetry_space_group_name_H-M    "P 1"
_symmetry_int_tables_number       1

loop_
  _symmetry_equiv_pos_as_xyz
  'x, y, z'

loop_
  _atom_site_label
  _atom_site_occupancy
  _atom_site_fract_x
  _atom_site_fract_y
  _atom_site_fract_z
  _atom_site_thermal_displace_type
  _atom_site_B_iso_or_equiv
  _atom_site_type_symbol
  Cu1      1.0000 0.23750  0.38323  0.96934  Biso   1.000  Cu
  Cu2      1.0000 0.76250  0.61677  0.46934  Biso   1.000  Cu
  Cu3      1.0000 0.26250  0.88323  0.46934  Biso   1.000  Cu
  Cu4      1.0000 0.73750  0.11677  0.96934  Biso   1.000  Cu
  Cu5      1.0000 0.03307  0.19655  0.65879  Biso   1.000  Cu
  Cu6      1.0000 0.96693  0.80345  0.15879  Biso   1.000  Cu
  Cu7      1.0000 0.46693  0.69655  0.15879  Biso   1.000  Cu
  Cu8      1.0000 0.53307  0.30345  0.65879  Biso   1.000  Cu
  Mn1      1.0000 0.17918  0.09405  0.71579  Biso   1.000  Mn
  Mn2      1.0000 0.82082  0.90595  0.21579  Biso   1.000  Mn
  Mn3      1.0000 0.32082  0.59405  0.21579  Biso   1.000  Mn
  Mn4      1.0000 0.67918  0.40595  0.71579  Biso   1.000  Mn
  C1       1.0000 0.22004  0.17650  0.86260  Biso   1.000  C
  C2       1.0000 0.77996  0.82350  0.36260  Biso   1.000  C
  C3       1.0000 0.27996  0.67650  0.36260  Biso   1.000  C
  C4       1.0000 0.72004  0.32350  0.86260  Biso   1.000  C
  C5       1.0000 0.19816  0.30620  0.83600  Biso   1.000  C
  C6       1.0000 0.80184  0.69380  0.33600  Biso   1.000  C
  C7       1.0000 0.30184  0.80620  0.33600  Biso   1.000  C
  C8       1.0000 0.69816  0.19380  0.83600  Biso   1.000  C
  C9       1.0000 0.28335  0.40850  0.10310  Biso   1.000  C
  C10      1.0000 0.71665  0.59150  0.60310  Biso   1.000  C
  C11      1.0000 0.21665  0.90850  0.60310  Biso   1.000  C
  C12      1.0000 0.78335  0.09150  0.10310  Biso   1.000  C
  C13      1.0000 0.26480  0.54910  0.08770  Biso   1.000  C
  C14      1.0000 0.73520  0.45090  0.58770  Biso   1.000  C
  C15      1.0000 0.23520  0.04910  0.58770  Biso   1.000  C
  C16      1.0000 0.76480  0.95090  0.08770  Biso   1.000  C
  C17      1.0000 0.26539  0.11580  0.97230  Biso   1.000  C
  C18      1.0000 0.73461  0.88420  0.47230  Biso   1.000  C
  C19      1.0000 0.23461  0.61580  0.47230  Biso   1.000  C
  C20      1.0000 0.76539  0.38420  0.97230  Biso   1.000  C
  C21      1.0000 0.27352  0.97820  0.95470  Biso   1.000  C
  C22      1.0000 0.72648  0.02180  0.45470  Biso   1.000  C
  C23      1.0000 0.22648  0.47820  0.45470  Biso   1.000  C
  C24      1.0000 0.77352  0.52180  0.95470  Biso   1.000  C
  H1       1.0000 0.26320  0.93560  0.90770  Biso   1.000  H
  H2       1.0000 0.73680  0.06440  0.40770  Biso   1.000  H
  H3       1.0000 0.23680  0.43560  0.40770  Biso   1.000  H
  H4       1.0000 0.76320  0.56440  0.90770  Biso   1.000  H
  C25      1.0000 0.29678  0.90690  0.00720  Biso   1.000  C
  C26      1.0000 0.70322  0.09310  0.50720  Biso   1.000  C
  C27      1.0000 0.20322  0.40690  0.50720  Biso   1.000  C
  C28      1.0000 0.79678  0.59310  0.00720  Biso   1.000  C
  H5       1.0000 0.30220  0.81470  0.99570  Biso   1.000  H
  H6       1.0000 0.69780  0.18530  0.49570  Biso   1.000  H
  H7       1.0000 0.19780  0.31470  0.49570  Biso   1.000  H
  H8       1.0000 0.80220  0.68530  0.99570  Biso   1.000  H
  C29      1.0000 0.31242  0.96770  0.07660  Biso   1.000  C
  C30      1.0000 0.68758  0.03230  0.57660  Biso   1.000  C
  C31      1.0000 0.18758  0.46770  0.57660  Biso   1.000  C
  C32      1.0000 0.81242  0.53230  0.07660  Biso   1.000  C
  H9       1.0000 0.32780  0.91640  0.11220  Biso   1.000  H
  H10      1.0000 0.67220  0.08360  0.61220  Biso   1.000  H
  H11      1.0000 0.17220  0.41640  0.61220  Biso   1.000  H
  H12      1.0000 0.82780  0.58360  0.11220  Biso   1.000  H
  C33      1.0000 0.30538  0.10410  0.09350  Biso   1.000  C
  C34      1.0000 0.69462  0.89590  0.59350  Biso   1.000  C
  C35      1.0000 0.19462  0.60410  0.59350  Biso   1.000  C
  C36      1.0000 0.80538  0.39590  0.09350  Biso   1.000  C
  H13      1.0000 0.31640  0.14690  0.13960  Biso   1.000  H
  H14      1.0000 0.68360  0.85310  0.63960  Biso   1.000  H
  H15      1.0000 0.18360  0.64690  0.63960  Biso   1.000  H
  H16      1.0000 0.81640  0.35310  0.13960  Biso   1.000  H
  C37      1.0000 0.28146  0.17710  0.04080  Biso   1.000  C
  C38      1.0000 0.71854  0.82290  0.54080  Biso   1.000  C
  C39      1.0000 0.21854  0.67710  0.54080  Biso   1.000  C
  C40      1.0000 0.78146  0.32290  0.04080  Biso   1.000  C
  C41      1.0000 0.09811  0.09300  0.72210  Biso   1.000  C
  C42      1.0000 0.90189  0.90700  0.22210  Biso   1.000  C
  C43      1.0000 0.40189  0.59300  0.22210  Biso   1.000  C
  C44      1.0000 0.59811  0.40700  0.72210  Biso   1.000  C
  C45      1.0000 0.10791  0.17020  0.64100  Biso   1.000  C
  C46      1.0000 0.89209  0.82980  0.14100  Biso   1.000  C
  C47      1.0000 0.39209  0.67020  0.14100  Biso   1.000  C
  C48      1.0000 0.60791  0.32980  0.64100  Biso   1.000  C
  C49      1.0000 0.95923  0.19320  0.70550  Biso   1.000  C
  C50      1.0000 0.04077  0.80680  0.20550  Biso   1.000  C
  C51      1.0000 0.54077  0.69320  0.20550  Biso   1.000  C
  C52      1.0000 0.45923  0.30680  0.70550  Biso   1.000  C
  C53      1.0000 0.96309  0.28090  0.62530  Biso   1.000  C
  C54      1.0000 0.03691  0.71910  0.12530  Biso   1.000  C
  C55      1.0000 0.53691  0.78090  0.12530  Biso   1.000  C
  C56      1.0000 0.46309  0.21910  0.62530  Biso   1.000  C
  C57      1.0000 0.04149  0.03580  0.80180  Biso   1.000  C
  C58      1.0000 0.95851  0.96420  0.30180  Biso   1.000  C
  C59      1.0000 0.45851  0.53580  0.30180  Biso   1.000  C
  C60      1.0000 0.54149  0.46420  0.80180  Biso   1.000  C
  C61      1.0000 0.05515  0.95600  0.86500  Biso   1.000  C
  C62      1.0000 0.94485  0.04400  0.36500  Biso   1.000  C
  C63      1.0000 0.44485  0.45600  0.36500  Biso   1.000  C
  C64      1.0000 0.55515  0.54400  0.86500  Biso   1.000  C
  H17      1.0000 0.08090  0.93630  0.86790  Biso   1.000  H
  H18      1.0000 0.91910  0.06370  0.36790  Biso   1.000  H
  H19      1.0000 0.41910  0.43630  0.36790  Biso   1.000  H
  H20      1.0000 0.58090  0.56370  0.86790  Biso   1.000  H
  C65      1.0000 0.03101  0.90460  0.92430  Biso   1.000  C
  C66      1.0000 0.96899  0.09540  0.42430  Biso   1.000  C
  C67      1.0000 0.46899  0.40460  0.42430  Biso   1.000  C
  C68      1.0000 0.53101  0.59540  0.92430  Biso   1.000  C
  H21      1.0000 0.04050  0.85230  0.96850  Biso   1.000  H
  H22      1.0000 0.95950  0.14770  0.46850  Biso   1.000  H
  H23      1.0000 0.45950  0.35230  0.46850  Biso   1.000  H
  H24      1.0000 0.54050  0.64770  0.96850  Biso   1.000  H
  C69      1.0000 0.99349  0.92950  0.91890  Biso   1.000  C
  C70      1.0000 0.00651  0.07050  0.41890  Biso   1.000  C
  C71      1.0000 0.50651  0.42950  0.41890  Biso   1.000  C
  C72      1.0000 0.49349  0.57050  0.91890  Biso   1.000  C
  H25      1.0000 0.97740  0.89160  0.95880  Biso   1.000  H
  H26      1.0000 0.02260  0.10840  0.45880  Biso   1.000  H
  H27      1.0000 0.52260  0.39160  0.45880  Biso   1.000  H
  H28      1.0000 0.47740  0.60840  0.95880  Biso   1.000  H
  C73      1.0000 0.97868  0.00920  0.85600  Biso   1.000  C
  C74      1.0000 0.02132  0.99080  0.35600  Biso   1.000  C
  C75      1.0000 0.52132  0.50920  0.35600  Biso   1.000  C
  C76      1.0000 0.47868  0.49080  0.85600  Biso   1.000  C
  H29      1.0000 0.95280  0.02550  0.85370  Biso   1.000  H
  H30      1.0000 0.04720  0.97450  0.35370  Biso   1.000  H
  H31      1.0000 0.54720  0.52550  0.35370  Biso   1.000  H
  H32      1.0000 0.45280  0.47450  0.85370  Biso   1.000  H
  C77      1.0000 0.00243  0.06560  0.79600  Biso   1.000  C
  C78      1.0000 0.99757  0.93440  0.29600  Biso   1.000  C
  C79      1.0000 0.49757  0.56560  0.29600  Biso   1.000  C
  C80      1.0000 0.50243  0.43440  0.79600  Biso   1.000  C
  C81      1.0000 0.86347  0.00650  0.56820  Biso   1.000  C
  C82      1.0000 0.13653  0.99350  0.06820  Biso   1.000  C
  C83      1.0000 0.63653  0.50650  0.06820  Biso   1.000  C
  C84      1.0000 0.36347  0.49350  0.56820  Biso   1.000  C
  H33      1.0000 0.88570  0.05210  0.54570  Biso   1.000  H
  H34      1.0000 0.11430  0.94790  0.04570  Biso   1.000  H
  H35      1.0000 0.61430  0.55210  0.04570  Biso   1.000  H
  H36      1.0000 0.38570  0.44790  0.54570  Biso   1.000  H
  H37      1.0000 0.87030  0.96910  0.62240  Biso   1.000  H
  H38      1.0000 0.12970  0.03090  0.12240  Biso   1.000  H
  H39      1.0000 0.62970  0.46910  0.12240  Biso   1.000  H
  H40      1.0000 0.37030  0.53090  0.62240  Biso   1.000  H
  C85      1.0000 0.85337  0.88870  0.51140  Biso   1.000  C
  C86      1.0000 0.14663  0.11130  0.01140  Biso   1.000  C
  C87      1.0000 0.64663  0.38870  0.01140  Biso   1.000  C
  C88      1.0000 0.35337  0.61130  0.51140  Biso   1.000  C
  H41      1.0000 0.84280  0.92900  0.46100  Biso   1.000  H
  H42      1.0000 0.15720  0.07100  0.96100  Biso   1.000  H
  H43      1.0000 0.65720  0.42900  0.96100  Biso   1.000  H
  H44      1.0000 0.34280  0.57100  0.46100  Biso   1.000  H
  H45      1.0000 0.83300  0.83860  0.53850  Biso   1.000  H
  H46      1.0000 0.16700  0.16140  0.03850  Biso   1.000  H
  H47      1.0000 0.66700  0.33860  0.03850  Biso   1.000  H
  H48      1.0000 0.33300  0.66140  0.53850  Biso   1.000  H
  H49      1.0000 0.85550  0.91360  0.45280  Biso   1.000  H
  H50      1.0000 0.14450  0.08640  0.95280  Biso   1.000  H
  H51      1.0000 0.64450  0.41360  0.95280  Biso   1.000  H
  H52      1.0000 0.35550  0.58640  0.45280  Biso   1.000  H
  H53      1.0000 0.82820  0.85320  0.52240  Biso   1.000  H
  H54      1.0000 0.17180  0.14680  0.02240  Biso   1.000  H
  H55      1.0000 0.67180  0.35320  0.02240  Biso   1.000  H
  H56      1.0000 0.32820  0.64680  0.52240  Biso   1.000  H
  C89      1.0000 0.88570  0.78320  0.53770  Biso   1.000  C
  C90      1.0000 0.11430  0.21680  0.03770  Biso   1.000  C
  C91      1.0000 0.61430  0.28320  0.03770  Biso   1.000  C
  C92      1.0000 0.38570  0.71680  0.53770  Biso   1.000  C
  H57      1.0000 0.91000  0.81500  0.51740  Biso   1.000  H
  H58      1.0000 0.09000  0.18500  0.01740  Biso   1.000  H
  H59      1.0000 0.59000  0.31500  0.01740  Biso   1.000  H
  H60      1.0000 0.41000  0.68500  0.51740  Biso   1.000  H
  H61      1.0000 0.88690  0.77550  0.59820  Biso   1.000  H
  H62      1.0000 0.11310  0.22450  0.09820  Biso   1.000  H
  H63      1.0000 0.61310  0.27550  0.09820  Biso   1.000  H
  H64      1.0000 0.38690  0.72450  0.59820  Biso   1.000  H
  C93      1.0000 0.88260  0.77990  0.48300  Biso   1.000  C
  C94      1.0000 0.11740  0.22010  0.98300  Biso   1.000  C
  C95      1.0000 0.61740  0.27990  0.98300  Biso   1.000  C
  C96      1.0000 0.38260  0.72010  0.48300  Biso   1.000  C
  H65      1.0000 0.87670  0.74370  0.42790  Biso   1.000  H
  H66      1.0000 0.12330  0.25630  0.92790  Biso   1.000  H
  H67      1.0000 0.62330  0.24370  0.92790  Biso   1.000  H
  H68      1.0000 0.37670  0.75630  0.42790  Biso   1.000  H
  H69      1.0000 0.90810  0.81740  0.48270  Biso   1.000  H
  H70      1.0000 0.09190  0.18260  0.98270  Biso   1.000  H
  H71      1.0000 0.59190  0.31740  0.98270  Biso   1.000  H
  H72      1.0000 0.40810  0.68260  0.48270  Biso   1.000  H
  C97      1.0000 0.87790  0.67300  0.54910  Biso   1.000  C
  C98      1.0000 0.12210  0.32700  0.04910  Biso   1.000  C
  C99      1.0000 0.62210  0.17300  0.04910  Biso   1.000  C
  C100     1.0000 0.37790  0.82700  0.54910  Biso   1.000  C
  H73      1.0000 0.89420  0.59600  0.53730  Biso   1.000  H
  H74      1.0000 0.10580  0.40400  0.03730  Biso   1.000  H
  H75      1.0000 0.60580  0.09600  0.03730  Biso   1.000  H
  H76      1.0000 0.39420  0.90400  0.53730  Biso   1.000  H
  H77      1.0000 0.85210  0.64220  0.55000  Biso   1.000  H
  H78      1.0000 0.14790  0.35780  0.05000  Biso   1.000  H
  H79      1.0000 0.64790  0.14220  0.05000  Biso   1.000  H
  H80      1.0000 0.35210  0.85780  0.55000  Biso   1.000  H
  H81      1.0000 0.88440  0.71150  0.60250  Biso   1.000  H
  H82      1.0000 0.11560  0.28850  0.10250  Biso   1.000  H
  H83      1.0000 0.61560  0.21150  0.10250  Biso   1.000  H
  H84      1.0000 0.38440  0.78850  0.60250  Biso   1.000  H
  C101     1.0000 0.87600  0.64390  0.49920  Biso   1.000  C
  C102     1.0000 0.12400  0.35610  0.99920  Biso   1.000  C
  C103     1.0000 0.62400  0.14390  0.99920  Biso   1.000  C
  C104     1.0000 0.37600  0.85610  0.49920  Biso   1.000  C
  H85      1.0000 0.89520  0.57790  0.51380  Biso   1.000  H
  H86      1.0000 0.10480  0.42210  0.01380  Biso   1.000  H
  H87      1.0000 0.60480  0.07790  0.01380  Biso   1.000  H
  H88      1.0000 0.39520  0.92210  0.51380  Biso   1.000  H
  H89      1.0000 0.87480  0.65270  0.43940  Biso   1.000  H
  H90      1.0000 0.12520  0.34730  0.93940  Biso   1.000  H
  H91      1.0000 0.62520  0.15270  0.93940  Biso   1.000  H
  H92      1.0000 0.37480  0.84730  0.43940  Biso   1.000  H
  H93      1.0000 0.85200  0.61310  0.52010  Biso   1.000  H
  H94      1.0000 0.14800  0.38690  0.02010  Biso   1.000  H
  H95      1.0000 0.64800  0.11310  0.02010  Biso   1.000  H
  H96      1.0000 0.35200  0.88690  0.52010  Biso   1.000  H
  C105     1.0000 0.79869  0.05320  0.62210  Biso   1.000  C
  C106     1.0000 0.20131  0.94680  0.12210  Biso   1.000  C
  C107     1.0000 0.70131  0.55320  0.12210  Biso   1.000  C
  C108     1.0000 0.29869  0.44680  0.62210  Biso   1.000  C
  H97      1.0000 0.78910  0.97950  0.58680  Biso   1.000  H
  H98      1.0000 0.21090  0.02050  0.08680  Biso   1.000  H
  H99      1.0000 0.71090  0.47950  0.08680  Biso   1.000  H
  H100     1.0000 0.28910  0.52050  0.58680  Biso   1.000  H
  H101     1.0000 0.77930  0.12390  0.62500  Biso   1.000  H
  H102     1.0000 0.22070  0.87610  0.12500  Biso   1.000  H
  H103     1.0000 0.72070  0.62390  0.12500  Biso   1.000  H
  H104     1.0000 0.27930  0.37610  0.62500  Biso   1.000  H
  C109     1.0000 0.80488  0.99630  0.70860  Biso   1.000  C
  C110     1.0000 0.19512  0.00370  0.20860  Biso   1.000  C
  C111     1.0000 0.69512  0.49630  0.20860  Biso   1.000  C
  C112     1.0000 0.30488  0.50370  0.70860  Biso   1.000  C
  H105     1.0000 0.82490  0.92810  0.70670  Biso   1.000  H
  H106     1.0000 0.17510  0.07190  0.20670  Biso   1.000  H
  H107     1.0000 0.67510  0.42810  0.20670  Biso   1.000  H
  H108     1.0000 0.32490  0.57190  0.70670  Biso   1.000  H
  H109     1.0000 0.81300  0.07050  0.74520  Biso   1.000  H
  H110     1.0000 0.18700  0.92950  0.24520  Biso   1.000  H
  H111     1.0000 0.68700  0.57050  0.24520  Biso   1.000  H
  H112     1.0000 0.31300  0.42950  0.74520  Biso   1.000  H
  C113     1.0000 0.77022  0.93140  0.74420  Biso   1.000  C
  C114     1.0000 0.22978  0.06860  0.24420  Biso   1.000  C
  C115     1.0000 0.72978  0.43140  0.24420  Biso   1.000  C
  C116     1.0000 0.27022  0.56860  0.74420  Biso   1.000  C
  H113     1.0000 0.74980  0.99840  0.74400  Biso   1.000  H
  H114     1.0000 0.25020  0.00160  0.24400  Biso   1.000  H
  H115     1.0000 0.75020  0.49840  0.24400  Biso   1.000  H
  H116     1.0000 0.24980  0.50160  0.74400  Biso   1.000  H
  H117     1.0000 0.76270  0.85450  0.70900  Biso   1.000  H
  H118     1.0000 0.23730  0.14550  0.20900  Biso   1.000  H
  H119     1.0000 0.73730  0.35450  0.20900  Biso   1.000  H
  H120     1.0000 0.26270  0.64550  0.70900  Biso   1.000  H
  C117     1.0000 0.77616  0.88120  0.83070  Biso   1.000  C
  C118     1.0000 0.22384  0.11880  0.33070  Biso   1.000  C
  C119     1.0000 0.72384  0.38120  0.33070  Biso   1.000  C
  C120     1.0000 0.27616  0.61880  0.83070  Biso   1.000  C
  H121     1.0000 0.75680  0.81550  0.84460  Biso   1.000  H
  H122     1.0000 0.24320  0.18450  0.34460  Biso   1.000  H
  H123     1.0000 0.74320  0.31550  0.34460  Biso   1.000  H
  H124     1.0000 0.25680  0.68450  0.84460  Biso   1.000  H
  H125     1.0000 0.77500  0.95770  0.86880  Biso   1.000  H
  H126     1.0000 0.22500  0.04230  0.36880  Biso   1.000  H
  H127     1.0000 0.72500  0.45770  0.36880  Biso   1.000  H
  H128     1.0000 0.27500  0.54230  0.86880  Biso   1.000  H
  H129     1.0000 0.80050  0.83770  0.83470  Biso   1.000  H
  H130     1.0000 0.19950  0.16230  0.33470  Biso   1.000  H
  H131     1.0000 0.69950  0.33770  0.33470  Biso   1.000  H
  H132     1.0000 0.30050  0.66230  0.83470  Biso   1.000  H
  C121     1.0000 0.85047  0.22510  0.63450  Biso   1.000  C
  C122     1.0000 0.14953  0.77490  0.13450  Biso   1.000  C
  C123     1.0000 0.64953  0.72510  0.13450  Biso   1.000  C
  C124     1.0000 0.35047  0.27490  0.63450  Biso   1.000  C
  H133     1.0000 0.85950  0.18320  0.68590  Biso   1.000  H
  H134     1.0000 0.14050  0.81680  0.18590  Biso   1.000  H
  H135     1.0000 0.64050  0.68320  0.18590  Biso   1.000  H
  H136     1.0000 0.35950  0.31680  0.68590  Biso   1.000  H
  H137     1.0000 0.87230  0.26240  0.60540  Biso   1.000  H
  H138     1.0000 0.12770  0.73760  0.10540  Biso   1.000  H
  H139     1.0000 0.62770  0.76240  0.10540  Biso   1.000  H
  H140     1.0000 0.37230  0.23760  0.60540  Biso   1.000  H
  C125     1.0000 0.82481  0.34070  0.65630  Biso   1.000  C
  C126     1.0000 0.17519  0.65930  0.15630  Biso   1.000  C
  C127     1.0000 0.67519  0.84070  0.15630  Biso   1.000  C
  C128     1.0000 0.32481  0.15930  0.65630  Biso   1.000  C
  H141     1.0000 0.80150  0.30380  0.67910  Biso   1.000  H
  H142     1.0000 0.19850  0.69620  0.17910  Biso   1.000  H
  H143     1.0000 0.69850  0.80380  0.17910  Biso   1.000  H
  H144     1.0000 0.30150  0.19620  0.67910  Biso   1.000  H
  H145     1.0000 0.81860  0.39200  0.60600  Biso   1.000  H
  H146     1.0000 0.18140  0.60800  0.10600  Biso   1.000  H
  H147     1.0000 0.68140  0.89200  0.10600  Biso   1.000  H
  H148     1.0000 0.31860  0.10800  0.60600  Biso   1.000  H
  C129     1.0000 0.84226  0.43620  0.71860  Biso   1.000  C
  C130     1.0000 0.15774  0.56380  0.21860  Biso   1.000  C
  C131     1.0000 0.65774  0.93620  0.21860  Biso   1.000  C
  C132     1.0000 0.34226  0.06380  0.71860  Biso   1.000  C
  H149     1.0000 0.86580  0.47220  0.69650  Biso   1.000  H
  H150     1.0000 0.13420  0.52780  0.19650  Biso   1.000  H
  H151     1.0000 0.63420  0.97220  0.19650  Biso   1.000  H
  H152     1.0000 0.36580  0.02780  0.69650  Biso   1.000  H
  H153     1.0000 0.84790  0.38600  0.76970  Biso   1.000  H
  H154     1.0000 0.15210  0.61400  0.26970  Biso   1.000  H
  H155     1.0000 0.65210  0.88600  0.26970  Biso   1.000  H
  H156     1.0000 0.34790  0.11400  0.76970  Biso   1.000  H
  C133     1.0000 0.81577  0.55400  0.73770  Biso   1.000  C
  C134     1.0000 0.18423  0.44600  0.23770  Biso   1.000  C
  C135     1.0000 0.68423  0.05400  0.23770  Biso   1.000  C
  C136     1.0000 0.31577  0.94600  0.73770  Biso   1.000  C
  H157     1.0000 0.82430  0.60160  0.78690  Biso   1.000  H
  H158     1.0000 0.17570  0.39840  0.28690  Biso   1.000  H
  H159     1.0000 0.67570  0.10160  0.28690  Biso   1.000  H
  H160     1.0000 0.32430  0.89840  0.78690  Biso   1.000  H
  H161     1.0000 0.79080  0.51850  0.74720  Biso   1.000  H
  H162     1.0000 0.20920  0.48150  0.24720  Biso   1.000  H
  H163     1.0000 0.70920  0.01850  0.24720  Biso   1.000  H
  H164     1.0000 0.29080  0.98150  0.74720  Biso   1.000  H
  H165     1.0000 0.81530  0.61680  0.69130  Biso   1.000  H
  H166     1.0000 0.18470  0.38320  0.19130  Biso   1.000  H
  H167     1.0000 0.68470  0.11680  0.19130  Biso   1.000  H
  H168     1.0000 0.31530  0.88320  0.69130  Biso   1.000  H
  C137     1.0000 0.82015  0.17130  0.49800  Biso   1.000  C
  C138     1.0000 0.17985  0.82870  0.99800  Biso   1.000  C
  C139     1.0000 0.67985  0.67130  0.99800  Biso   1.000  C
  C140     1.0000 0.32015  0.32870  0.49800  Biso   1.000  C
  H169     1.0000 0.80940  0.09640  0.46540  Biso   1.000  H
  H170     1.0000 0.19060  0.90360  0.96540  Biso   1.000  H
  H171     1.0000 0.69060  0.59640  0.96540  Biso   1.000  H
  H172     1.0000 0.30940  0.40360  0.46540  Biso   1.000  H
  H173     1.0000 0.80010  0.23740  0.50840  Biso   1.000  H
  H174     1.0000 0.19990  0.76260  0.00840  Biso   1.000  H
  H175     1.0000 0.69990  0.73740  0.00840  Biso   1.000  H
  H176     1.0000 0.30010  0.26260  0.50840  Biso   1.000  H
  C141     1.0000 0.84984  0.24050  0.44640  Biso   1.000  C
  C142     1.0000 0.15016  0.75950  0.94640  Biso   1.000  C
  C143     1.0000 0.65016  0.74050  0.94640  Biso   1.000  C
  C144     1.0000 0.34984  0.25950  0.44640  Biso   1.000  C
  H177     1.0000 0.87220  0.18240  0.44370  Biso   1.000  H
  H178     1.0000 0.12780  0.81760  0.94370  Biso   1.000  H
  H179     1.0000 0.62780  0.68240  0.94370  Biso   1.000  H
  H180     1.0000 0.37220  0.31760  0.44370  Biso   1.000  H
  H181     1.0000 0.85690  0.32740  0.47220  Biso   1.000  H
  H182     1.0000 0.14310  0.67260  0.97220  Biso   1.000  H
  H183     1.0000 0.64310  0.82740  0.97220  Biso   1.000  H
  H184     1.0000 0.35690  0.17260  0.47220  Biso   1.000  H
  C145     1.0000 0.83524  0.26680  0.35890  Biso   1.000  C
  C146     1.0000 0.16476  0.73320  0.85890  Biso   1.000  C
  C147     1.0000 0.66476  0.76680  0.85890  Biso   1.000  C
  C148     1.0000 0.33524  0.23320  0.35890  Biso   1.000  C
  H185     1.0000 0.82800  0.17950  0.33380  Biso   1.000  H
  H186     1.0000 0.17200  0.82050  0.83380  Biso   1.000  H
  H187     1.0000 0.67200  0.67950  0.83380  Biso   1.000  H
  H188     1.0000 0.32800  0.32050  0.33380  Biso   1.000  H
  H189     1.0000 0.81280  0.32430  0.36220  Biso   1.000  H
  H190     1.0000 0.18720  0.67570  0.86220  Biso   1.000  H
  H191     1.0000 0.68720  0.82430  0.86220  Biso   1.000  H
  H192     1.0000 0.31280  0.17570  0.36220  Biso   1.000  H
  C149     1.0000 0.86362  0.33550  0.30400  Biso   1.000  C
  C150     1.0000 0.13638  0.66450  0.80400  Biso   1.000  C
  C151     1.0000 0.63638  0.83550  0.80400  Biso   1.000  C
  C152     1.0000 0.36362  0.16450  0.30400  Biso   1.000  C
  H193     1.0000 0.85450  0.33690  0.24750  Biso   1.000  H
  H194     1.0000 0.14550  0.66310  0.74750  Biso   1.000  H
  H195     1.0000 0.64550  0.83690  0.74750  Biso   1.000  H
  H196     1.0000 0.35450  0.16310  0.24750  Biso   1.000  H
  H197     1.0000 0.88700  0.28550  0.30640  Biso   1.000  H
  H198     1.0000 0.11300  0.71450  0.80640  Biso   1.000  H
  H199     1.0000 0.61300  0.78550  0.80640  Biso   1.000  H
  H200     1.0000 0.38700  0.21450  0.30640  Biso   1.000  H
  H201     1.0000 0.86760  0.42850  0.32290  Biso   1.000  H
  H202     1.0000 0.13240  0.57150  0.82290  Biso   1.000  H
  H203     1.0000 0.63240  0.92850  0.82290  Biso   1.000  H
  H204     1.0000 0.36760  0.07150  0.32290  Biso   1.000  H
  C153     1.0000 0.08029  0.68250  0.41820  Biso   1.000  C
  C154     1.0000 0.91971  0.31750  0.91820  Biso   1.000  C
  C155     1.0000 0.41971  0.18250  0.91820  Biso   1.000  C
  C156     1.0000 0.58029  0.81750  0.41820  Biso   1.000  C
  H205     1.0000 0.08240  0.66740  0.35830  Biso   1.000  H
  H206     1.0000 0.91760  0.33260  0.85830  Biso   1.000  H
  H207     1.0000 0.41760  0.16740  0.85830  Biso   1.000  H
  H208     1.0000 0.58240  0.83260  0.35830  Biso   1.000  H
  H209     1.0000 0.07060  0.77530  0.42620  Biso   1.000  H
  H210     1.0000 0.92940  0.22470  0.92620  Biso   1.000  H
  H211     1.0000 0.42940  0.27530  0.92620  Biso   1.000  H
  H212     1.0000 0.57060  0.72470  0.42620  Biso   1.000  H
  C157     1.0000 0.11909  0.67610  0.45490  Biso   1.000  C
  C158     1.0000 0.88091  0.32390  0.95490  Biso   1.000  C
  C159     1.0000 0.38091  0.17610  0.95490  Biso   1.000  C
  C160     1.0000 0.61909  0.82390  0.45490  Biso   1.000  C
  H213     1.0000 0.13150  0.59140  0.43780  Biso   1.000  H
  H214     1.0000 0.86850  0.40860  0.93780  Biso   1.000  H
  H215     1.0000 0.36850  0.09140  0.93780  Biso   1.000  H
  H216     1.0000 0.63150  0.90860  0.43780  Biso   1.000  H
  H217     1.0000 0.11760  0.67730  0.51550  Biso   1.000  H
  H218     1.0000 0.88240  0.32270  0.01550  Biso   1.000  H
  H219     1.0000 0.38240  0.17730  0.01550  Biso   1.000  H
  H220     1.0000 0.61760  0.82270  0.51550  Biso   1.000  H
  C161     1.0000 0.14297  0.80900  0.42190  Biso   1.000  C
  C162     1.0000 0.85703  0.19100  0.92190  Biso   1.000  C
  C163     1.0000 0.35703  0.30900  0.92190  Biso   1.000  C
  C164     1.0000 0.64297  0.69100  0.42190  Biso   1.000  C
  H221     1.0000 0.16990  0.79140  0.42450  Biso   1.000  H
  H222     1.0000 0.83010  0.20860  0.92450  Biso   1.000  H
  H223     1.0000 0.33010  0.29140  0.92450  Biso   1.000  H
  H224     1.0000 0.66990  0.70860  0.42450  Biso   1.000  H
  H225     1.0000 0.13610  0.83220  0.36480  Biso   1.000  H
  H226     1.0000 0.86390  0.16780  0.86480  Biso   1.000  H
  H227     1.0000 0.36390  0.33220  0.86480  Biso   1.000  H
  H228     1.0000 0.63610  0.66780  0.36480  Biso   1.000  H
  C165     1.0000 0.13260  0.91560  0.47760  Biso   1.000  C
  C166     1.0000 0.86740  0.08440  0.97760  Biso   1.000  C
  C167     1.0000 0.36740  0.41560  0.97760  Biso   1.000  C
  C168     1.0000 0.63260  0.58440  0.47760  Biso   1.000  C
  H229     1.0000 0.14790  0.99550  0.46730  Biso   1.000  H
  H230     1.0000 0.85210  0.00450  0.96730  Biso   1.000  H
  H231     1.0000 0.35210  0.49550  0.96730  Biso   1.000  H
  H232     1.0000 0.64790  0.50450  0.46730  Biso   1.000  H
  H233     1.0000 0.13630  0.88510  0.53420  Biso   1.000  H
  H234     1.0000 0.86370  0.11490  0.03420  Biso   1.000  H
  H235     1.0000 0.36370  0.38510  0.03420  Biso   1.000  H
  H236     1.0000 0.63630  0.61490  0.53420  Biso   1.000  H
  H237     1.0000 0.10640  0.93860  0.46930  Biso   1.000  H
  H238     1.0000 0.89360  0.06140  0.96930  Biso   1.000  H
  H239     1.0000 0.39360  0.43860  0.96930  Biso   1.000  H
  H240     1.0000 0.60640  0.56140  0.46930  Biso   1.000  H
  C169     1.0000 0.06802  0.43760  0.45540  Biso   1.000  C
  C170     1.0000 0.93198  0.56240  0.95540  Biso   1.000  C
  C171     1.0000 0.43198  0.93760  0.95540  Biso   1.000  C
  C172     1.0000 0.56802  0.06240  0.45540  Biso   1.000  C
  H241     1.0000 0.09010  0.43960  0.49120  Biso   1.000  H
  H242     1.0000 0.90990  0.56040  0.99120  Biso   1.000  H
  H243     1.0000 0.40990  0.93960  0.99120  Biso   1.000  H
  H244     1.0000 0.59010  0.06040  0.49120  Biso   1.000  H
  H245     1.0000 0.04980  0.37570  0.48080  Biso   1.000  H
  H246     1.0000 0.95020  0.62430  0.98080  Biso   1.000  H
  H247     1.0000 0.45020  0.87570  0.98080  Biso   1.000  H
  H248     1.0000 0.54980  0.12430  0.48080  Biso   1.000  H
  C173     1.0000 0.07924  0.37960  0.37270  Biso   1.000  C
  C174     1.0000 0.92076  0.62040  0.87270  Biso   1.000  C
  C175     1.0000 0.42076  0.87960  0.87270  Biso   1.000  C
  C176     1.0000 0.57924  0.12040  0.37270  Biso   1.000  C
  H249     1.0000 0.05680  0.36060  0.33990  Biso   1.000  H
  H250     1.0000 0.94320  0.63940  0.83990  Biso   1.000  H
  H251     1.0000 0.44320  0.86060  0.83990  Biso   1.000  H
  H252     1.0000 0.55680  0.13940  0.33990  Biso   1.000  H
  H253     1.0000 0.09430  0.44700  0.34260  Biso   1.000  H
  H254     1.0000 0.90570  0.55300  0.84260  Biso   1.000  H
  H255     1.0000 0.40570  0.94700  0.84260  Biso   1.000  H
  H256     1.0000 0.59430  0.05300  0.34260  Biso   1.000  H
  C177     1.0000 0.10138  0.25030  0.38310  Biso   1.000  C
  C178     1.0000 0.89862  0.74970  0.88310  Biso   1.000  C
  C179     1.0000 0.39862  0.75030  0.88310  Biso   1.000  C
  C180     1.0000 0.60138  0.24970  0.38310  Biso   1.000  C
  H257     1.0000 0.08770  0.18860  0.42020  Biso   1.000  H
  H258     1.0000 0.91230  0.81140  0.92020  Biso   1.000  H
  H259     1.0000 0.41230  0.68860  0.92020  Biso   1.000  H
  H260     1.0000 0.58770  0.31140  0.42020  Biso   1.000  H
  H261     1.0000 0.12540  0.27220  0.40940  Biso   1.000  H
  H262     1.0000 0.87460  0.72780  0.90940  Biso   1.000  H
  H263     1.0000 0.37460  0.77220  0.90940  Biso   1.000  H
  H264     1.0000 0.62540  0.22780  0.40940  Biso   1.000  H
  C181     1.0000 0.10884  0.17680  0.30150  Biso   1.000  C
  C182     1.0000 0.89116  0.82320  0.80150  Biso   1.000  C
  C183     1.0000 0.39116  0.67680  0.80150  Biso   1.000  C
  C184     1.0000 0.60884  0.32320  0.30150  Biso   1.000  C
  H265     1.0000 0.12370  0.09560  0.31180  Biso   1.000  H
  H266     1.0000 0.87630  0.90440  0.81180  Biso   1.000  H
  H267     1.0000 0.37630  0.59560  0.81180  Biso   1.000  H
  H268     1.0000 0.62370  0.40440  0.31180  Biso   1.000  H
  H269     1.0000 0.12230  0.23730  0.26430  Biso   1.000  H
  H270     1.0000 0.87770  0.76270  0.76430  Biso   1.000  H
  H271     1.0000 0.37770  0.73730  0.76430  Biso   1.000  H
  H272     1.0000 0.62230  0.26270  0.26430  Biso   1.000  H
  H273     1.0000 0.08520  0.15070  0.27640  Biso   1.000  H
  H274     1.0000 0.91480  0.84930  0.77640  Biso   1.000  H
  H275     1.0000 0.41480  0.65070  0.77640  Biso   1.000  H
  H276     1.0000 0.58520  0.34930  0.27640  Biso   1.000  H
  C185     1.0000 0.04060  0.61500  0.54020  Biso   1.000  C
  C186     1.0000 0.95940  0.38500  0.04020  Biso   1.000  C
  C187     1.0000 0.45940  0.11500  0.04020  Biso   1.000  C
  C188     1.0000 0.54060  0.88500  0.54020  Biso   1.000  C
  H277     1.0000 0.06300  0.60940  0.57510  Biso   1.000  H
  H278     1.0000 0.93700  0.39060  0.07510  Biso   1.000  H
  H279     1.0000 0.43700  0.10940  0.07510  Biso   1.000  H
  H280     1.0000 0.56300  0.89060  0.57510  Biso   1.000  H
  H281     1.0000 0.02270  0.54660  0.56020  Biso   1.000  H
  H282     1.0000 0.97730  0.45340  0.06020  Biso   1.000  H
  H283     1.0000 0.47730  0.04660  0.06020  Biso   1.000  H
  H284     1.0000 0.52270  0.95340  0.56020  Biso   1.000  H
  C189     1.0000 0.02320  0.75740  0.54960  Biso   1.000  C
  C190     1.0000 0.97680  0.24260  0.04960  Biso   1.000  C
  C191     1.0000 0.47680  0.25740  0.04960  Biso   1.000  C
  C192     1.0000 0.52320  0.74260  0.54960  Biso   1.000  C
  H285     1.0000 0.04030  0.82630  0.52690  Biso   1.000  H
  H286     1.0000 0.95970  0.17370  0.02690  Biso   1.000  H
  H287     1.0000 0.45970  0.32630  0.02690  Biso   1.000  H
  H288     1.0000 0.54030  0.67370  0.52690  Biso   1.000  H
  H289     1.0000 0.99970  0.76180  0.51850  Biso   1.000  H
  H290     1.0000 0.00030  0.23820  0.01850  Biso   1.000  H
  H291     1.0000 0.50030  0.26180  0.01850  Biso   1.000  H
  H292     1.0000 0.49970  0.73820  0.51850  Biso   1.000  H
  C193     1.0000 0.01570  0.78810  0.64130  Biso   1.000  C
  C194     1.0000 0.98430  0.21190  0.14130  Biso   1.000  C
  C195     1.0000 0.48430  0.28810  0.14130  Biso   1.000  C
  C196     1.0000 0.51570  0.71190  0.64130  Biso   1.000  C
  H293     1.0000 0.03600  0.75340  0.67600  Biso   1.000  H
  H294     1.0000 0.96400  0.24660  0.17600  Biso   1.000  H
  H295     1.0000 0.46400  0.25340  0.17600  Biso   1.000  H
  H296     1.0000 0.53600  0.74660  0.67600  Biso   1.000  H
  H297     1.0000 0.01320  0.88670  0.65040  Biso   1.000  H
  H298     1.0000 0.98680  0.11330  0.15040  Biso   1.000  H
  H299     1.0000 0.48680  0.38670  0.15040  Biso   1.000  H
  H300     1.0000 0.51320  0.61330  0.65040  Biso   1.000  H
  C197     1.0000 0.98150  0.71970  0.65980  Biso   1.000  C
  C198     1.0000 0.01850  0.28030  0.15980  Biso   1.000  C
  C199     1.0000 0.51850  0.21970  0.15980  Biso   1.000  C
  C200     1.0000 0.48150  0.78030  0.65980  Biso   1.000  C
  H301     1.0000 0.96230  0.78660  0.67210  Biso   1.000  H
  H302     1.0000 0.03770  0.21340  0.17210  Biso   1.000  H
  H303     1.0000 0.53770  0.28660  0.17210  Biso   1.000  H
  H304     1.0000 0.46230  0.71340  0.67210  Biso   1.000  H
  H305     1.0000 0.98510  0.66070  0.70750  Biso   1.000  H
  H306     1.0000 0.01490  0.33930  0.20750  Biso   1.000  H
  H307     1.0000 0.51490  0.16070  0.20750  Biso   1.000  H
  H308     1.0000 0.48510  0.83930  0.70750  Biso   1.000  H
  H309     1.0000 0.97390  0.66510  0.61260  Biso   1.000  H
  H310     1.0000 0.02610  0.33490  0.11260  Biso   1.000  H
  H311     1.0000 0.52610  0.16510  0.11260  Biso   1.000  H
  H312     1.0000 0.47390  0.83490  0.61260  Biso   1.000  H
  C201     1.0000 0.01869  0.58690  0.39530  Biso   1.000  C
  C202     1.0000 0.98131  0.41310  0.89530  Biso   1.000  C
  C203     1.0000 0.48131  0.08690  0.89530  Biso   1.000  C
  C204     1.0000 0.51869  0.91310  0.39530  Biso   1.000  C
  H313     1.0000 0.02830  0.58150  0.33860  Biso   1.000  H
  H314     1.0000 0.97170  0.41850  0.83860  Biso   1.000  H
  H315     1.0000 0.47170  0.08150  0.83860  Biso   1.000  H
  H316     1.0000 0.52830  0.91850  0.33860  Biso   1.000  H
  H317     1.0000 0.00690  0.67670  0.40160  Biso   1.000  H
  H318     1.0000 0.99310  0.32330  0.90160  Biso   1.000  H
  H319     1.0000 0.49310  0.17670  0.90160  Biso   1.000  H
  H320     1.0000 0.50690  0.82330  0.40160  Biso   1.000  H
  H321     1.0000 0.02630  0.55160  0.34110  Biso   1.000  H
  H322     1.0000 0.97370  0.44840  0.84110  Biso   1.000  H
  H323     1.0000 0.47370  0.05160  0.84110  Biso   1.000  H
  H324     1.0000 0.52630  0.94840  0.34110  Biso   1.000  H
  H325     1.0000 0.01080  0.68210  0.38800  Biso   1.000  H
  H326     1.0000 0.98920  0.31790  0.88800  Biso   1.000  H
  H327     1.0000 0.48920  0.18210  0.88800  Biso   1.000  H
  H328     1.0000 0.51080  0.81790  0.38800  Biso   1.000  H
  C205     1.0000 0.98850  0.47900  0.40500  Biso   1.000  C
  C206     1.0000 0.01150  0.52100  0.90500  Biso   1.000  C
  C207     1.0000 0.51150  0.97900  0.90500  Biso   1.000  C
  C208     1.0000 0.48850  0.02100  0.40500  Biso   1.000  C
  H329     1.0000 0.98530  0.45590  0.46380  Biso   1.000  H
  H330     1.0000 0.01470  0.54410  0.96380  Biso   1.000  H
  H331     1.0000 0.51470  0.95590  0.96380  Biso   1.000  H
  H332     1.0000 0.48530  0.04410  0.46380  Biso   1.000  H
  H333     1.0000 0.99580  0.39520  0.37560  Biso   1.000  H
  H334     1.0000 0.00420  0.60480  0.87560  Biso   1.000  H
  H335     1.0000 0.50420  0.89520  0.87560  Biso   1.000  H
  H336     1.0000 0.49580  0.10480  0.37560  Biso   1.000  H
  C209     1.0000 0.98370  0.51100  0.42450  Biso   1.000  C
  C210     1.0000 0.01630  0.48900  0.92450  Biso   1.000  C
  C211     1.0000 0.51630  0.01100  0.92450  Biso   1.000  C
  C212     1.0000 0.48370  0.98900  0.42450  Biso   1.000  C
  H337     1.0000 0.96810  0.57020  0.45890  Biso   1.000  H
  H338     1.0000 0.03190  0.42980  0.95890  Biso   1.000  H
  H339     1.0000 0.53190  0.07020  0.95890  Biso   1.000  H
  H340     1.0000 0.46810  0.92980  0.45890  Biso   1.000  H
  H341     1.0000 0.99070  0.43000  0.45700  Biso   1.000  H
  H342     1.0000 0.00930  0.57000  0.95700  Biso   1.000  H
  H343     1.0000 0.50930  0.93000  0.95700  Biso   1.000  H
  H344     1.0000 0.49070  0.07000  0.45700  Biso   1.000  H
  C213     1.0000 0.95070  0.53400  0.36900  Biso   1.000  C
  C214     1.0000 0.04930  0.46600  0.86900  Biso   1.000  C
  C215     1.0000 0.54930  0.03400  0.86900  Biso   1.000  C
  C216     1.0000 0.45070  0.96600  0.36900  Biso   1.000  C
  H345     1.0000 0.92920  0.48500  0.39190  Biso   1.000  H
  H346     1.0000 0.07080  0.51500  0.89190  Biso   1.000  H
  H347     1.0000 0.57080  0.98500  0.89190  Biso   1.000  H
  H348     1.0000 0.42920  0.01500  0.39190  Biso   1.000  H
  H349     1.0000 0.94780  0.63220  0.37930  Biso   1.000  H
  H350     1.0000 0.05220  0.36780  0.87930  Biso   1.000  H
  H351     1.0000 0.55220  0.13220  0.87930  Biso   1.000  H
  H352     1.0000 0.44780  0.86780  0.37930  Biso   1.000  H
  C217     1.0000 0.96200  0.46700  0.34500  Biso   1.000  C
  C218     1.0000 0.03800  0.53300  0.84500  Biso   1.000  C
  C219     1.0000 0.53800  0.96700  0.84500  Biso   1.000  C
  C220     1.0000 0.46200  0.03300  0.34500  Biso   1.000  C
  H353     1.0000 0.97960  0.44010  0.30100  Biso   1.000  H
  H354     1.0000 0.02040  0.55990  0.80100  Biso   1.000  H
  H355     1.0000 0.52040  0.94010  0.80100  Biso   1.000  H
  H356     1.0000 0.47960  0.05990  0.30100  Biso   1.000  H
  H357     1.0000 0.94550  0.38940  0.35660  Biso   1.000  H
  H358     1.0000 0.05450  0.61060  0.85660  Biso   1.000  H
  H359     1.0000 0.55450  0.88940  0.85660  Biso   1.000  H
  H360     1.0000 0.44550  0.11060  0.35660  Biso   1.000  H
  C221     1.0000 0.95580  0.50440  0.27890  Biso   1.000  C
  C222     1.0000 0.04420  0.49560  0.77890  Biso   1.000  C
  C223     1.0000 0.54420  0.00440  0.77890  Biso   1.000  C
  C224     1.0000 0.45580  0.99560  0.27890  Biso   1.000  C
  H361     1.0000 0.93310  0.52760  0.24920  Biso   1.000  H
  H362     1.0000 0.06690  0.47240  0.74920  Biso   1.000  H
  H363     1.0000 0.56690  0.02760  0.74920  Biso   1.000  H
  H364     1.0000 0.43310  0.97240  0.24920  Biso   1.000  H
  H365     1.0000 0.96130  0.40810  0.27140  Biso   1.000  H
  H366     1.0000 0.03870  0.59190  0.77140  Biso   1.000  H
  H367     1.0000 0.53870  0.90810  0.77140  Biso   1.000  H
  H368     1.0000 0.46130  0.09190  0.27140  Biso   1.000  H
  H369     1.0000 0.97640  0.55850  0.25750  Biso   1.000  H
  H370     1.0000 0.02360  0.44150  0.75750  Biso   1.000  H
  H371     1.0000 0.52360  0.05850  0.75750  Biso   1.000  H
  H372     1.0000 0.47640  0.94150  0.25750  Biso   1.000  H
  C225     1.0000 0.94000  0.58750  0.31910  Biso   1.000  C
  C226     1.0000 0.06000  0.41250  0.81910  Biso   1.000  C
  C227     1.0000 0.56000  0.08750  0.81910  Biso   1.000  C
  C228     1.0000 0.44000  0.91250  0.31910  Biso   1.000  C
  H373     1.0000 0.92680  0.56720  0.26800  Biso   1.000  H
  H374     1.0000 0.07320  0.43280  0.76800  Biso   1.000  H
  H375     1.0000 0.57320  0.06720  0.76800  Biso   1.000  H
  H376     1.0000 0.42680  0.93280  0.26800  Biso   1.000  H
  H377     1.0000 0.95670  0.66440  0.31030  Biso   1.000  H
  H378     1.0000 0.04330  0.33560  0.81030  Biso   1.000  H
  H379     1.0000 0.54330  0.16440  0.81030  Biso   1.000  H
  H380     1.0000 0.45670  0.83560  0.31030  Biso   1.000  H
  H381     1.0000 0.92210  0.61010  0.36200  Biso   1.000  H
  H382     1.0000 0.07790  0.38990  0.86200  Biso   1.000  H
  H383     1.0000 0.57790  0.11010  0.86200  Biso   1.000  H
  H384     1.0000 0.42210  0.88990  0.36200  Biso   1.000  H
  N1       1.0000 0.24169  0.20220  0.92618  Biso   1.000  N
  N2       1.0000 0.75831  0.79780  0.42618  Biso   1.000  N
  N3       1.0000 0.25831  0.70220  0.42618  Biso   1.000  N
  N4       1.0000 0.74169  0.29780  0.92618  Biso   1.000  N
  N5       1.0000 0.27121  0.31710  0.05110  Biso   1.000  N
  N6       1.0000 0.72879  0.68290  0.55110  Biso   1.000  N
  N7       1.0000 0.22879  0.81710  0.55110  Biso   1.000  N
  N8       1.0000 0.77121  0.18290  0.05110  Biso   1.000  N
  N9       1.0000 0.06206  0.09300  0.73597  Biso   1.000  N
  N10      1.0000 0.93794  0.90700  0.23597  Biso   1.000  N
  N11      1.0000 0.43794  0.59300  0.23597  Biso   1.000  N
  N12      1.0000 0.56206  0.40700  0.73597  Biso   1.000  N
  N13      1.0000 0.99263  0.14770  0.72866  Biso   1.000  N
  N14      1.0000 0.00737  0.85230  0.22866  Biso   1.000  N
  N15      1.0000 0.50737  0.64770  0.22866  Biso   1.000  N
  N16      1.0000 0.49263  0.35230  0.72866  Biso   1.000  N
  N17      1.0000 0.83296  0.11390  0.58080  Biso   1.000  N
  N18      1.0000 0.16704  0.88610  0.08080  Biso   1.000  N
  N19      1.0000 0.66704  0.61390  0.08080  Biso   1.000  N
  N20      1.0000 0.33296  0.38610  0.58080  Biso   1.000  N
  N21      1.0000 0.05115  0.58090  0.45280  Biso   1.000  N
  N22      1.0000 0.94885  0.41910  0.95280  Biso   1.000  N
  N23      1.0000 0.44885  0.08090  0.95280  Biso   1.000  N
  N24      1.0000 0.55115  0.91910  0.45280  Biso   1.000  N
  O1       1.0000 0.20236  0.41360  0.87937  Biso   1.000  O
  O2       1.0000 0.79764  0.58640  0.37937  Biso   1.000  O
  O3       1.0000 0.29764  0.91360  0.37937  Biso   1.000  O
  O4       1.0000 0.70236  0.08640  0.87937  Biso   1.000  O
  O5       1.0000 0.17802  0.29590  0.77356  Biso   1.000  O
  O6       1.0000 0.82198  0.70410  0.27356  Biso   1.000  O
  O7       1.0000 0.32198  0.79590  0.27356  Biso   1.000  O
  O8       1.0000 0.67802  0.20410  0.77356  Biso   1.000  O
  O9       1.0000 0.21483  0.06670  0.82425  Biso   1.000  O
  O10      1.0000 0.78517  0.93330  0.32425  Biso   1.000  O
  O11      1.0000 0.28517  0.56670  0.32425  Biso   1.000  O
  O12      1.0000 0.71483  0.43330  0.82425  Biso   1.000  O
  O13      1.0000 0.24132  0.55720  0.02734  Biso   1.000  O
  O14      1.0000 0.75868  0.44280  0.52734  Biso   1.000  O
  O15      1.0000 0.25868  0.05720  0.52734  Biso   1.000  O
  O16      1.0000 0.74132  0.94280  0.02734  Biso   1.000  O
  O17      1.0000 0.27315  0.64470  0.13424  Biso   1.000  O
  O18      1.0000 0.72685  0.35530  0.63424  Biso   1.000  O
  O19      1.0000 0.22685  0.14470  0.63424  Biso   1.000  O
  O20      1.0000 0.77315  0.85530  0.13424  Biso   1.000  O
  O21      1.0000 0.30726  0.39880  0.16002  Biso   1.000  O
  O22      1.0000 0.69274  0.60120  0.66002  Biso   1.000  O
  O23      1.0000 0.19274  0.89880  0.66002  Biso   1.000  O
  O24      1.0000 0.80726  0.10120  0.16002  Biso   1.000  O
  O25      1.0000 0.08108  0.22460  0.60134  Biso   1.000  O
  O26      1.0000 0.91892  0.77540  0.10134  Biso   1.000  O
  O27      1.0000 0.41892  0.72460  0.10134  Biso   1.000  O
  O28      1.0000 0.58108  0.27540  0.60134  Biso   1.000  O
  O29      1.0000 0.14130  0.17310  0.62087  Biso   1.000  O
  O30      1.0000 0.85870  0.82690  0.12087  Biso   1.000  O
  O31      1.0000 0.35870  0.67310  0.12087  Biso   1.000  O
  O32      1.0000 0.64130  0.32690  0.62087  Biso   1.000  O
  O33      1.0000 0.12448  0.04090  0.76405  Biso   1.000  O
  O34      1.0000 0.87552  0.95910  0.26405  Biso   1.000  O
  O35      1.0000 0.37552  0.54090  0.26405  Biso   1.000  O
  O36      1.0000 0.62448  0.45910  0.76405  Biso   1.000  O
  O37      1.0000 0.99634  0.29490  0.59512  Biso   1.000  O
  O38      1.0000 0.00366  0.70510  0.09512  Biso   1.000  O
  O39      1.0000 0.50366  0.79490  0.09512  Biso   1.000  O
  O40      1.0000 0.49634  0.20510  0.59512  Biso   1.000  O
  O41      1.0000 0.93501  0.32990  0.59370  Biso   1.000  O
  O42      1.0000 0.06499  0.67010  0.09370  Biso   1.000  O
  O43      1.0000 0.56499  0.82990  0.09370  Biso   1.000  O
  O44      1.0000 0.43501  0.17010  0.59370  Biso   1.000  O
  O45      1.0000 0.92850  0.17450  0.73873  Biso   1.000  O
  O46      1.0000 0.07150  0.82550  0.23873  Biso   1.000  O
  O47      1.0000 0.57150  0.67450  0.23873  Biso   1.000  O
  O48      1.0000 0.42850  0.32550  0.73873  Biso   1.000  O
