data_image0
_cell_length_a       18.1047
_cell_length_b       26.696
_cell_length_c       18.618
_cell_angle_alpha    90
_cell_angle_beta     115.839
_cell_angle_gamma    90

_symmetry_space_group_name_H-M    "P 1"
_symmetry_int_tables_number       1

loop_
  _symmetry_equiv_pos_as_xyz
  'x, y, z'

loop_
  _atom_site_label
  _atom_site_occupancy
  _atom_site_fract_x
  _atom_site_fract_y
  _atom_site_fract_z
  _atom_site_thermal_displace_type
  _atom_site_B_iso_or_equiv
  _atom_site_type_symbol
  Cu1      1.0000 0.89086  0.04377  0.36735  Biso   1.000  Cu
  Cu2      1.0000 0.10914  0.04377  0.13265  Biso   1.000  Cu
  Cu3      1.0000 0.39086  0.54377  0.36735  Biso   1.000  Cu
  Cu4      1.0000 0.60914  0.54377  0.13265  Biso   1.000  Cu
  Cu5      1.0000 0.10914  0.95623  0.63265  Biso   1.000  Cu
  Cu6      1.0000 0.89086  0.95623  0.86735  Biso   1.000  Cu
  Cu7      1.0000 0.60914  0.45623  0.63265  Biso   1.000  Cu
  Cu8      1.0000 0.39086  0.45623  0.86735  Biso   1.000  Cu
  O1       1.0000 0.82934  0.10256  0.37094  Biso   1.000  O
  O2       1.0000 0.17066  0.10256  0.12906  Biso   1.000  O
  O3       1.0000 0.32934  0.60256  0.37094  Biso   1.000  O
  O4       1.0000 0.67066  0.60256  0.12906  Biso   1.000  O
  O5       1.0000 0.17066  0.89744  0.62906  Biso   1.000  O
  O6       1.0000 0.82934  0.89744  0.87094  Biso   1.000  O
  O7       1.0000 0.67066  0.39744  0.62906  Biso   1.000  O
  O8       1.0000 0.32934  0.39744  0.87094  Biso   1.000  O
  O9       1.0000 0.91571  0.02671  0.49646  Biso   1.000  O
  O10      1.0000 0.08429  0.02671  0.00354  Biso   1.000  O
  O11      1.0000 0.41571  0.52671  0.49646  Biso   1.000  O
  O12      1.0000 0.58429  0.52671  0.00354  Biso   1.000  O
  O13      1.0000 0.08429  0.97329  0.50354  Biso   1.000  O
  O14      1.0000 0.91571  0.97329  0.99646  Biso   1.000  O
  O15      1.0000 0.58429  0.47329  0.50354  Biso   1.000  O
  O16      1.0000 0.41571  0.47329  0.99646  Biso   1.000  O
  N1       1.0000 0.79026  0.99904  0.32363  Biso   1.000  N
  N2       1.0000 0.20974  0.99904  0.17637  Biso   1.000  N
  N3       1.0000 0.29026  0.49904  0.32363  Biso   1.000  N
  N4       1.0000 0.70974  0.49904  0.17637  Biso   1.000  N
  N5       1.0000 0.20974  0.00096  0.67637  Biso   1.000  N
  N6       1.0000 0.79026  0.00096  0.82363  Biso   1.000  N
  N7       1.0000 0.70974  0.50096  0.67637  Biso   1.000  N
  N8       1.0000 0.29026  0.50096  0.82363  Biso   1.000  N
  C1       1.0000 0.80691  0.13502  0.31467  Biso   1.000  C
  C2       1.0000 0.19309  0.13502  0.18533  Biso   1.000  C
  C3       1.0000 0.30691  0.63502  0.31467  Biso   1.000  C
  C4       1.0000 0.69309  0.63502  0.18533  Biso   1.000  C
  C5       1.0000 0.19309  0.86498  0.68533  Biso   1.000  C
  C6       1.0000 0.80691  0.86498  0.81467  Biso   1.000  C
  C7       1.0000 0.69309  0.36498  0.68533  Biso   1.000  C
  C8       1.0000 0.30691  0.36498  0.81467  Biso   1.000  C
  Cu9      1.0000 0.50000  0.10279  0.25000  Biso   1.000  Cu
  Cu10     1.0000 0.00000  0.60279  0.25000  Biso   1.000  Cu
  Cu11     1.0000 0.50000  0.89721  0.75000  Biso   1.000  Cu
  Cu12     1.0000 0.00000  0.39721  0.75000  Biso   1.000  Cu
  O17      1.0000 0.81407  0.13062  0.25221  Biso   1.000  O
  O18      1.0000 0.18593  0.13062  0.24779  Biso   1.000  O
  O19      1.0000 0.31407  0.63062  0.25221  Biso   1.000  O
  O20      1.0000 0.68593  0.63062  0.24779  Biso   1.000  O
  O21      1.0000 0.18593  0.86938  0.74779  Biso   1.000  O
  O22      1.0000 0.81407  0.86938  0.75221  Biso   1.000  O
  O23      1.0000 0.68593  0.36938  0.74779  Biso   1.000  O
  O24      1.0000 0.31407  0.36938  0.75221  Biso   1.000  O
  C9       1.0000 0.77742  0.18369  0.33479  Biso   1.000  C
  C10      1.0000 0.22258  0.18369  0.16521  Biso   1.000  C
  C11      1.0000 0.27742  0.68369  0.33479  Biso   1.000  C
  C12      1.0000 0.72258  0.68369  0.16521  Biso   1.000  C
  C13      1.0000 0.22258  0.81631  0.66521  Biso   1.000  C
  C14      1.0000 0.77742  0.81631  0.83479  Biso   1.000  C
  C15      1.0000 0.72258  0.31631  0.66521  Biso   1.000  C
  C16      1.0000 0.27742  0.31631  0.83479  Biso   1.000  C
  N9       1.0000 0.45639  0.05192  0.16239  Biso   1.000  N
  N10      1.0000 0.54361  0.05192  0.33761  Biso   1.000  N
  N11      1.0000 0.95639  0.55192  0.16239  Biso   1.000  N
  N12      1.0000 0.04361  0.55192  0.33761  Biso   1.000  N
  N13      1.0000 0.54361  0.94808  0.83761  Biso   1.000  N
  N14      1.0000 0.45639  0.94808  0.66239  Biso   1.000  N
  N15      1.0000 0.04361  0.44808  0.83761  Biso   1.000  N
  N16      1.0000 0.95639  0.44808  0.66239  Biso   1.000  N
  O25      1.0000 0.57492  0.15424  0.31672  Biso   1.000  O
  O26      1.0000 0.42508  0.15424  0.18328  Biso   1.000  O
  O27      1.0000 0.07492  0.65424  0.31672  Biso   1.000  O
  O28      1.0000 0.92508  0.65424  0.18328  Biso   1.000  O
  O29      1.0000 0.42508  0.84576  0.68328  Biso   1.000  O
  O30      1.0000 0.57492  0.84576  0.81672  Biso   1.000  O
  O31      1.0000 0.92508  0.34576  0.68328  Biso   1.000  O
  O32      1.0000 0.07492  0.34576  0.81672  Biso   1.000  O
  N17      1.0000 0.41811  0.89715  0.99373  Biso   1.000  N
  N18      1.0000 0.58189  0.89715  0.50627  Biso   1.000  N
  N19      1.0000 0.91811  0.39715  0.99373  Biso   1.000  N
  N20      1.0000 0.08189  0.39715  0.50627  Biso   1.000  N
  N21      1.0000 0.58189  0.10285  0.00627  Biso   1.000  N
  N22      1.0000 0.41811  0.10285  0.49373  Biso   1.000  N
  N23      1.0000 0.08189  0.60285  0.00627  Biso   1.000  N
  N24      1.0000 0.91811  0.60285  0.49373  Biso   1.000  N
  H1       1.0000 0.45700  0.89340  0.04100  Biso   1.000  H
  H2       1.0000 0.54300  0.89340  0.45900  Biso   1.000  H
  H3       1.0000 0.95700  0.39340  0.04100  Biso   1.000  H
  H4       1.0000 0.04300  0.39340  0.45900  Biso   1.000  H
  H5       1.0000 0.54300  0.10660  0.95900  Biso   1.000  H
  H6       1.0000 0.45700  0.10660  0.54100  Biso   1.000  H
  H7       1.0000 0.04300  0.60660  0.95900  Biso   1.000  H
  H8       1.0000 0.95700  0.60660  0.54100  Biso   1.000  H
  C17      1.0000 0.83420  0.22228  0.36530  Biso   1.000  C
  C18      1.0000 0.16580  0.22228  0.13470  Biso   1.000  C
  C19      1.0000 0.33420  0.72228  0.36530  Biso   1.000  C
  C20      1.0000 0.66580  0.72228  0.13470  Biso   1.000  C
  C21      1.0000 0.16580  0.77772  0.63470  Biso   1.000  C
  C22      1.0000 0.83420  0.77772  0.86530  Biso   1.000  C
  C23      1.0000 0.66580  0.27772  0.63470  Biso   1.000  C
  C24      1.0000 0.33420  0.27772  0.86530  Biso   1.000  C
  H9       1.0000 0.88750  0.21750  0.37140  Biso   1.000  H
  H10      1.0000 0.11250  0.21750  0.12860  Biso   1.000  H
  H11      1.0000 0.38750  0.71750  0.37140  Biso   1.000  H
  H12      1.0000 0.61250  0.71750  0.12860  Biso   1.000  H
  H13      1.0000 0.11250  0.78250  0.62860  Biso   1.000  H
  H14      1.0000 0.88750  0.78250  0.87140  Biso   1.000  H
  H15      1.0000 0.61250  0.28250  0.62860  Biso   1.000  H
  H16      1.0000 0.38750  0.28250  0.87140  Biso   1.000  H
  O33      1.0000 0.63888  0.11719  0.25414  Biso   1.000  O
  O34      1.0000 0.36112  0.11719  0.24586  Biso   1.000  O
  O35      1.0000 0.13888  0.61719  0.25414  Biso   1.000  O
  O36      1.0000 0.86112  0.61719  0.24586  Biso   1.000  O
  O37      1.0000 0.36112  0.88281  0.74586  Biso   1.000  O
  O38      1.0000 0.63888  0.88281  0.75414  Biso   1.000  O
  O39      1.0000 0.86112  0.38281  0.74586  Biso   1.000  O
  O40      1.0000 0.13888  0.38281  0.75414  Biso   1.000  O
  N25      1.0000 0.26383  0.83910  0.92654  Biso   1.000  N
  N26      1.0000 0.73617  0.83910  0.57346  Biso   1.000  N
  N27      1.0000 0.76383  0.33910  0.92654  Biso   1.000  N
  N28      1.0000 0.23617  0.33910  0.57346  Biso   1.000  N
  N29      1.0000 0.73617  0.16090  0.07346  Biso   1.000  N
  N30      1.0000 0.26383  0.16090  0.42654  Biso   1.000  N
  N31      1.0000 0.23617  0.66090  0.07346  Biso   1.000  N
  N32      1.0000 0.76383  0.66090  0.42654  Biso   1.000  N
  H17      1.0000 0.23390  0.84780  0.87790  Biso   1.000  H
  H18      1.0000 0.76610  0.84780  0.62210  Biso   1.000  H
  H19      1.0000 0.73390  0.34780  0.87790  Biso   1.000  H
  H20      1.0000 0.26610  0.34780  0.62210  Biso   1.000  H
  H21      1.0000 0.76610  0.15220  0.12210  Biso   1.000  H
  H22      1.0000 0.23390  0.15220  0.37790  Biso   1.000  H
  H23      1.0000 0.26610  0.65220  0.12210  Biso   1.000  H
  H24      1.0000 0.73390  0.65220  0.37790  Biso   1.000  H
  C25      1.0000 0.81270  0.26760  0.38670  Biso   1.000  C
  C26      1.0000 0.18730  0.26760  0.11330  Biso   1.000  C
  C27      1.0000 0.31270  0.76760  0.38670  Biso   1.000  C
  C28      1.0000 0.68730  0.76760  0.11330  Biso   1.000  C
  C29      1.0000 0.18730  0.73240  0.61330  Biso   1.000  C
  C30      1.0000 0.81270  0.73240  0.88670  Biso   1.000  C
  C31      1.0000 0.68730  0.23240  0.61330  Biso   1.000  C
  C32      1.0000 0.31270  0.23240  0.88670  Biso   1.000  C
  H25      1.0000 0.85140  0.29310  0.40660  Biso   1.000  H
  H26      1.0000 0.14860  0.29310  0.09340  Biso   1.000  H
  H27      1.0000 0.35140  0.79310  0.40660  Biso   1.000  H
  H28      1.0000 0.64860  0.79310  0.09340  Biso   1.000  H
  H29      1.0000 0.14860  0.70690  0.59340  Biso   1.000  H
  H30      1.0000 0.85140  0.70690  0.90660  Biso   1.000  H
  H31      1.0000 0.64860  0.20690  0.59340  Biso   1.000  H
  H32      1.0000 0.35140  0.20690  0.90660  Biso   1.000  H
  O41      1.0000 0.95071  0.98225  0.35866  Biso   1.000  O
  O42      1.0000 0.04929  0.98225  0.14134  Biso   1.000  O
  O43      1.0000 0.45071  0.48225  0.35866  Biso   1.000  O
  O44      1.0000 0.54929  0.48225  0.14134  Biso   1.000  O
  O45      1.0000 0.04929  0.01775  0.64134  Biso   1.000  O
  O46      1.0000 0.95071  0.01775  0.85866  Biso   1.000  O
  O47      1.0000 0.54929  0.51775  0.64134  Biso   1.000  O
  O48      1.0000 0.45071  0.51775  0.85866  Biso   1.000  O
  N33      1.0000 0.99663  0.91556  0.90138  Biso   1.000  N
  N34      1.0000 0.00337  0.91556  0.59862  Biso   1.000  N
  N35      1.0000 0.49663  0.41556  0.90138  Biso   1.000  N
  N36      1.0000 0.50337  0.41556  0.59862  Biso   1.000  N
  N37      1.0000 0.00337  0.08444  0.09862  Biso   1.000  N
  N38      1.0000 0.99663  0.08444  0.40138  Biso   1.000  N
  N39      1.0000 0.50337  0.58444  0.09862  Biso   1.000  N
  N40      1.0000 0.49663  0.58444  0.40138  Biso   1.000  N
  C33      1.0000 0.73450  0.27522  0.37870  Biso   1.000  C
  C34      1.0000 0.26550  0.27522  0.12130  Biso   1.000  C
  C35      1.0000 0.23450  0.77522  0.37870  Biso   1.000  C
  C36      1.0000 0.76550  0.77522  0.12130  Biso   1.000  C
  C37      1.0000 0.26550  0.72478  0.62130  Biso   1.000  C
  C38      1.0000 0.73450  0.72478  0.87870  Biso   1.000  C
  C39      1.0000 0.76550  0.22478  0.62130  Biso   1.000  C
  C40      1.0000 0.23450  0.22478  0.87870  Biso   1.000  C
  H33      1.0000 0.71970  0.30610  0.39160  Biso   1.000  H
  H34      1.0000 0.28030  0.30610  0.10840  Biso   1.000  H
  H35      1.0000 0.21970  0.80610  0.39160  Biso   1.000  H
  H36      1.0000 0.78030  0.80610  0.10840  Biso   1.000  H
  H37      1.0000 0.28030  0.69390  0.60840  Biso   1.000  H
  H38      1.0000 0.71970  0.69390  0.89160  Biso   1.000  H
  H39      1.0000 0.78030  0.19390  0.60840  Biso   1.000  H
  H40      1.0000 0.21970  0.19390  0.89160  Biso   1.000  H
  O49      1.0000 0.90720  0.00350  0.23189  Biso   1.000  O
  O50      1.0000 0.09280  0.00350  0.26811  Biso   1.000  O
  O51      1.0000 0.40720  0.50350  0.23189  Biso   1.000  O
  O52      1.0000 0.59280  0.50350  0.26811  Biso   1.000  O
  O53      1.0000 0.09280  0.99650  0.76811  Biso   1.000  O
  O54      1.0000 0.90720  0.99650  0.73189  Biso   1.000  O
  O55      1.0000 0.59280  0.49650  0.76811  Biso   1.000  O
  O56      1.0000 0.40720  0.49650  0.73189  Biso   1.000  O
  N41      1.0000 0.58971  0.85437  0.26920  Biso   1.000  N
  N42      1.0000 0.41029  0.85437  0.23080  Biso   1.000  N
  N43      1.0000 0.08971  0.35437  0.26920  Biso   1.000  N
  N44      1.0000 0.91029  0.35437  0.23080  Biso   1.000  N
  N45      1.0000 0.41029  0.14563  0.73080  Biso   1.000  N
  N46      1.0000 0.58971  0.14563  0.76920  Biso   1.000  N
  N47      1.0000 0.91029  0.64563  0.73080  Biso   1.000  N
  N48      1.0000 0.08971  0.64563  0.76920  Biso   1.000  N
  H41      1.0000 0.61220  0.86030  0.31970  Biso   1.000  H
  H42      1.0000 0.38780  0.86030  0.18030  Biso   1.000  H
  H43      1.0000 0.11220  0.36030  0.31970  Biso   1.000  H
  H44      1.0000 0.88780  0.36030  0.18030  Biso   1.000  H
  H45      1.0000 0.38780  0.13970  0.68030  Biso   1.000  H
  H46      1.0000 0.61220  0.13970  0.81970  Biso   1.000  H
  H47      1.0000 0.88780  0.63970  0.68030  Biso   1.000  H
  H48      1.0000 0.11220  0.63970  0.81970  Biso   1.000  H
  C41      1.0000 0.67830  0.23676  0.35140  Biso   1.000  C
  C42      1.0000 0.32170  0.23676  0.14860  Biso   1.000  C
  C43      1.0000 0.17830  0.73676  0.35140  Biso   1.000  C
  C44      1.0000 0.82170  0.73676  0.14860  Biso   1.000  C
  C45      1.0000 0.32170  0.76324  0.64860  Biso   1.000  C
  C46      1.0000 0.67830  0.76324  0.85140  Biso   1.000  C
  C47      1.0000 0.82170  0.26324  0.64860  Biso   1.000  C
  C48      1.0000 0.17830  0.26324  0.85140  Biso   1.000  C
  H49      1.0000 0.62580  0.24160  0.34760  Biso   1.000  H
  H50      1.0000 0.37420  0.24160  0.15240  Biso   1.000  H
  H51      1.0000 0.12580  0.74160  0.34760  Biso   1.000  H
  H52      1.0000 0.87420  0.74160  0.15240  Biso   1.000  H
  H53      1.0000 0.37420  0.75840  0.65240  Biso   1.000  H
  H54      1.0000 0.62580  0.75840  0.84760  Biso   1.000  H
  H55      1.0000 0.87420  0.25840  0.65240  Biso   1.000  H
  H56      1.0000 0.12580  0.25840  0.84760  Biso   1.000  H
  C49      1.0000 0.69849  0.19092  0.32942  Biso   1.000  C
  C50      1.0000 0.30151  0.19092  0.17058  Biso   1.000  C
  C51      1.0000 0.19849  0.69092  0.32942  Biso   1.000  C
  C52      1.0000 0.80151  0.69092  0.17058  Biso   1.000  C
  C53      1.0000 0.30151  0.80908  0.67058  Biso   1.000  C
  C54      1.0000 0.69849  0.80908  0.82942  Biso   1.000  C
  C55      1.0000 0.80151  0.30908  0.67058  Biso   1.000  C
  C56      1.0000 0.19849  0.30908  0.82942  Biso   1.000  C
  O57      1.0000 0.56796  0.88328  0.14808  Biso   1.000  O
  O58      1.0000 0.43204  0.88328  0.35192  Biso   1.000  O
  O59      1.0000 0.06796  0.38328  0.14808  Biso   1.000  O
  O60      1.0000 0.93204  0.38328  0.35192  Biso   1.000  O
  O61      1.0000 0.43204  0.11672  0.85192  Biso   1.000  O
  O62      1.0000 0.56796  0.11672  0.64808  Biso   1.000  O
  O63      1.0000 0.93204  0.61672  0.85192  Biso   1.000  O
  O64      1.0000 0.06796  0.61672  0.64808  Biso   1.000  O
  C57      1.0000 0.63440  0.15095  0.29733  Biso   1.000  C
  C58      1.0000 0.36560  0.15095  0.20267  Biso   1.000  C
  C59      1.0000 0.13440  0.65095  0.29733  Biso   1.000  C
  C60      1.0000 0.86560  0.65095  0.20267  Biso   1.000  C
  C61      1.0000 0.36560  0.84905  0.70267  Biso   1.000  C
  C62      1.0000 0.63440  0.84905  0.79733  Biso   1.000  C
  C63      1.0000 0.86560  0.34905  0.70267  Biso   1.000  C
  C64      1.0000 0.13440  0.34905  0.79733  Biso   1.000  C
  O65      1.0000 0.31757  0.94940  0.91371  Biso   1.000  O
  O66      1.0000 0.68243  0.94940  0.58629  Biso   1.000  O
  O67      1.0000 0.81757  0.44940  0.91371  Biso   1.000  O
  O68      1.0000 0.18243  0.44940  0.58629  Biso   1.000  O
  O69      1.0000 0.68243  0.05060  0.08629  Biso   1.000  O
  O70      1.0000 0.31757  0.05060  0.41371  Biso   1.000  O
  O71      1.0000 0.18243  0.55060  0.08629  Biso   1.000  O
  O72      1.0000 0.81757  0.55060  0.41371  Biso   1.000  O
  O73      1.0000 0.27085  0.83410  0.05030  Biso   1.000  O
  O74      1.0000 0.72915  0.83410  0.44970  Biso   1.000  O
  O75      1.0000 0.77085  0.33410  0.05030  Biso   1.000  O
  O76      1.0000 0.22915  0.33410  0.44970  Biso   1.000  O
  O77      1.0000 0.72915  0.16590  0.94970  Biso   1.000  O
  O78      1.0000 0.27085  0.16590  0.55030  Biso   1.000  O
  O79      1.0000 0.22915  0.66590  0.94970  Biso   1.000  O
  O80      1.0000 0.77085  0.66590  0.55030  Biso   1.000  O
  C65      1.0000 0.94331  0.97425  0.28810  Biso   1.000  C
  C66      1.0000 0.05669  0.97425  0.21190  Biso   1.000  C
  C67      1.0000 0.44331  0.47425  0.28810  Biso   1.000  C
  C68      1.0000 0.55669  0.47425  0.21190  Biso   1.000  C
  C69      1.0000 0.05669  0.02575  0.71190  Biso   1.000  C
  C70      1.0000 0.94331  0.02575  0.78810  Biso   1.000  C
  C71      1.0000 0.55669  0.52575  0.71190  Biso   1.000  C
  C72      1.0000 0.44331  0.52575  0.78810  Biso   1.000  C
  C73      1.0000 0.97664  0.92646  0.27203  Biso   1.000  C
  C74      1.0000 0.02336  0.92646  0.22797  Biso   1.000  C
  C75      1.0000 0.47664  0.42646  0.27203  Biso   1.000  C
  C76      1.0000 0.52336  0.42646  0.22797  Biso   1.000  C
  C77      1.0000 0.02336  0.07354  0.72797  Biso   1.000  C
  C78      1.0000 0.97664  0.07354  0.77203  Biso   1.000  C
  C79      1.0000 0.52336  0.57354  0.72797  Biso   1.000  C
  C80      1.0000 0.47664  0.57354  0.77203  Biso   1.000  C
  C81      1.0000 0.95560  0.88133  0.29430  Biso   1.000  C
  C82      1.0000 0.04440  0.88133  0.20570  Biso   1.000  C
  C83      1.0000 0.45560  0.38133  0.29430  Biso   1.000  C
  C84      1.0000 0.54440  0.38133  0.20570  Biso   1.000  C
  C85      1.0000 0.04440  0.11867  0.70570  Biso   1.000  C
  C86      1.0000 0.95560  0.11867  0.79430  Biso   1.000  C
  C87      1.0000 0.54440  0.61867  0.70570  Biso   1.000  C
  C88      1.0000 0.45560  0.61867  0.79430  Biso   1.000  C
  H57      1.0000 0.92660  0.88110  0.32500  Biso   1.000  H
  H58      1.0000 0.07340  0.88110  0.17500  Biso   1.000  H
  H59      1.0000 0.42660  0.38110  0.32500  Biso   1.000  H
  H60      1.0000 0.57340  0.38110  0.17500  Biso   1.000  H
  H61      1.0000 0.07340  0.11890  0.67500  Biso   1.000  H
  H62      1.0000 0.92660  0.11890  0.82500  Biso   1.000  H
  H63      1.0000 0.57340  0.61890  0.67500  Biso   1.000  H
  H64      1.0000 0.42660  0.61890  0.82500  Biso   1.000  H
  C89      1.0000 0.97740  0.83617  0.27140  Biso   1.000  C
  C90      1.0000 0.02260  0.83617  0.22860  Biso   1.000  C
  C91      1.0000 0.47740  0.33617  0.27140  Biso   1.000  C
  C92      1.0000 0.52260  0.33617  0.22860  Biso   1.000  C
  C93      1.0000 0.02260  0.16383  0.72860  Biso   1.000  C
  C94      1.0000 0.97740  0.16383  0.77140  Biso   1.000  C
  C95      1.0000 0.52260  0.66383  0.72860  Biso   1.000  C
  C96      1.0000 0.47740  0.66383  0.77140  Biso   1.000  C
  H65      1.0000 0.96120  0.80600  0.28520  Biso   1.000  H
  H66      1.0000 0.03880  0.80600  0.21480  Biso   1.000  H
  H67      1.0000 0.46120  0.30600  0.28520  Biso   1.000  H
  H68      1.0000 0.53880  0.30600  0.21480  Biso   1.000  H
  H69      1.0000 0.03880  0.19400  0.71480  Biso   1.000  H
  H70      1.0000 0.96120  0.19400  0.78520  Biso   1.000  H
  H71      1.0000 0.53880  0.69400  0.71480  Biso   1.000  H
  H72      1.0000 0.46120  0.69400  0.78520  Biso   1.000  H
  C97      1.0000 0.74120  0.99754  0.24820  Biso   1.000  C
  C98      1.0000 0.25880  0.99754  0.25180  Biso   1.000  C
  C99      1.0000 0.24120  0.49754  0.24820  Biso   1.000  C
  C100     1.0000 0.75880  0.49754  0.25180  Biso   1.000  C
  C101     1.0000 0.25880  0.00246  0.75180  Biso   1.000  C
  C102     1.0000 0.74120  0.00246  0.74820  Biso   1.000  C
  C103     1.0000 0.75880  0.50246  0.75180  Biso   1.000  C
  C104     1.0000 0.24120  0.50246  0.74820  Biso   1.000  C
  H73      1.0000 0.74530  0.02260  0.21550  Biso   1.000  H
  H74      1.0000 0.25470  0.02260  0.28450  Biso   1.000  H
  H75      1.0000 0.24530  0.52260  0.21550  Biso   1.000  H
  H76      1.0000 0.75470  0.52260  0.28450  Biso   1.000  H
  H77      1.0000 0.25470  0.97740  0.78450  Biso   1.000  H
  H78      1.0000 0.74530  0.97740  0.71550  Biso   1.000  H
  H79      1.0000 0.75470  0.47740  0.78450  Biso   1.000  H
  H80      1.0000 0.24530  0.47740  0.71550  Biso   1.000  H
  C105     1.0000 0.68300  0.96069  0.21380  Biso   1.000  C
  C106     1.0000 0.31700  0.96069  0.28620  Biso   1.000  C
  C107     1.0000 0.18300  0.46069  0.21380  Biso   1.000  C
  C108     1.0000 0.81700  0.46069  0.28620  Biso   1.000  C
  C109     1.0000 0.31700  0.03931  0.78620  Biso   1.000  C
  C110     1.0000 0.68300  0.03931  0.71380  Biso   1.000  C
  C111     1.0000 0.81700  0.53931  0.78620  Biso   1.000  C
  C112     1.0000 0.18300  0.53931  0.71380  Biso   1.000  C
  H81      1.0000 0.65180  0.96030  0.15870  Biso   1.000  H
  H82      1.0000 0.34820  0.96030  0.34130  Biso   1.000  H
  H83      1.0000 0.15180  0.46030  0.15870  Biso   1.000  H
  H84      1.0000 0.84820  0.46030  0.34130  Biso   1.000  H
  H85      1.0000 0.34820  0.03970  0.84130  Biso   1.000  H
  H86      1.0000 0.65180  0.03970  0.65870  Biso   1.000  H
  H87      1.0000 0.84820  0.53970  0.84130  Biso   1.000  H
  H88      1.0000 0.15180  0.53970  0.65870  Biso   1.000  H
  C113     1.0000 0.67087  0.92486  0.25956  Biso   1.000  C
  C114     1.0000 0.32913  0.92486  0.24044  Biso   1.000  C
  C115     1.0000 0.17087  0.42486  0.25956  Biso   1.000  C
  C116     1.0000 0.82913  0.42486  0.24044  Biso   1.000  C
  C117     1.0000 0.32913  0.07514  0.74044  Biso   1.000  C
  C118     1.0000 0.67087  0.07514  0.75956  Biso   1.000  C
  C119     1.0000 0.82913  0.57514  0.74044  Biso   1.000  C
  C120     1.0000 0.17087  0.57514  0.75956  Biso   1.000  C
  C121     1.0000 0.72420  0.92621  0.33810  Biso   1.000  C
  C122     1.0000 0.27580  0.92621  0.16190  Biso   1.000  C
  C123     1.0000 0.22420  0.42621  0.33810  Biso   1.000  C
  C124     1.0000 0.77580  0.42621  0.16190  Biso   1.000  C
  C125     1.0000 0.27580  0.07379  0.66190  Biso   1.000  C
  C126     1.0000 0.72420  0.07379  0.83810  Biso   1.000  C
  C127     1.0000 0.77580  0.57379  0.66190  Biso   1.000  C
  C128     1.0000 0.22420  0.57379  0.83810  Biso   1.000  C
  H89      1.0000 0.72130  0.90180  0.37240  Biso   1.000  H
  H90      1.0000 0.27870  0.90180  0.12760  Biso   1.000  H
  H91      1.0000 0.22130  0.40180  0.37240  Biso   1.000  H
  H92      1.0000 0.77870  0.40180  0.12760  Biso   1.000  H
  H93      1.0000 0.27870  0.09820  0.62760  Biso   1.000  H
  H94      1.0000 0.72130  0.09820  0.87240  Biso   1.000  H
  H95      1.0000 0.77870  0.59820  0.62760  Biso   1.000  H
  H96      1.0000 0.22130  0.59820  0.87240  Biso   1.000  H
  C129     1.0000 0.78200  0.96303  0.36730  Biso   1.000  C
  C130     1.0000 0.21800  0.96303  0.13270  Biso   1.000  C
  C131     1.0000 0.28200  0.46303  0.36730  Biso   1.000  C
  C132     1.0000 0.71800  0.46303  0.13270  Biso   1.000  C
  C133     1.0000 0.21800  0.03697  0.63270  Biso   1.000  C
  C134     1.0000 0.78200  0.03697  0.86730  Biso   1.000  C
  C135     1.0000 0.71800  0.53697  0.63270  Biso   1.000  C
  C136     1.0000 0.28200  0.53697  0.86730  Biso   1.000  C
  H97      1.0000 0.81760  0.96250  0.42140  Biso   1.000  H
  H98      1.0000 0.18240  0.96250  0.07860  Biso   1.000  H
  H99      1.0000 0.31760  0.46250  0.42140  Biso   1.000  H
  H100     1.0000 0.68240  0.46250  0.07860  Biso   1.000  H
  H101     1.0000 0.18240  0.03750  0.57860  Biso   1.000  H
  H102     1.0000 0.81760  0.03750  0.92140  Biso   1.000  H
  H103     1.0000 0.68240  0.53750  0.57860  Biso   1.000  H
  H104     1.0000 0.31760  0.53750  0.92140  Biso   1.000  H
  C137     1.0000 0.60485  0.88547  0.22070  Biso   1.000  C
  C138     1.0000 0.39515  0.88547  0.27930  Biso   1.000  C
  C139     1.0000 0.10485  0.38547  0.22070  Biso   1.000  C
  C140     1.0000 0.89515  0.38547  0.27930  Biso   1.000  C
  C141     1.0000 0.39515  0.11453  0.77930  Biso   1.000  C
  C142     1.0000 0.60485  0.11453  0.72070  Biso   1.000  C
  C143     1.0000 0.89515  0.61453  0.77930  Biso   1.000  C
  C144     1.0000 0.10485  0.61453  0.72070  Biso   1.000  C
  C145     1.0000 0.53602  0.81070  0.23900  Biso   1.000  C
  C146     1.0000 0.46398  0.81070  0.26100  Biso   1.000  C
  C147     1.0000 0.03602  0.31070  0.23900  Biso   1.000  C
  C148     1.0000 0.96398  0.31070  0.26100  Biso   1.000  C
  C149     1.0000 0.46398  0.18930  0.76100  Biso   1.000  C
  C150     1.0000 0.53602  0.18930  0.73900  Biso   1.000  C
  C151     1.0000 0.96398  0.68930  0.76100  Biso   1.000  C
  C152     1.0000 0.03602  0.68930  0.73900  Biso   1.000  C
  H105     1.0000 0.51380  0.81060  0.18070  Biso   1.000  H
  H106     1.0000 0.48620  0.81060  0.31930  Biso   1.000  H
  H107     1.0000 0.01380  0.31060  0.18070  Biso   1.000  H
  H108     1.0000 0.98620  0.31060  0.31930  Biso   1.000  H
  H109     1.0000 0.48620  0.18940  0.81930  Biso   1.000  H
  H110     1.0000 0.51380  0.18940  0.68070  Biso   1.000  H
  H111     1.0000 0.98620  0.68940  0.81930  Biso   1.000  H
  H112     1.0000 0.01380  0.68940  0.68070  Biso   1.000  H
  C153     1.0000 0.58740  0.76302  0.27060  Biso   1.000  C
  C154     1.0000 0.41260  0.76302  0.22940  Biso   1.000  C
  C155     1.0000 0.08740  0.26302  0.27060  Biso   1.000  C
  C156     1.0000 0.91260  0.26302  0.22940  Biso   1.000  C
  C157     1.0000 0.41260  0.23698  0.72940  Biso   1.000  C
  C158     1.0000 0.58740  0.23698  0.77060  Biso   1.000  C
  C159     1.0000 0.91260  0.73698  0.72940  Biso   1.000  C
  C160     1.0000 0.08740  0.73698  0.77060  Biso   1.000  C
  H113     1.0000 0.63180  0.76280  0.25460  Biso   1.000  H
  H114     1.0000 0.36820  0.76280  0.24540  Biso   1.000  H
  H115     1.0000 0.13180  0.26280  0.25460  Biso   1.000  H
  H116     1.0000 0.86820  0.26280  0.24540  Biso   1.000  H
  H117     1.0000 0.36820  0.23720  0.74540  Biso   1.000  H
  H118     1.0000 0.63180  0.23720  0.75460  Biso   1.000  H
  H119     1.0000 0.86820  0.73720  0.74540  Biso   1.000  H
  H120     1.0000 0.13180  0.73720  0.75460  Biso   1.000  H
  H121     1.0000 0.61140  0.76280  0.32840  Biso   1.000  H
  H122     1.0000 0.38860  0.76280  0.17160  Biso   1.000  H
  H123     1.0000 0.11140  0.26280  0.32840  Biso   1.000  H
  H124     1.0000 0.88860  0.26280  0.17160  Biso   1.000  H
  H125     1.0000 0.38860  0.23720  0.67160  Biso   1.000  H
  H126     1.0000 0.61140  0.23720  0.82840  Biso   1.000  H
  H127     1.0000 0.88860  0.73720  0.67160  Biso   1.000  H
  H128     1.0000 0.11140  0.73720  0.82840  Biso   1.000  H
  C161     1.0000 0.53490  0.71648  0.23830  Biso   1.000  C
  C162     1.0000 0.46510  0.71648  0.26170  Biso   1.000  C
  C163     1.0000 0.03490  0.21648  0.23830  Biso   1.000  C
  C164     1.0000 0.96510  0.21648  0.26170  Biso   1.000  C
  C165     1.0000 0.46510  0.28352  0.76170  Biso   1.000  C
  C166     1.0000 0.53490  0.28352  0.73830  Biso   1.000  C
  C167     1.0000 0.96510  0.78352  0.76170  Biso   1.000  C
  C168     1.0000 0.03490  0.78352  0.73830  Biso   1.000  C
  H129     1.0000 0.51320  0.71570  0.18060  Biso   1.000  H
  H130     1.0000 0.48680  0.71570  0.31940  Biso   1.000  H
  H131     1.0000 0.01320  0.21570  0.18060  Biso   1.000  H
  H132     1.0000 0.98680  0.21570  0.31940  Biso   1.000  H
  H133     1.0000 0.48680  0.28430  0.81940  Biso   1.000  H
  H134     1.0000 0.51320  0.28430  0.68060  Biso   1.000  H
  H135     1.0000 0.98680  0.78430  0.81940  Biso   1.000  H
  H136     1.0000 0.01320  0.78430  0.68060  Biso   1.000  H
  H137     1.0000 0.56830  0.68680  0.25940  Biso   1.000  H
  H138     1.0000 0.43170  0.68680  0.24060  Biso   1.000  H
  H139     1.0000 0.06830  0.18680  0.25940  Biso   1.000  H
  H140     1.0000 0.93170  0.18680  0.24060  Biso   1.000  H
  H141     1.0000 0.43170  0.31320  0.74060  Biso   1.000  H
  H142     1.0000 0.56830  0.31320  0.75940  Biso   1.000  H
  H143     1.0000 0.93170  0.81320  0.74060  Biso   1.000  H
  H144     1.0000 0.06830  0.81320  0.75940  Biso   1.000  H
  C169     1.0000 0.37630  0.04400  0.11350  Biso   1.000  C
  C170     1.0000 0.62370  0.04400  0.38650  Biso   1.000  C
  C171     1.0000 0.87630  0.54400  0.11350  Biso   1.000  C
  C172     1.0000 0.12370  0.54400  0.38650  Biso   1.000  C
  C173     1.0000 0.62370  0.95600  0.88650  Biso   1.000  C
  C174     1.0000 0.37630  0.95600  0.61350  Biso   1.000  C
  C175     1.0000 0.12370  0.45600  0.88650  Biso   1.000  C
  C176     1.0000 0.87630  0.45600  0.61350  Biso   1.000  C
  H145     1.0000 0.33680  0.06260  0.12120  Biso   1.000  H
  H146     1.0000 0.66320  0.06260  0.37880  Biso   1.000  H
  H147     1.0000 0.83680  0.56260  0.12120  Biso   1.000  H
  H148     1.0000 0.16320  0.56260  0.37880  Biso   1.000  H
  H149     1.0000 0.66320  0.93740  0.87880  Biso   1.000  H
  H150     1.0000 0.33680  0.93740  0.62120  Biso   1.000  H
  H151     1.0000 0.16320  0.43740  0.87880  Biso   1.000  H
  H152     1.0000 0.83680  0.43740  0.62120  Biso   1.000  H
  C177     1.0000 0.35170  0.01000  0.05380  Biso   1.000  C
  C178     1.0000 0.64830  0.01000  0.44620  Biso   1.000  C
  C179     1.0000 0.85170  0.51000  0.05380  Biso   1.000  C
  C180     1.0000 0.14830  0.51000  0.44620  Biso   1.000  C
  C181     1.0000 0.64830  0.99000  0.94620  Biso   1.000  C
  C182     1.0000 0.35170  0.99000  0.55380  Biso   1.000  C
  C183     1.0000 0.14830  0.49000  0.94620  Biso   1.000  C
  C184     1.0000 0.85170  0.49000  0.55380  Biso   1.000  C
  H153     1.0000 0.29620  0.00760  0.01930  Biso   1.000  H
  H154     1.0000 0.70380  0.00760  0.48070  Biso   1.000  H
  H155     1.0000 0.79620  0.50760  0.01930  Biso   1.000  H
  H156     1.0000 0.20380  0.50760  0.48070  Biso   1.000  H
  H157     1.0000 0.70380  0.99240  0.98070  Biso   1.000  H
  H158     1.0000 0.29620  0.99240  0.51930  Biso   1.000  H
  H159     1.0000 0.20380  0.49240  0.98070  Biso   1.000  H
  H160     1.0000 0.79620  0.49240  0.51930  Biso   1.000  H
  C185     1.0000 0.40590  0.97893  0.04228  Biso   1.000  C
  C186     1.0000 0.59410  0.97893  0.45772  Biso   1.000  C
  C187     1.0000 0.90590  0.47893  0.04228  Biso   1.000  C
  C188     1.0000 0.09410  0.47893  0.45772  Biso   1.000  C
  C189     1.0000 0.59410  0.02107  0.95772  Biso   1.000  C
  C190     1.0000 0.40590  0.02107  0.54228  Biso   1.000  C
  C191     1.0000 0.09410  0.52107  0.95772  Biso   1.000  C
  C192     1.0000 0.90590  0.52107  0.54228  Biso   1.000  C
  C193     1.0000 0.48600  0.99104  0.08530  Biso   1.000  C
  C194     1.0000 0.51400  0.99104  0.41470  Biso   1.000  C
  C195     1.0000 0.98600  0.49104  0.08530  Biso   1.000  C
  C196     1.0000 0.01400  0.49104  0.41470  Biso   1.000  C
  C197     1.0000 0.51400  0.00896  0.91470  Biso   1.000  C
  C198     1.0000 0.48600  0.00896  0.58530  Biso   1.000  C
  C199     1.0000 0.01400  0.50896  0.91470  Biso   1.000  C
  C200     1.0000 0.98600  0.50896  0.58530  Biso   1.000  C
  H161     1.0000 0.52600  0.97440  0.07580  Biso   1.000  H
  H162     1.0000 0.47400  0.97440  0.42420  Biso   1.000  H
  H163     1.0000 0.02600  0.47440  0.07580  Biso   1.000  H
  H164     1.0000 0.97400  0.47440  0.42420  Biso   1.000  H
  H165     1.0000 0.47400  0.02560  0.92420  Biso   1.000  H
  H166     1.0000 0.52600  0.02560  0.57580  Biso   1.000  H
  H167     1.0000 0.97400  0.52560  0.92420  Biso   1.000  H
  H168     1.0000 0.02600  0.52560  0.57580  Biso   1.000  H
  C201     1.0000 0.50920  0.02823  0.14380  Biso   1.000  C
  C202     1.0000 0.49080  0.02823  0.35620  Biso   1.000  C
  C203     1.0000 0.00920  0.52823  0.14380  Biso   1.000  C
  C204     1.0000 0.99080  0.52823  0.35620  Biso   1.000  C
  C205     1.0000 0.49080  0.97177  0.85620  Biso   1.000  C
  C206     1.0000 0.50920  0.97177  0.64380  Biso   1.000  C
  C207     1.0000 0.99080  0.47177  0.85620  Biso   1.000  C
  C208     1.0000 0.00920  0.47177  0.64380  Biso   1.000  C
  H169     1.0000 0.56450  0.03660  0.17080  Biso   1.000  H
  H170     1.0000 0.43550  0.03660  0.32920  Biso   1.000  H
  H171     1.0000 0.06450  0.53660  0.17080  Biso   1.000  H
  H172     1.0000 0.93550  0.53660  0.32920  Biso   1.000  H
  H173     1.0000 0.43550  0.96340  0.82920  Biso   1.000  H
  H174     1.0000 0.56450  0.96340  0.67080  Biso   1.000  H
  H175     1.0000 0.93550  0.46340  0.82920  Biso   1.000  H
  H176     1.0000 0.06450  0.46340  0.67080  Biso   1.000  H
  C209     1.0000 0.37700  0.94024  0.97725  Biso   1.000  C
  C210     1.0000 0.62300  0.94024  0.52275  Biso   1.000  C
  C211     1.0000 0.87700  0.44024  0.97725  Biso   1.000  C
  C212     1.0000 0.12300  0.44024  0.52275  Biso   1.000  C
  C213     1.0000 0.62300  0.05976  0.02275  Biso   1.000  C
  C214     1.0000 0.37700  0.05976  0.47725  Biso   1.000  C
  C215     1.0000 0.12300  0.55976  0.02275  Biso   1.000  C
  C216     1.0000 0.87700  0.55976  0.47725  Biso   1.000  C
  C217     1.0000 0.40215  0.85544  0.93737  Biso   1.000  C
  C218     1.0000 0.59785  0.85544  0.56263  Biso   1.000  C
  C219     1.0000 0.90215  0.35544  0.93737  Biso   1.000  C
  C220     1.0000 0.09785  0.35544  0.56263  Biso   1.000  C
  C221     1.0000 0.59785  0.14456  0.06263  Biso   1.000  C
  C222     1.0000 0.40215  0.14456  0.43737  Biso   1.000  C
  C223     1.0000 0.09785  0.64456  0.06263  Biso   1.000  C
  C224     1.0000 0.90215  0.64456  0.43737  Biso   1.000  C
  H177     1.0000 0.37700  0.86870  0.88280  Biso   1.000  H
  H178     1.0000 0.62300  0.86870  0.61720  Biso   1.000  H
  H179     1.0000 0.87700  0.36870  0.88280  Biso   1.000  H
  H180     1.0000 0.12300  0.36870  0.61720  Biso   1.000  H
  H181     1.0000 0.62300  0.13130  0.11720  Biso   1.000  H
  H182     1.0000 0.37700  0.13130  0.38280  Biso   1.000  H
  H183     1.0000 0.12300  0.63130  0.11720  Biso   1.000  H
  H184     1.0000 0.87700  0.63130  0.38280  Biso   1.000  H
  C225     1.0000 0.48420  0.83113  0.95300  Biso   1.000  C
  C226     1.0000 0.51580  0.83113  0.54700  Biso   1.000  C
  C227     1.0000 0.98420  0.33113  0.95300  Biso   1.000  C
  C228     1.0000 0.01580  0.33113  0.54700  Biso   1.000  C
  C229     1.0000 0.51580  0.16887  0.04700  Biso   1.000  C
  C230     1.0000 0.48420  0.16887  0.45300  Biso   1.000  C
  C231     1.0000 0.01580  0.66887  0.04700  Biso   1.000  C
  C232     1.0000 0.98420  0.66887  0.45300  Biso   1.000  C
  H185     1.0000 0.51790  0.85530  0.94190  Biso   1.000  H
  H186     1.0000 0.48210  0.85530  0.55810  Biso   1.000  H
  H187     1.0000 0.01790  0.35530  0.94190  Biso   1.000  H
  H188     1.0000 0.98210  0.35530  0.55810  Biso   1.000  H
  H189     1.0000 0.48210  0.14470  0.05810  Biso   1.000  H
  H190     1.0000 0.51790  0.14470  0.44190  Biso   1.000  H
  H191     1.0000 0.98210  0.64470  0.05810  Biso   1.000  H
  H192     1.0000 0.01790  0.64470  0.44190  Biso   1.000  H
  H193     1.0000 0.51260  0.82210  0.00890  Biso   1.000  H
  H194     1.0000 0.48740  0.82210  0.49110  Biso   1.000  H
  H195     1.0000 0.01260  0.32210  0.00890  Biso   1.000  H
  H196     1.0000 0.98740  0.32210  0.49110  Biso   1.000  H
  H197     1.0000 0.48740  0.17790  0.99110  Biso   1.000  H
  H198     1.0000 0.51260  0.17790  0.50890  Biso   1.000  H
  H199     1.0000 0.98740  0.67790  0.99110  Biso   1.000  H
  H200     1.0000 0.01260  0.67790  0.50890  Biso   1.000  H
  C233     1.0000 0.47470  0.78503  0.90280  Biso   1.000  C
  C234     1.0000 0.52530  0.78503  0.59720  Biso   1.000  C
  C235     1.0000 0.97470  0.28503  0.90280  Biso   1.000  C
  C236     1.0000 0.02530  0.28503  0.59720  Biso   1.000  C
  C237     1.0000 0.52530  0.21497  0.09720  Biso   1.000  C
  C238     1.0000 0.47470  0.21497  0.40280  Biso   1.000  C
  C239     1.0000 0.02530  0.71497  0.09720  Biso   1.000  C
  C240     1.0000 0.97470  0.71497  0.40280  Biso   1.000  C
  H201     1.0000 0.45280  0.79450  0.84710  Biso   1.000  H
  H202     1.0000 0.54720  0.79450  0.65290  Biso   1.000  H
  H203     1.0000 0.95280  0.29450  0.84710  Biso   1.000  H
  H204     1.0000 0.04720  0.29450  0.65290  Biso   1.000  H
  H205     1.0000 0.54720  0.20550  0.15290  Biso   1.000  H
  H206     1.0000 0.45280  0.20550  0.34710  Biso   1.000  H
  H207     1.0000 0.04720  0.70550  0.15290  Biso   1.000  H
  H208     1.0000 0.95280  0.70550  0.34710  Biso   1.000  H
  H209     1.0000 0.52800  0.76980  0.91790  Biso   1.000  H
  H210     1.0000 0.47200  0.76980  0.58210  Biso   1.000  H
  H211     1.0000 0.02800  0.26980  0.91790  Biso   1.000  H
  H212     1.0000 0.97200  0.26980  0.58210  Biso   1.000  H
  H213     1.0000 0.47200  0.23020  0.08210  Biso   1.000  H
  H214     1.0000 0.52800  0.23020  0.41790  Biso   1.000  H
  H215     1.0000 0.97200  0.73020  0.08210  Biso   1.000  H
  H216     1.0000 0.02800  0.73020  0.41790  Biso   1.000  H
  C241     1.0000 0.41810  0.74754  0.91360  Biso   1.000  C
  C242     1.0000 0.58190  0.74754  0.58640  Biso   1.000  C
  C243     1.0000 0.91810  0.24754  0.91360  Biso   1.000  C
  C244     1.0000 0.08190  0.24754  0.58640  Biso   1.000  C
  C245     1.0000 0.58190  0.25246  0.08640  Biso   1.000  C
  C246     1.0000 0.41810  0.25246  0.41360  Biso   1.000  C
  C247     1.0000 0.08190  0.75246  0.08640  Biso   1.000  C
  C248     1.0000 0.91810  0.75246  0.41360  Biso   1.000  C
  H217     1.0000 0.44240  0.73550  0.96820  Biso   1.000  H
  H218     1.0000 0.55760  0.73550  0.53180  Biso   1.000  H
  H219     1.0000 0.94240  0.23550  0.96820  Biso   1.000  H
  H220     1.0000 0.05760  0.23550  0.53180  Biso   1.000  H
  H221     1.0000 0.55760  0.26450  0.03180  Biso   1.000  H
  H222     1.0000 0.44240  0.26450  0.46820  Biso   1.000  H
  H223     1.0000 0.05760  0.76450  0.03180  Biso   1.000  H
  H224     1.0000 0.94240  0.76450  0.46820  Biso   1.000  H
  H225     1.0000 0.41070  0.71910  0.87870  Biso   1.000  H
  H226     1.0000 0.58930  0.71910  0.62130  Biso   1.000  H
  H227     1.0000 0.91070  0.21910  0.87870  Biso   1.000  H
  H228     1.0000 0.08930  0.21910  0.62130  Biso   1.000  H
  H229     1.0000 0.58930  0.28090  0.12130  Biso   1.000  H
  H230     1.0000 0.41070  0.28090  0.37870  Biso   1.000  H
  H231     1.0000 0.08930  0.78090  0.12130  Biso   1.000  H
  H232     1.0000 0.91070  0.78090  0.37870  Biso   1.000  H
  C249     1.0000 0.33440  0.77139  0.89420  Biso   1.000  C
  C250     1.0000 0.66560  0.77139  0.60580  Biso   1.000  C
  C251     1.0000 0.83440  0.27139  0.89420  Biso   1.000  C
  C252     1.0000 0.16560  0.27139  0.60580  Biso   1.000  C
  C253     1.0000 0.66560  0.22861  0.10580  Biso   1.000  C
  C254     1.0000 0.33440  0.22861  0.39420  Biso   1.000  C
  C255     1.0000 0.16560  0.72861  0.10580  Biso   1.000  C
  C256     1.0000 0.83440  0.72861  0.39420  Biso   1.000  C
  H233     1.0000 0.30830  0.78120  0.83840  Biso   1.000  H
  H234     1.0000 0.69170  0.78120  0.66160  Biso   1.000  H
  H235     1.0000 0.80830  0.28120  0.83840  Biso   1.000  H
  H236     1.0000 0.19170  0.28120  0.66160  Biso   1.000  H
  H237     1.0000 0.69170  0.21880  0.16160  Biso   1.000  H
  H238     1.0000 0.30830  0.21880  0.33840  Biso   1.000  H
  H239     1.0000 0.19170  0.71880  0.16160  Biso   1.000  H
  H240     1.0000 0.80830  0.71880  0.33840  Biso   1.000  H
  H241     1.0000 0.29940  0.74710  0.90290  Biso   1.000  H
  H242     1.0000 0.70060  0.74710  0.59710  Biso   1.000  H
  H243     1.0000 0.79940  0.24710  0.90290  Biso   1.000  H
  H244     1.0000 0.20060  0.24710  0.59710  Biso   1.000  H
  H245     1.0000 0.70060  0.25290  0.09710  Biso   1.000  H
  H246     1.0000 0.29940  0.25290  0.40290  Biso   1.000  H
  H247     1.0000 0.20060  0.75290  0.09710  Biso   1.000  H
  H248     1.0000 0.79940  0.75290  0.40290  Biso   1.000  H
  C257     1.0000 0.34430  0.81710  0.94627  Biso   1.000  C
  C258     1.0000 0.65570  0.81710  0.55373  Biso   1.000  C
  C259     1.0000 0.84430  0.31710  0.94627  Biso   1.000  C
  C260     1.0000 0.15570  0.31710  0.55373  Biso   1.000  C
  C261     1.0000 0.65570  0.18290  0.05373  Biso   1.000  C
  C262     1.0000 0.34430  0.18290  0.44627  Biso   1.000  C
  C263     1.0000 0.15570  0.68290  0.05373  Biso   1.000  C
  C264     1.0000 0.84430  0.68290  0.44627  Biso   1.000  C
  H249     1.0000 0.36790  0.80620  0.00210  Biso   1.000  H
  H250     1.0000 0.63210  0.80620  0.49790  Biso   1.000  H
  H251     1.0000 0.86790  0.30620  0.00210  Biso   1.000  H
  H252     1.0000 0.13210  0.30620  0.49790  Biso   1.000  H
  H253     1.0000 0.63210  0.19380  0.99790  Biso   1.000  H
  H254     1.0000 0.36790  0.19380  0.50210  Biso   1.000  H
  H255     1.0000 0.13210  0.69380  0.99790  Biso   1.000  H
  H256     1.0000 0.86790  0.69380  0.50210  Biso   1.000  H
  C265     1.0000 0.23462  0.84624  0.97984  Biso   1.000  C
  C266     1.0000 0.76538  0.84624  0.52016  Biso   1.000  C
  C267     1.0000 0.73462  0.34624  0.97984  Biso   1.000  C
  C268     1.0000 0.26538  0.34624  0.52016  Biso   1.000  C
  C269     1.0000 0.76538  0.15376  0.02016  Biso   1.000  C
  C270     1.0000 0.23462  0.15376  0.47984  Biso   1.000  C
  C271     1.0000 0.26538  0.65376  0.02016  Biso   1.000  C
  C272     1.0000 0.73462  0.65376  0.47984  Biso   1.000  C
  C273     1.0000 0.15038  0.87020  0.94943  Biso   1.000  C
  C274     1.0000 0.84962  0.87020  0.55057  Biso   1.000  C
  C275     1.0000 0.65038  0.37020  0.94943  Biso   1.000  C
  C276     1.0000 0.34962  0.37020  0.55057  Biso   1.000  C
  C277     1.0000 0.84962  0.12980  0.05057  Biso   1.000  C
  C278     1.0000 0.15038  0.12980  0.44943  Biso   1.000  C
  C279     1.0000 0.34962  0.62980  0.05057  Biso   1.000  C
  C280     1.0000 0.65038  0.62980  0.44943  Biso   1.000  C
  C281     1.0000 0.11580  0.89864  0.88102  Biso   1.000  C
  C282     1.0000 0.88420  0.89864  0.61898  Biso   1.000  C
  C283     1.0000 0.61580  0.39864  0.88102  Biso   1.000  C
  C284     1.0000 0.38420  0.39864  0.61898  Biso   1.000  C
  C285     1.0000 0.88420  0.10136  0.11898  Biso   1.000  C
  C286     1.0000 0.11580  0.10136  0.38102  Biso   1.000  C
  C287     1.0000 0.38420  0.60136  0.11898  Biso   1.000  C
  C288     1.0000 0.61580  0.60136  0.38102  Biso   1.000  C
  H257     1.0000 0.14340  0.90320  0.84940  Biso   1.000  H
  H258     1.0000 0.85660  0.90320  0.65060  Biso   1.000  H
  H259     1.0000 0.64340  0.40320  0.84940  Biso   1.000  H
  H260     1.0000 0.35660  0.40320  0.65060  Biso   1.000  H
  H261     1.0000 0.85660  0.09680  0.15060  Biso   1.000  H
  H262     1.0000 0.14340  0.09680  0.34940  Biso   1.000  H
  H263     1.0000 0.35660  0.59680  0.15060  Biso   1.000  H
  H264     1.0000 0.64340  0.59680  0.34940  Biso   1.000  H
  C289     1.0000 0.04040  0.92019  0.85988  Biso   1.000  C
  C290     1.0000 0.95960  0.92019  0.64012  Biso   1.000  C
  C291     1.0000 0.54040  0.42019  0.85988  Biso   1.000  C
  C292     1.0000 0.45960  0.42019  0.64012  Biso   1.000  C
  C293     1.0000 0.95960  0.07981  0.14012  Biso   1.000  C
  C294     1.0000 0.04040  0.07981  0.35988  Biso   1.000  C
  C295     1.0000 0.45960  0.57981  0.14012  Biso   1.000  C
  C296     1.0000 0.54040  0.57981  0.35988  Biso   1.000  C
  H265     1.0000 0.01840  0.93930  0.81350  Biso   1.000  H
  H266     1.0000 0.98160  0.93930  0.68650  Biso   1.000  H
  H267     1.0000 0.51840  0.43930  0.81350  Biso   1.000  H
  H268     1.0000 0.48160  0.43930  0.68650  Biso   1.000  H
  H269     1.0000 0.98160  0.06070  0.18650  Biso   1.000  H
  H270     1.0000 0.01840  0.06070  0.31350  Biso   1.000  H
  H271     1.0000 0.48160  0.56070  0.18650  Biso   1.000  H
  H272     1.0000 0.51840  0.56070  0.31350  Biso   1.000  H
  C297     1.0000 0.02936  0.88745  0.96704  Biso   1.000  C
  C298     1.0000 0.97064  0.88745  0.53296  Biso   1.000  C
  C299     1.0000 0.52936  0.38745  0.96704  Biso   1.000  C
  C300     1.0000 0.47064  0.38745  0.53296  Biso   1.000  C
  C301     1.0000 0.97064  0.11255  0.03296  Biso   1.000  C
  C302     1.0000 0.02936  0.11255  0.46704  Biso   1.000  C
  C303     1.0000 0.47064  0.61255  0.03296  Biso   1.000  C
  C304     1.0000 0.52936  0.61255  0.46704  Biso   1.000  C
  H273     1.0000 0.99970  0.88260  0.99650  Biso   1.000  H
  H274     1.0000 0.00030  0.88260  0.50350  Biso   1.000  H
  H275     1.0000 0.49970  0.38260  0.99650  Biso   1.000  H
  H276     1.0000 0.50030  0.38260  0.50350  Biso   1.000  H
  H277     1.0000 0.00030  0.11740  0.00350  Biso   1.000  H
  H278     1.0000 0.99970  0.11740  0.49650  Biso   1.000  H
  H279     1.0000 0.50030  0.61740  0.00350  Biso   1.000  H
  H280     1.0000 0.49970  0.61740  0.49650  Biso   1.000  H
  C305     1.0000 0.10533  0.86530  0.99294  Biso   1.000  C
  C306     1.0000 0.89467  0.86530  0.50706  Biso   1.000  C
  C307     1.0000 0.60533  0.36530  0.99294  Biso   1.000  C
  C308     1.0000 0.39467  0.36530  0.50706  Biso   1.000  C
  C309     1.0000 0.89467  0.13470  0.00706  Biso   1.000  C
  C310     1.0000 0.10533  0.13470  0.49294  Biso   1.000  C
  C311     1.0000 0.39467  0.63470  0.00706  Biso   1.000  C
  C312     1.0000 0.60533  0.63470  0.49294  Biso   1.000  C
  H281     1.0000 0.12650  0.84690  0.04010  Biso   1.000  H
  H282     1.0000 0.87350  0.84690  0.45990  Biso   1.000  H
  H283     1.0000 0.62650  0.34690  0.04010  Biso   1.000  H
  H284     1.0000 0.37350  0.34690  0.45990  Biso   1.000  H
  H285     1.0000 0.87350  0.15310  0.95990  Biso   1.000  H
  H286     1.0000 0.12650  0.15310  0.54010  Biso   1.000  H
  H287     1.0000 0.37350  0.65310  0.95990  Biso   1.000  H
  H288     1.0000 0.62650  0.65310  0.54010  Biso   1.000  H
  O81      1.0000 0.82250  0.03740  0.57900  Biso   1.000  O
  O82      1.0000 0.17750  0.03740  0.92100  Biso   1.000  O
  O83      1.0000 0.32250  0.53740  0.57900  Biso   1.000  O
  O84      1.0000 0.67750  0.53740  0.92100  Biso   1.000  O
  O85      1.0000 0.17750  0.96260  0.42100  Biso   1.000  O
  O86      1.0000 0.82250  0.96260  0.07900  Biso   1.000  O
  O87      1.0000 0.67750  0.46260  0.42100  Biso   1.000  O
  O88      1.0000 0.32250  0.46260  0.07900  Biso   1.000  O
  O89      1.0000 0.82800  0.13420  0.51640  Biso   1.000  O
  O90      1.0000 0.17200  0.13420  0.98360  Biso   1.000  O
  O91      1.0000 0.32800  0.63420  0.51640  Biso   1.000  O
  O92      1.0000 0.67200  0.63420  0.98360  Biso   1.000  O
  O93      1.0000 0.17200  0.86580  0.48360  Biso   1.000  O
  O94      1.0000 0.82800  0.86580  0.01640  Biso   1.000  O
  O95      1.0000 0.67200  0.36580  0.48360  Biso   1.000  O
  O96      1.0000 0.32800  0.36580  0.01640  Biso   1.000  O
  C313     1.0000 0.41720  0.05740  0.09950  Biso   1.000  C
  C314     1.0000 0.58280  0.05740  0.40050  Biso   1.000  C
  C315     1.0000 0.91720  0.55740  0.09950  Biso   1.000  C
  C316     1.0000 0.08280  0.55740  0.40050  Biso   1.000  C
  C317     1.0000 0.58280  0.94260  0.90050  Biso   1.000  C
  C318     1.0000 0.41720  0.94260  0.59950  Biso   1.000  C
  C319     1.0000 0.08280  0.44260  0.90050  Biso   1.000  C
  C320     1.0000 0.91720  0.44260  0.59950  Biso   1.000  C
  H289     1.0000 0.39300  0.08890  0.08590  Biso   1.000  H
  H290     1.0000 0.60700  0.08890  0.41410  Biso   1.000  H
  H291     1.0000 0.89300  0.58890  0.08590  Biso   1.000  H
  H292     1.0000 0.10700  0.58890  0.41410  Biso   1.000  H
  H293     1.0000 0.60700  0.91110  0.91410  Biso   1.000  H
  H294     1.0000 0.39300  0.91110  0.58590  Biso   1.000  H
  H295     1.0000 0.10700  0.41110  0.91410  Biso   1.000  H
  H296     1.0000 0.89300  0.41110  0.58590  Biso   1.000  H
  C321     1.0000 0.39660  0.02290  0.03310  Biso   1.000  C
  C322     1.0000 0.60340  0.02290  0.46690  Biso   1.000  C
  C323     1.0000 0.89660  0.52290  0.03310  Biso   1.000  C
  C324     1.0000 0.10340  0.52290  0.46690  Biso   1.000  C
  C325     1.0000 0.60340  0.97710  0.96690  Biso   1.000  C
  C326     1.0000 0.39660  0.97710  0.53310  Biso   1.000  C
  C327     1.0000 0.10340  0.47710  0.96690  Biso   1.000  C
  C328     1.0000 0.89660  0.47710  0.53310  Biso   1.000  C
  H297     1.0000 0.37550  0.03570  0.98150  Biso   1.000  H
  H298     1.0000 0.62450  0.03570  0.51850  Biso   1.000  H
  H299     1.0000 0.87550  0.53570  0.98150  Biso   1.000  H
  H300     1.0000 0.12450  0.53570  0.51850  Biso   1.000  H
  H301     1.0000 0.62450  0.96430  0.01850  Biso   1.000  H
  H302     1.0000 0.37550  0.96430  0.48150  Biso   1.000  H
  H303     1.0000 0.12450  0.46430  0.01850  Biso   1.000  H
  H304     1.0000 0.87550  0.46430  0.48150  Biso   1.000  H
  C329     1.0000 0.44080  0.96010  0.12570  Biso   1.000  C
  C330     1.0000 0.55920  0.96010  0.37430  Biso   1.000  C
  C331     1.0000 0.94080  0.46010  0.12570  Biso   1.000  C
  C332     1.0000 0.05920  0.46010  0.37430  Biso   1.000  C
  C333     1.0000 0.55920  0.03990  0.87430  Biso   1.000  C
  C334     1.0000 0.44080  0.03990  0.62570  Biso   1.000  C
  C335     1.0000 0.05920  0.53990  0.87430  Biso   1.000  C
  C336     1.0000 0.94080  0.53990  0.62570  Biso   1.000  C
  H305     1.0000 0.44620  0.92600  0.13770  Biso   1.000  H
  H306     1.0000 0.55380  0.92600  0.36230  Biso   1.000  H
  H307     1.0000 0.94620  0.42600  0.13770  Biso   1.000  H
  H308     1.0000 0.05380  0.42600  0.36230  Biso   1.000  H
  H309     1.0000 0.55380  0.07400  0.86230  Biso   1.000  H
  H310     1.0000 0.44620  0.07400  0.63770  Biso   1.000  H
  H311     1.0000 0.05380  0.57400  0.86230  Biso   1.000  H
  H312     1.0000 0.94620  0.57400  0.63770  Biso   1.000  H
  C337     1.0000 0.46470  0.99680  0.18450  Biso   1.000  C
  C338     1.0000 0.53530  0.99680  0.31550  Biso   1.000  C
  C339     1.0000 0.96470  0.49680  0.18450  Biso   1.000  C
  C340     1.0000 0.03530  0.49680  0.31550  Biso   1.000  C
  C341     1.0000 0.53530  0.00320  0.81550  Biso   1.000  C
  C342     1.0000 0.46470  0.00320  0.68450  Biso   1.000  C
  C343     1.0000 0.03530  0.50320  0.81550  Biso   1.000  C
  C344     1.0000 0.96470  0.50320  0.68450  Biso   1.000  C
  H313     1.0000 0.48600  0.98740  0.23790  Biso   1.000  H
  H314     1.0000 0.51400  0.98740  0.26210  Biso   1.000  H
  H315     1.0000 0.98600  0.48740  0.23790  Biso   1.000  H
  H316     1.0000 0.01400  0.48740  0.26210  Biso   1.000  H
  H317     1.0000 0.51400  0.01260  0.76210  Biso   1.000  H
  H318     1.0000 0.48600  0.01260  0.73790  Biso   1.000  H
  H319     1.0000 0.01400  0.51260  0.76210  Biso   1.000  H
  H320     1.0000 0.98600  0.51260  0.73790  Biso   1.000  H
