data_image0
_cell_length_a       11.4052
_cell_length_b       25.9681
_cell_length_c       23.2429
_cell_angle_alpha    90
_cell_angle_beta     102.307
_cell_angle_gamma    90

_symmetry_space_group_name_H-M    "P 1"
_symmetry_int_tables_number       1

loop_
  _symmetry_equiv_pos_as_xyz
  'x, y, z'

loop_
  _atom_site_label
  _atom_site_occupancy
  _atom_site_fract_x
  _atom_site_fract_y
  _atom_site_fract_z
  _atom_site_thermal_displace_type
  _atom_site_B_iso_or_equiv
  _atom_site_type_symbol
  Cu1      1.0000 0.35159  0.99815  0.05475  Biso   1.000  Cu
  Cu2      1.0000 0.14841  0.49815  0.44525  Biso   1.000  Cu
  Cu3      1.0000 0.64841  0.00185  0.94525  Biso   1.000  Cu
  Cu4      1.0000 0.85159  0.50185  0.55475  Biso   1.000  Cu
  Cu5      1.0000 0.43407  0.27027  0.88189  Biso   1.000  Cu
  Cu6      1.0000 0.06593  0.77027  0.61811  Biso   1.000  Cu
  Cu7      1.0000 0.56593  0.72973  0.11811  Biso   1.000  Cu
  Cu8      1.0000 0.93407  0.22973  0.38189  Biso   1.000  Cu
  O1       1.0000 0.31900  0.05454  0.00044  Biso   1.000  O
  O2       1.0000 0.18100  0.55454  0.49956  Biso   1.000  O
  O3       1.0000 0.68100  0.94546  0.99956  Biso   1.000  O
  O4       1.0000 0.81900  0.44546  0.50044  Biso   1.000  O
  O5       1.0000 0.40810  0.93756  0.10696  Biso   1.000  O
  O6       1.0000 0.09190  0.43756  0.39304  Biso   1.000  O
  O7       1.0000 0.59190  0.06244  0.89304  Biso   1.000  O
  O8       1.0000 0.90810  0.56244  0.60696  Biso   1.000  O
  O9       1.0000 0.54590  0.76619  0.20542  Biso   1.000  O
  O10      1.0000 0.95410  0.26619  0.29458  Biso   1.000  O
  O11      1.0000 0.45410  0.23381  0.79458  Biso   1.000  O
  O12      1.0000 0.04590  0.73381  0.70542  Biso   1.000  O
  H1       1.0000 0.50970  0.74750  0.23220  Biso   1.000  H
  H2       1.0000 0.99030  0.24750  0.26780  Biso   1.000  H
  H3       1.0000 0.49030  0.25250  0.76780  Biso   1.000  H
  H4       1.0000 0.00970  0.75250  0.73220  Biso   1.000  H
  O13      1.0000 0.35990  0.21365  0.91237  Biso   1.000  O
  O14      1.0000 0.14010  0.71365  0.58763  Biso   1.000  O
  O15      1.0000 0.64010  0.78635  0.08763  Biso   1.000  O
  O16      1.0000 0.85990  0.28635  0.41237  Biso   1.000  O
  O17      1.0000 0.52460  0.33055  0.86124  Biso   1.000  O
  O18      1.0000 0.97540  0.83055  0.63876  Biso   1.000  O
  O19      1.0000 0.47540  0.66945  0.13876  Biso   1.000  O
  O20      1.0000 0.02460  0.16945  0.36124  Biso   1.000  O
  O21      1.0000 0.75310  0.48014  0.86633  Biso   1.000  O
  O22      1.0000 0.74690  0.98014  0.63367  Biso   1.000  O
  O23      1.0000 0.24690  0.51986  0.13367  Biso   1.000  O
  O24      1.0000 0.25310  0.01986  0.36633  Biso   1.000  O
  H5       1.0000 0.83270  0.49310  0.87720  Biso   1.000  H
  H6       1.0000 0.66730  0.99310  0.62280  Biso   1.000  H
  H7       1.0000 0.16730  0.50690  0.12280  Biso   1.000  H
  H8       1.0000 0.33270  0.00690  0.37720  Biso   1.000  H
  N1       1.0000 0.51650  0.01818  0.08102  Biso   1.000  N
  N2       1.0000 0.98350  0.51818  0.41898  Biso   1.000  N
  N3       1.0000 0.48350  0.98182  0.91898  Biso   1.000  N
  N4       1.0000 0.01650  0.48182  0.58102  Biso   1.000  N
  N5       1.0000 0.57890  0.98350  0.12220  Biso   1.000  N
  N6       1.0000 0.92110  0.48350  0.37780  Biso   1.000  N
  N7       1.0000 0.42110  0.01650  0.87780  Biso   1.000  N
  N8       1.0000 0.07890  0.51650  0.62220  Biso   1.000  N
  H9       1.0000 0.65460  0.98810  0.13960  Biso   1.000  H
  H10      1.0000 0.84540  0.48810  0.36040  Biso   1.000  H
  H11      1.0000 0.34540  0.01190  0.86040  Biso   1.000  H
  H12      1.0000 0.15460  0.51190  0.63960  Biso   1.000  H
  N9       1.0000 0.59020  0.25215  0.92730  Biso   1.000  N
  N10      1.0000 0.90980  0.75215  0.57270  Biso   1.000  N
  N11      1.0000 0.40980  0.74785  0.07270  Biso   1.000  N
  N12      1.0000 0.09020  0.24785  0.42730  Biso   1.000  N
  N13      1.0000 0.67640  0.28755  0.91910  Biso   1.000  N
  N14      1.0000 0.82360  0.78755  0.58090  Biso   1.000  N
  N15      1.0000 0.32360  0.71245  0.08090  Biso   1.000  N
  N16      1.0000 0.17640  0.21245  0.41910  Biso   1.000  N
  H13      1.0000 0.75300  0.28410  0.93550  Biso   1.000  H
  H14      1.0000 0.74700  0.78410  0.56450  Biso   1.000  H
  H15      1.0000 0.24700  0.71590  0.06450  Biso   1.000  H
  H16      1.0000 0.25300  0.21590  0.43550  Biso   1.000  H
  N17      1.0000 0.20220  0.96474  0.01550  Biso   1.000  N
  N18      1.0000 0.29780  0.46474  0.48450  Biso   1.000  N
  N19      1.0000 0.79780  0.03526  0.98450  Biso   1.000  N
  N20      1.0000 0.70220  0.53526  0.51550  Biso   1.000  N
  N21      1.0000 0.13220  0.98720  0.96800  Biso   1.000  N
  N22      1.0000 0.36780  0.48720  0.53200  Biso   1.000  N
  N23      1.0000 0.86780  0.01280  0.03200  Biso   1.000  N
  N24      1.0000 0.63220  0.51280  0.46800  Biso   1.000  N
  H17      1.0000 0.14600  0.01760  0.95400  Biso   1.000  H
  H18      1.0000 0.35400  0.51760  0.54600  Biso   1.000  H
  H19      1.0000 0.85400  0.98240  0.04600  Biso   1.000  H
  H20      1.0000 0.64600  0.48240  0.45400  Biso   1.000  H
  N25      1.0000 0.28120  0.30505  0.84980  Biso   1.000  N
  N26      1.0000 0.21880  0.80505  0.65020  Biso   1.000  N
  N27      1.0000 0.71880  0.69495  0.15020  Biso   1.000  N
  N28      1.0000 0.78120  0.19495  0.34980  Biso   1.000  N
  N29      1.0000 0.27290  0.35120  0.82280  Biso   1.000  N
  N30      1.0000 0.22710  0.85120  0.67720  Biso   1.000  N
  N31      1.0000 0.72710  0.64880  0.17720  Biso   1.000  N
  N32      1.0000 0.77290  0.14880  0.32280  Biso   1.000  N
  H21      1.0000 0.33440  0.36790  0.81460  Biso   1.000  H
  H22      1.0000 0.16560  0.86790  0.68540  Biso   1.000  H
  H23      1.0000 0.66560  0.63210  0.18540  Biso   1.000  H
  H24      1.0000 0.83440  0.13210  0.31460  Biso   1.000  H
  C1       1.0000 0.38920  0.09316  0.99450  Biso   1.000  C
  C2       1.0000 0.11080  0.59316  0.50550  Biso   1.000  C
  C3       1.0000 0.61080  0.90684  0.00550  Biso   1.000  C
  C4       1.0000 0.88920  0.40684  0.49450  Biso   1.000  C
  C5       1.0000 0.34010  0.13410  0.95720  Biso   1.000  C
  C6       1.0000 0.15990  0.63410  0.54280  Biso   1.000  C
  C7       1.0000 0.65990  0.86590  0.04280  Biso   1.000  C
  C8       1.0000 0.84010  0.36590  0.45720  Biso   1.000  C
  C9       1.0000 0.41040  0.17621  0.94670  Biso   1.000  C
  C10      1.0000 0.08960  0.67621  0.55330  Biso   1.000  C
  C11      1.0000 0.58960  0.82379  0.05330  Biso   1.000  C
  C12      1.0000 0.91040  0.32379  0.44670  Biso   1.000  C
  C13      1.0000 0.53780  0.17629  0.97500  Biso   1.000  C
  C14      1.0000 0.96220  0.67629  0.52500  Biso   1.000  C
  C15      1.0000 0.46220  0.82371  0.02500  Biso   1.000  C
  C16      1.0000 0.03780  0.32371  0.47500  Biso   1.000  C
  C17      1.0000 0.58310  0.13650  0.01220  Biso   1.000  C
  C18      1.0000 0.91690  0.63650  0.48780  Biso   1.000  C
  C19      1.0000 0.41690  0.86350  0.98780  Biso   1.000  C
  C20      1.0000 0.08310  0.36350  0.51220  Biso   1.000  C
  H25      1.0000 0.66580  0.13730  0.03090  Biso   1.000  H
  H26      1.0000 0.83420  0.63730  0.46910  Biso   1.000  H
  H27      1.0000 0.33420  0.86270  0.96910  Biso   1.000  H
  H28      1.0000 0.16580  0.36270  0.53090  Biso   1.000  H
  C21      1.0000 0.51420  0.09502  0.02400  Biso   1.000  C
  C22      1.0000 0.98580  0.59502  0.47600  Biso   1.000  C
  C23      1.0000 0.48580  0.90498  0.97600  Biso   1.000  C
  C24      1.0000 0.01420  0.40498  0.52400  Biso   1.000  C
  C25      1.0000 0.57190  0.05751  0.06540  Biso   1.000  C
  C26      1.0000 0.92810  0.55751  0.43460  Biso   1.000  C
  C27      1.0000 0.42810  0.94249  0.93460  Biso   1.000  C
  C28      1.0000 0.07190  0.44249  0.56540  Biso   1.000  C
  H29      1.0000 0.65490  0.06160  0.08230  Biso   1.000  H
  H30      1.0000 0.84510  0.56160  0.41770  Biso   1.000  H
  H31      1.0000 0.34510  0.93840  0.91770  Biso   1.000  H
  H32      1.0000 0.15490  0.43840  0.58230  Biso   1.000  H
  C29      1.0000 0.51560  0.94250  0.13360  Biso   1.000  C
  C30      1.0000 0.98440  0.44250  0.36640  Biso   1.000  C
  C31      1.0000 0.48440  0.05750  0.86640  Biso   1.000  C
  C32      1.0000 0.01560  0.55750  0.63360  Biso   1.000  C
  C33      1.0000 0.58070  0.90490  0.17690  Biso   1.000  C
  C34      1.0000 0.91930  0.40490  0.32310  Biso   1.000  C
  C35      1.0000 0.41930  0.09510  0.82310  Biso   1.000  C
  C36      1.0000 0.08070  0.59510  0.67690  Biso   1.000  C
  H33      1.0000 0.60470  0.92210  0.21570  Biso   1.000  H
  H34      1.0000 0.89530  0.42210  0.28430  Biso   1.000  H
  H35      1.0000 0.39530  0.07790  0.78430  Biso   1.000  H
  H36      1.0000 0.10470  0.57790  0.71570  Biso   1.000  H
  H37      1.0000 0.65490  0.89420  0.16450  Biso   1.000  H
  H38      1.0000 0.84510  0.39420  0.33550  Biso   1.000  H
  H39      1.0000 0.34510  0.10580  0.83550  Biso   1.000  H
  H40      1.0000 0.15490  0.60580  0.66450  Biso   1.000  H
  C37      1.0000 0.50710  0.85730  0.18360  Biso   1.000  C
  C38      1.0000 0.99290  0.35730  0.31640  Biso   1.000  C
  C39      1.0000 0.49290  0.14270  0.81640  Biso   1.000  C
  C40      1.0000 0.00710  0.64270  0.68360  Biso   1.000  C
  H41      1.0000 0.44250  0.86650  0.20420  Biso   1.000  H
  H42      1.0000 0.05750  0.36650  0.29580  Biso   1.000  H
  H43      1.0000 0.55750  0.13350  0.79580  Biso   1.000  H
  H44      1.0000 0.94250  0.63350  0.70420  Biso   1.000  H
  H45      1.0000 0.46950  0.84360  0.14420  Biso   1.000  H
  H46      1.0000 0.03050  0.34360  0.35580  Biso   1.000  H
  H47      1.0000 0.53050  0.15640  0.85580  Biso   1.000  H
  H48      1.0000 0.96950  0.65640  0.64420  Biso   1.000  H
  C41      1.0000 0.58780  0.81650  0.21860  Biso   1.000  C
  C42      1.0000 0.91220  0.31650  0.28140  Biso   1.000  C
  C43      1.0000 0.41220  0.18350  0.78140  Biso   1.000  C
  C44      1.0000 0.08780  0.68350  0.71860  Biso   1.000  C
  H49      1.0000 0.66920  0.81970  0.21030  Biso   1.000  H
  H50      1.0000 0.83080  0.31970  0.28970  Biso   1.000  H
  H51      1.0000 0.33080  0.18030  0.78970  Biso   1.000  H
  H52      1.0000 0.16920  0.68030  0.71030  Biso   1.000  H
  H53      1.0000 0.59440  0.82300  0.26110  Biso   1.000  H
  H54      1.0000 0.90560  0.32300  0.23890  Biso   1.000  H
  H55      1.0000 0.40560  0.17700  0.73890  Biso   1.000  H
  H56      1.0000 0.09440  0.67700  0.76110  Biso   1.000  H
  C45      1.0000 0.62030  0.21460  0.96400  Biso   1.000  C
  C46      1.0000 0.87970  0.71460  0.53600  Biso   1.000  C
  C47      1.0000 0.37970  0.78540  0.03600  Biso   1.000  C
  C48      1.0000 0.12030  0.28540  0.46400  Biso   1.000  C
  H57      1.0000 0.70140  0.21240  0.98480  Biso   1.000  H
  H58      1.0000 0.79860  0.71240  0.51520  Biso   1.000  H
  H59      1.0000 0.29860  0.78760  0.01520  Biso   1.000  H
  H60      1.0000 0.20140  0.28760  0.48480  Biso   1.000  H
  C49      1.0000 0.63380  0.32740  0.88420  Biso   1.000  C
  C50      1.0000 0.86620  0.82740  0.61580  Biso   1.000  C
  C51      1.0000 0.36620  0.67260  0.11580  Biso   1.000  C
  C52      1.0000 0.13380  0.17260  0.38420  Biso   1.000  C
  C53      1.0000 0.72240  0.36840  0.87630  Biso   1.000  C
  C54      1.0000 0.77760  0.86840  0.62370  Biso   1.000  C
  C55      1.0000 0.27760  0.63160  0.12370  Biso   1.000  C
  C56      1.0000 0.22240  0.13160  0.37630  Biso   1.000  C
  H61      1.0000 0.79560  0.35220  0.86810  Biso   1.000  H
  H62      1.0000 0.70440  0.85220  0.63190  Biso   1.000  H
  H63      1.0000 0.20440  0.64780  0.13190  Biso   1.000  H
  H64      1.0000 0.29560  0.14780  0.36810  Biso   1.000  H
  H65      1.0000 0.74570  0.38880  0.91300  Biso   1.000  H
  H66      1.0000 0.75430  0.88880  0.58700  Biso   1.000  H
  H67      1.0000 0.25430  0.61120  0.08700  Biso   1.000  H
  H68      1.0000 0.24570  0.11120  0.41300  Biso   1.000  H
  C57      1.0000 0.66410  0.40510  0.82340  Biso   1.000  C
  C58      1.0000 0.83590  0.90510  0.67660  Biso   1.000  C
  C59      1.0000 0.33590  0.59490  0.17660  Biso   1.000  C
  C60      1.0000 0.16410  0.09490  0.32340  Biso   1.000  C
  H69      1.0000 0.64610  0.38490  0.78650  Biso   1.000  H
  H70      1.0000 0.85390  0.88490  0.71350  Biso   1.000  H
  H71      1.0000 0.35390  0.61510  0.21350  Biso   1.000  H
  H72      1.0000 0.14610  0.11510  0.28650  Biso   1.000  H
  H73      1.0000 0.58750  0.41900  0.83050  Biso   1.000  H
  H74      1.0000 0.91250  0.91900  0.66950  Biso   1.000  H
  H75      1.0000 0.41250  0.58100  0.16950  Biso   1.000  H
  H76      1.0000 0.08750  0.08100  0.33050  Biso   1.000  H
  C61      1.0000 0.74220  0.44730  0.81680  Biso   1.000  C
  C62      1.0000 0.75780  0.94730  0.68320  Biso   1.000  C
  C63      1.0000 0.25780  0.55270  0.18320  Biso   1.000  C
  C64      1.0000 0.24220  0.05270  0.31680  Biso   1.000  C
  H77      1.0000 0.82220  0.43400  0.81400  Biso   1.000  H
  H78      1.0000 0.67780  0.93400  0.68600  Biso   1.000  H
  H79      1.0000 0.17780  0.56600  0.18600  Biso   1.000  H
  H80      1.0000 0.32220  0.06600  0.31400  Biso   1.000  H
  H81      1.0000 0.70850  0.46670  0.78030  Biso   1.000  H
  H82      1.0000 0.79150  0.96670  0.71970  Biso   1.000  H
  H83      1.0000 0.29150  0.53330  0.21970  Biso   1.000  H
  H84      1.0000 0.20850  0.03330  0.28030  Biso   1.000  H
  C65      1.0000 0.20960  0.13200  0.92710  Biso   1.000  C
  C66      1.0000 0.29040  0.63200  0.57290  Biso   1.000  C
  C67      1.0000 0.79040  0.86800  0.07290  Biso   1.000  C
  C68      1.0000 0.70960  0.36800  0.42710  Biso   1.000  C
  H85      1.0000 0.19550  0.10220  0.90070  Biso   1.000  H
  H86      1.0000 0.30450  0.60220  0.59930  Biso   1.000  H
  H87      1.0000 0.80450  0.89780  0.09930  Biso   1.000  H
  H88      1.0000 0.69550  0.39780  0.40070  Biso   1.000  H
  H89      1.0000 0.18790  0.16360  0.90420  Biso   1.000  H
  H90      1.0000 0.31210  0.66360  0.59580  Biso   1.000  H
  H91      1.0000 0.81210  0.83640  0.09580  Biso   1.000  H
  H92      1.0000 0.68790  0.33640  0.40420  Biso   1.000  H
  H93      1.0000 0.16030  0.12890  0.95670  Biso   1.000  H
  H94      1.0000 0.33970  0.62890  0.54330  Biso   1.000  H
  H95      1.0000 0.83970  0.87110  0.04330  Biso   1.000  H
  H96      1.0000 0.66030  0.37110  0.45670  Biso   1.000  H
  C69      1.0000 0.15180  0.91960  0.02180  Biso   1.000  C
  C70      1.0000 0.34820  0.41960  0.47820  Biso   1.000  C
  C71      1.0000 0.84820  0.08040  0.97820  Biso   1.000  C
  C72      1.0000 0.65180  0.58040  0.52180  Biso   1.000  C
  H97      1.0000 0.18180  0.89510  0.05170  Biso   1.000  H
  H98      1.0000 0.31820  0.39510  0.44830  Biso   1.000  H
  H99      1.0000 0.81820  0.10490  0.94830  Biso   1.000  H
  H100     1.0000 0.68180  0.60490  0.55170  Biso   1.000  H
  C73      1.0000 0.04910  0.91360  0.97840  Biso   1.000  C
  C74      1.0000 0.45090  0.41360  0.52160  Biso   1.000  C
  C75      1.0000 0.95090  0.08640  0.02160  Biso   1.000  C
  C76      1.0000 0.54910  0.58640  0.47840  Biso   1.000  C
  H101     1.0000 0.99630  0.88490  0.97290  Biso   1.000  H
  H102     1.0000 0.50370  0.38490  0.52710  Biso   1.000  H
  H103     1.0000 0.00370  0.11510  0.02710  Biso   1.000  H
  H104     1.0000 0.49630  0.61510  0.47290  Biso   1.000  H
  C77      1.0000 0.03890  0.95710  0.94500  Biso   1.000  C
  C78      1.0000 0.46110  0.45710  0.55500  Biso   1.000  C
  C79      1.0000 0.96110  0.04290  0.05500  Biso   1.000  C
  C80      1.0000 0.53890  0.54290  0.44500  Biso   1.000  C
  H105     1.0000 0.97710  0.96460  0.91170  Biso   1.000  H
  H106     1.0000 0.52290  0.46460  0.58830  Biso   1.000  H
  H107     1.0000 0.02290  0.03540  0.08830  Biso   1.000  H
  H108     1.0000 0.47710  0.53540  0.41170  Biso   1.000  H
  C81      1.0000 0.17310  0.29290  0.85590  Biso   1.000  C
  C82      1.0000 0.32690  0.79290  0.64410  Biso   1.000  C
  C83      1.0000 0.82690  0.70710  0.14410  Biso   1.000  C
  C84      1.0000 0.67310  0.20710  0.35590  Biso   1.000  C
  H109     1.0000 0.15150  0.26290  0.87460  Biso   1.000  H
  H110     1.0000 0.34850  0.76290  0.62540  Biso   1.000  H
  H111     1.0000 0.84850  0.73710  0.12540  Biso   1.000  H
  H112     1.0000 0.65150  0.23710  0.37460  Biso   1.000  H
  C85      1.0000 0.09500  0.33210  0.83000  Biso   1.000  C
  C86      1.0000 0.40500  0.83210  0.67000  Biso   1.000  C
  C87      1.0000 0.90500  0.66790  0.17000  Biso   1.000  C
  C88      1.0000 0.59500  0.16790  0.33000  Biso   1.000  C
  H113     1.0000 0.01070  0.33270  0.82700  Biso   1.000  H
  H114     1.0000 0.48930  0.83270  0.67300  Biso   1.000  H
  H115     1.0000 0.98930  0.66730  0.17300  Biso   1.000  H
  H116     1.0000 0.51070  0.16730  0.32700  Biso   1.000  H
  C89      1.0000 0.16000  0.36850  0.81010  Biso   1.000  C
  C90      1.0000 0.34000  0.86850  0.68990  Biso   1.000  C
  C91      1.0000 0.84000  0.63150  0.18990  Biso   1.000  C
  C92      1.0000 0.66000  0.13150  0.31010  Biso   1.000  C
  H117     1.0000 0.13180  0.39990  0.79100  Biso   1.000  H
  H118     1.0000 0.36820  0.89990  0.70900  Biso   1.000  H
  H119     1.0000 0.86820  0.60010  0.20900  Biso   1.000  H
  H120     1.0000 0.63180  0.10010  0.29100  Biso   1.000  H
  Cu9      1.0000 0.45199  0.75904  0.89904  Biso   1.000  Cu
  Cu10     1.0000 0.04801  0.25904  0.60096  Biso   1.000  Cu
  Cu11     1.0000 0.54801  0.24096  0.10096  Biso   1.000  Cu
  Cu12     1.0000 0.95199  0.74096  0.39904  Biso   1.000  Cu
  Cu13     1.0000 0.63357  0.51345  0.93145  Biso   1.000  Cu
  Cu14     1.0000 0.86643  0.01345  0.56855  Biso   1.000  Cu
  Cu15     1.0000 0.36643  0.48655  0.06855  Biso   1.000  Cu
  Cu16     1.0000 0.13357  0.98655  0.43145  Biso   1.000  Cu
  O25      1.0000 0.62120  0.29601  0.06734  Biso   1.000  O
  O26      1.0000 0.87880  0.79601  0.43266  Biso   1.000  O
  O27      1.0000 0.37880  0.70399  0.93266  Biso   1.000  O
  O28      1.0000 0.12120  0.20399  0.56734  Biso   1.000  O
  O29      1.0000 0.45600  0.18185  0.12407  Biso   1.000  O
  O30      1.0000 0.04400  0.68185  0.37593  Biso   1.000  O
  O31      1.0000 0.54400  0.81815  0.87593  Biso   1.000  O
  O32      1.0000 0.95600  0.31815  0.62407  Biso   1.000  O
  O33      1.0000 0.27980  0.03431  0.12840  Biso   1.000  O
  O34      1.0000 0.22020  0.53431  0.37160  Biso   1.000  O
  O35      1.0000 0.72020  0.96569  0.87160  Biso   1.000  O
  O36      1.0000 0.77980  0.46569  0.62840  Biso   1.000  O
  H121     1.0000 0.20250  0.02370  0.13280  Biso   1.000  H
  H122     1.0000 0.29750  0.52370  0.36720  Biso   1.000  H
  H123     1.0000 0.79750  0.97630  0.86720  Biso   1.000  H
  H124     1.0000 0.70250  0.47630  0.63280  Biso   1.000  H
  O37      1.0000 0.66360  0.45554  0.98214  Biso   1.000  O
  O38      1.0000 0.83640  0.95554  0.51786  Biso   1.000  O
  O39      1.0000 0.33640  0.54446  0.01786  Biso   1.000  O
  O40      1.0000 0.16360  0.04446  0.48214  Biso   1.000  O
  O41      1.0000 0.57750  0.57407  0.88078  Biso   1.000  O
  O42      1.0000 0.92250  0.07407  0.61922  Biso   1.000  O
  O43      1.0000 0.42250  0.42593  0.11922  Biso   1.000  O
  O44      1.0000 0.07750  0.92593  0.38078  Biso   1.000  O
  O45      1.0000 0.48500  0.72415  0.80890  Biso   1.000  O
  O46      1.0000 0.01500  0.22415  0.69110  Biso   1.000  O
  O47      1.0000 0.51500  0.27585  0.19110  Biso   1.000  O
  O48      1.0000 0.98500  0.77585  0.30890  Biso   1.000  O
  H125     1.0000 0.55920  0.73740  0.80300  Biso   1.000  H
  H126     1.0000 0.94080  0.23740  0.69700  Biso   1.000  H
  H127     1.0000 0.44080  0.26260  0.19700  Biso   1.000  H
  H128     1.0000 0.05920  0.76260  0.30300  Biso   1.000  H
  N33      1.0000 0.39110  0.25911  0.05720  Biso   1.000  N
  N34      1.0000 0.10890  0.75911  0.44280  Biso   1.000  N
  N35      1.0000 0.60890  0.74089  0.94280  Biso   1.000  N
  N36      1.0000 0.89110  0.24089  0.55720  Biso   1.000  N
  N37      1.0000 0.30430  0.22436  0.06670  Biso   1.000  N
  N38      1.0000 0.19570  0.72436  0.43330  Biso   1.000  N
  N39      1.0000 0.69570  0.77564  0.93330  Biso   1.000  N
  N40      1.0000 0.80430  0.27564  0.56670  Biso   1.000  N
  H129     1.0000 0.22760  0.22790  0.05060  Biso   1.000  H
  H130     1.0000 0.27240  0.72790  0.44940  Biso   1.000  H
  H131     1.0000 0.77240  0.77210  0.94940  Biso   1.000  H
  H132     1.0000 0.72760  0.27210  0.55060  Biso   1.000  H
  N41      1.0000 0.46580  0.49539  0.90696  Biso   1.000  N
  N42      1.0000 0.03420  0.99539  0.59304  Biso   1.000  N
  N43      1.0000 0.53420  0.50461  0.09304  Biso   1.000  N
  N44      1.0000 0.96580  0.00461  0.40696  Biso   1.000  N
  N45      1.0000 0.40270  0.53267  0.87016  Biso   1.000  N
  N46      1.0000 0.09730  0.03267  0.62984  Biso   1.000  N
  N47      1.0000 0.59730  0.46733  0.12984  Biso   1.000  N
  N48      1.0000 0.90270  0.96733  0.37016  Biso   1.000  N
  H133     1.0000 0.32530  0.53000  0.85520  Biso   1.000  H
  H134     1.0000 0.17470  0.03000  0.64480  Biso   1.000  H
  H135     1.0000 0.67470  0.47000  0.14480  Biso   1.000  H
  H136     1.0000 0.82530  0.97000  0.35520  Biso   1.000  H
  N49      1.0000 0.29390  0.78669  0.86520  Biso   1.000  N
  N50      1.0000 0.20610  0.28669  0.63480  Biso   1.000  N
  N51      1.0000 0.70610  0.21331  0.13480  Biso   1.000  N
  N52      1.0000 0.79390  0.71331  0.36520  Biso   1.000  N
  N53      1.0000 0.19490  0.76474  0.87650  Biso   1.000  N
  N54      1.0000 0.30510  0.26474  0.62350  Biso   1.000  N
  N55      1.0000 0.80510  0.23526  0.12350  Biso   1.000  N
  N56      1.0000 0.69490  0.73526  0.37650  Biso   1.000  N
  H137     1.0000 0.19470  0.73680  0.89790  Biso   1.000  H
  H138     1.0000 0.30530  0.23680  0.60210  Biso   1.000  H
  H139     1.0000 0.80530  0.26320  0.10210  Biso   1.000  H
  H140     1.0000 0.69470  0.76320  0.39790  Biso   1.000  H
  N57      1.0000 0.78470  0.54666  0.96960  Biso   1.000  N
  N58      1.0000 0.71530  0.04666  0.53040  Biso   1.000  N
  N59      1.0000 0.21530  0.45334  0.03040  Biso   1.000  N
  N60      1.0000 0.28470  0.95334  0.46960  Biso   1.000  N
  N61      1.0000 0.82100  0.59368  0.95520  Biso   1.000  N
  N62      1.0000 0.67900  0.09368  0.54480  Biso   1.000  N
  N63      1.0000 0.17900  0.40632  0.04480  Biso   1.000  N
  N64      1.0000 0.32100  0.90632  0.45520  Biso   1.000  N
  H141     1.0000 0.78330  0.61240  0.92530  Biso   1.000  H
  H142     1.0000 0.71670  0.11240  0.57470  Biso   1.000  H
  H143     1.0000 0.21670  0.38760  0.07470  Biso   1.000  H
  H144     1.0000 0.28330  0.88760  0.42530  Biso   1.000  H
  C93      1.0000 0.56840  0.33449  0.03450  Biso   1.000  C
  C94      1.0000 0.93160  0.83449  0.46550  Biso   1.000  C
  C95      1.0000 0.43160  0.66551  0.96550  Biso   1.000  C
  C96      1.0000 0.06840  0.16551  0.53450  Biso   1.000  C
  C97      1.0000 0.64000  0.37564  0.02440  Biso   1.000  C
  C98      1.0000 0.86000  0.87564  0.47560  Biso   1.000  C
  C99      1.0000 0.36000  0.62436  0.97560  Biso   1.000  C
  C100     1.0000 0.14000  0.12436  0.52440  Biso   1.000  C
  C101     1.0000 0.59180  0.41779  0.98900  Biso   1.000  C
  C102     1.0000 0.90820  0.91779  0.51100  Biso   1.000  C
  C103     1.0000 0.40820  0.58221  0.01100  Biso   1.000  C
  C104     1.0000 0.09180  0.08221  0.48900  Biso   1.000  C
  C105     1.0000 0.46570  0.41722  0.96140  Biso   1.000  C
  C106     1.0000 0.03430  0.91722  0.53860  Biso   1.000  C
  C107     1.0000 0.53430  0.58278  0.03860  Biso   1.000  C
  C108     1.0000 0.96570  0.08278  0.46140  Biso   1.000  C
  C109     1.0000 0.39510  0.37628  0.97320  Biso   1.000  C
  C110     1.0000 0.10490  0.87628  0.52680  Biso   1.000  C
  C111     1.0000 0.60490  0.62372  0.02680  Biso   1.000  C
  C112     1.0000 0.89510  0.12372  0.47320  Biso   1.000  C
  H145     1.0000 0.31170  0.37650  0.95590  Biso   1.000  H
  H146     1.0000 0.18830  0.87650  0.54410  Biso   1.000  H
  H147     1.0000 0.68830  0.62350  0.04410  Biso   1.000  H
  H148     1.0000 0.81170  0.12350  0.45590  Biso   1.000  H
  C113     1.0000 0.44170  0.33520  0.00920  Biso   1.000  C
  C114     1.0000 0.05830  0.83520  0.49080  Biso   1.000  C
  C115     1.0000 0.55830  0.66480  0.99080  Biso   1.000  C
  C116     1.0000 0.94170  0.16480  0.50920  Biso   1.000  C
  C117     1.0000 0.35900  0.29724  0.02130  Biso   1.000  C
  C118     1.0000 0.14100  0.79724  0.47870  Biso   1.000  C
  C119     1.0000 0.64100  0.70276  0.97870  Biso   1.000  C
  C120     1.0000 0.85900  0.20276  0.52130  Biso   1.000  C
  H149     1.0000 0.27690  0.30020  0.00220  Biso   1.000  H
  H150     1.0000 0.22310  0.80020  0.49780  Biso   1.000  H
  H151     1.0000 0.72310  0.69980  0.99780  Biso   1.000  H
  H152     1.0000 0.77690  0.19980  0.50220  Biso   1.000  H
  C121     1.0000 0.34680  0.18530  0.10220  Biso   1.000  C
  C122     1.0000 0.15320  0.68530  0.39780  Biso   1.000  C
  C123     1.0000 0.65320  0.81470  0.89780  Biso   1.000  C
  C124     1.0000 0.84680  0.31470  0.60220  Biso   1.000  C
  C125     1.0000 0.25620  0.14660  0.11420  Biso   1.000  C
  C126     1.0000 0.24380  0.64660  0.38580  Biso   1.000  C
  C127     1.0000 0.74380  0.85340  0.88580  Biso   1.000  C
  C128     1.0000 0.75620  0.35340  0.61420  Biso   1.000  C
  H153     1.0000 0.18060  0.16480  0.11540  Biso   1.000  H
  H154     1.0000 0.31940  0.66480  0.38460  Biso   1.000  H
  H155     1.0000 0.81940  0.83520  0.88460  Biso   1.000  H
  H156     1.0000 0.68060  0.33520  0.61540  Biso   1.000  H
  H157     1.0000 0.23890  0.12180  0.08110  Biso   1.000  H
  H158     1.0000 0.26110  0.62180  0.41890  Biso   1.000  H
  H159     1.0000 0.76110  0.87820  0.91890  Biso   1.000  H
  H160     1.0000 0.73890  0.37820  0.58110  Biso   1.000  H
  C129     1.0000 0.29610  0.11710  0.17070  Biso   1.000  C
  C130     1.0000 0.20390  0.61710  0.32930  Biso   1.000  C
  C131     1.0000 0.70390  0.88290  0.82930  Biso   1.000  C
  C132     1.0000 0.79610  0.38290  0.67070  Biso   1.000  C
  H161     1.0000 0.35500  0.13880  0.19760  Biso   1.000  H
  H162     1.0000 0.14500  0.63880  0.30240  Biso   1.000  H
  H163     1.0000 0.64500  0.86120  0.80240  Biso   1.000  H
  H164     1.0000 0.85500  0.36120  0.69760  Biso   1.000  H
  H165     1.0000 0.22550  0.11350  0.18890  Biso   1.000  H
  H166     1.0000 0.27450  0.61350  0.31110  Biso   1.000  H
  H167     1.0000 0.77450  0.88650  0.81110  Biso   1.000  H
  H168     1.0000 0.72550  0.38650  0.68890  Biso   1.000  H
  C133     1.0000 0.34210  0.07290  0.17000  Biso   1.000  C
  C134     1.0000 0.15790  0.57290  0.33000  Biso   1.000  C
  C135     1.0000 0.65790  0.92710  0.83000  Biso   1.000  C
  C136     1.0000 0.84210  0.42710  0.67000  Biso   1.000  C
  H169     1.0000 0.35220  0.05820  0.21010  Biso   1.000  H
  H170     1.0000 0.14780  0.55820  0.28990  Biso   1.000  H
  H171     1.0000 0.64780  0.94180  0.78990  Biso   1.000  H
  H172     1.0000 0.85220  0.44180  0.71010  Biso   1.000  H
  H173     1.0000 0.42350  0.07740  0.16230  Biso   1.000  H
  H174     1.0000 0.07650  0.57740  0.33770  Biso   1.000  H
  H175     1.0000 0.57650  0.92260  0.83770  Biso   1.000  H
  H176     1.0000 0.92350  0.42260  0.66230  Biso   1.000  H
  C137     1.0000 0.40920  0.45653  0.92250  Biso   1.000  C
  C138     1.0000 0.09080  0.95653  0.57750  Biso   1.000  C
  C139     1.0000 0.59080  0.54347  0.07750  Biso   1.000  C
  C140     1.0000 0.90920  0.04347  0.42250  Biso   1.000  C
  H177     1.0000 0.32520  0.45400  0.90720  Biso   1.000  H
  H178     1.0000 0.17480  0.95400  0.59280  Biso   1.000  H
  H179     1.0000 0.67480  0.54600  0.09280  Biso   1.000  H
  H180     1.0000 0.82520  0.04600  0.40720  Biso   1.000  H
  C141     1.0000 0.46730  0.57289  0.85890  Biso   1.000  C
  C142     1.0000 0.03270  0.07289  0.64110  Biso   1.000  C
  C143     1.0000 0.53270  0.42711  0.14110  Biso   1.000  C
  C144     1.0000 0.96730  0.92711  0.35890  Biso   1.000  C
  C145     1.0000 0.40410  0.61620  0.82300  Biso   1.000  C
  C146     1.0000 0.09590  0.11620  0.67700  Biso   1.000  C
  C147     1.0000 0.59590  0.38380  0.17700  Biso   1.000  C
  C148     1.0000 0.90410  0.88380  0.32300  Biso   1.000  C
  H181     1.0000 0.39400  0.64480  0.84960  Biso   1.000  H
  H182     1.0000 0.10600  0.14480  0.65040  Biso   1.000  H
  H183     1.0000 0.60600  0.35520  0.15040  Biso   1.000  H
  H184     1.0000 0.89400  0.85520  0.34960  Biso   1.000  H
  H185     1.0000 0.32300  0.60450  0.80300  Biso   1.000  H
  H186     1.0000 0.17700  0.10450  0.69700  Biso   1.000  H
  H187     1.0000 0.67700  0.39550  0.19700  Biso   1.000  H
  H188     1.0000 0.82300  0.89550  0.30300  Biso   1.000  H
  C149     1.0000 0.46940  0.63620  0.77690  Biso   1.000  C
  C150     1.0000 0.03060  0.13620  0.72310  Biso   1.000  C
  C151     1.0000 0.53060  0.36380  0.22310  Biso   1.000  C
  C152     1.0000 0.96940  0.86380  0.27690  Biso   1.000  C
  H189     1.0000 0.55700  0.63330  0.79240  Biso   1.000  H
  H190     1.0000 0.94300  0.13330  0.70760  Biso   1.000  H
  H191     1.0000 0.44300  0.36670  0.20760  Biso   1.000  H
  H192     1.0000 0.05700  0.86670  0.29240  Biso   1.000  H
  H193     1.0000 0.44820  0.61450  0.74120  Biso   1.000  H
  H194     1.0000 0.05180  0.11450  0.75880  Biso   1.000  H
  H195     1.0000 0.55180  0.38550  0.25880  Biso   1.000  H
  H196     1.0000 0.94820  0.88550  0.24120  Biso   1.000  H
  C153     1.0000 0.43830  0.69150  0.76060  Biso   1.000  C
  C154     1.0000 0.06170  0.19150  0.73940  Biso   1.000  C
  C155     1.0000 0.56170  0.30850  0.23940  Biso   1.000  C
  C156     1.0000 0.93830  0.80850  0.26060  Biso   1.000  C
  H197     1.0000 0.47230  0.70140  0.72640  Biso   1.000  H
  H198     1.0000 0.02770  0.20140  0.77360  Biso   1.000  H
  H199     1.0000 0.52770  0.29860  0.27360  Biso   1.000  H
  H200     1.0000 0.97230  0.79860  0.22640  Biso   1.000  H
  H201     1.0000 0.35000  0.69550  0.74930  Biso   1.000  H
  H202     1.0000 0.15000  0.19550  0.75070  Biso   1.000  H
  H203     1.0000 0.65000  0.30450  0.25070  Biso   1.000  H
  H204     1.0000 0.85000  0.80450  0.24930  Biso   1.000  H
  C157     1.0000 0.77230  0.37470  0.05170  Biso   1.000  C
  C158     1.0000 0.72770  0.87470  0.44830  Biso   1.000  C
  C159     1.0000 0.22770  0.62530  0.94830  Biso   1.000  C
  C160     1.0000 0.27230  0.12530  0.55170  Biso   1.000  C
  H205     1.0000 0.78360  0.37060  0.09450  Biso   1.000  H
  H206     1.0000 0.71640  0.87060  0.40550  Biso   1.000  H
  H207     1.0000 0.21640  0.62940  0.90550  Biso   1.000  H
  H208     1.0000 0.28360  0.12940  0.59450  Biso   1.000  H
  H209     1.0000 0.80910  0.40700  0.04300  Biso   1.000  H
  H210     1.0000 0.69090  0.90700  0.45700  Biso   1.000  H
  H211     1.0000 0.19090  0.59300  0.95700  Biso   1.000  H
  H212     1.0000 0.30910  0.09300  0.54300  Biso   1.000  H
  H213     1.0000 0.81000  0.34580  0.03550  Biso   1.000  H
  H214     1.0000 0.69000  0.84580  0.46450  Biso   1.000  H
  H215     1.0000 0.19000  0.65420  0.96450  Biso   1.000  H
  H216     1.0000 0.31000  0.15420  0.53550  Biso   1.000  H
  C161     1.0000 0.25460  0.82750  0.83200  Biso   1.000  C
  C162     1.0000 0.24540  0.32750  0.66800  Biso   1.000  C
  C163     1.0000 0.74540  0.17250  0.16800  Biso   1.000  C
  C164     1.0000 0.75460  0.67250  0.33200  Biso   1.000  C
  H217     1.0000 0.30460  0.85120  0.81730  Biso   1.000  H
  H218     1.0000 0.19540  0.35120  0.68270  Biso   1.000  H
  H219     1.0000 0.69540  0.14880  0.18270  Biso   1.000  H
  H220     1.0000 0.80460  0.64880  0.31730  Biso   1.000  H
  C165     1.0000 0.13110  0.83060  0.82210  Biso   1.000  C
  C166     1.0000 0.36890  0.33060  0.67790  Biso   1.000  C
  C167     1.0000 0.86890  0.16940  0.17790  Biso   1.000  C
  C168     1.0000 0.63110  0.66940  0.32210  Biso   1.000  C
  H221     1.0000 0.08080  0.85570  0.79940  Biso   1.000  H
  H222     1.0000 0.41920  0.35570  0.70060  Biso   1.000  H
  H223     1.0000 0.91920  0.14430  0.20060  Biso   1.000  H
  H224     1.0000 0.58080  0.64430  0.29940  Biso   1.000  H
  C169     1.0000 0.09720  0.79050  0.85130  Biso   1.000  C
  C170     1.0000 0.40280  0.29050  0.64870  Biso   1.000  C
  C171     1.0000 0.90280  0.20950  0.14870  Biso   1.000  C
  C172     1.0000 0.59720  0.70950  0.35130  Biso   1.000  C
  H225     1.0000 0.01720  0.78220  0.85350  Biso   1.000  H
  H226     1.0000 0.48280  0.28220  0.64650  Biso   1.000  H
  H227     1.0000 0.98280  0.21780  0.14650  Biso   1.000  H
  H228     1.0000 0.51720  0.71780  0.35350  Biso   1.000  H
  C173     1.0000 0.86490  0.53230  0.01670  Biso   1.000  C
  C174     1.0000 0.63510  0.03230  0.48330  Biso   1.000  C
  C175     1.0000 0.13510  0.46770  0.98330  Biso   1.000  C
  C176     1.0000 0.36490  0.96770  0.51670  Biso   1.000  C
  H229     1.0000 0.86250  0.50080  0.03710  Biso   1.000  H
  H230     1.0000 0.63750  0.00080  0.46290  Biso   1.000  H
  H231     1.0000 0.13750  0.49920  0.96290  Biso   1.000  H
  H232     1.0000 0.36250  0.99920  0.53710  Biso   1.000  H
  C177     1.0000 0.95290  0.56960  0.03230  Biso   1.000  C
  C178     1.0000 0.54710  0.06960  0.46770  Biso   1.000  C
  C179     1.0000 0.04710  0.43040  0.96770  Biso   1.000  C
  C180     1.0000 0.45290  0.93040  0.53230  Biso   1.000  C
  H233     1.0000 0.02060  0.56840  0.06410  Biso   1.000  H
  H234     1.0000 0.47940  0.06840  0.43590  Biso   1.000  H
  H235     1.0000 0.97940  0.43160  0.93590  Biso   1.000  H
  H236     1.0000 0.52060  0.93160  0.56410  Biso   1.000  H
  C181     1.0000 0.92210  0.60790  0.99260  Biso   1.000  C
  C182     1.0000 0.57790  0.10790  0.50740  Biso   1.000  C
  C183     1.0000 0.07790  0.39210  0.00740  Biso   1.000  C
  C184     1.0000 0.42210  0.89210  0.49260  Biso   1.000  C
  H237     1.0000 0.96440  0.63920  0.99150  Biso   1.000  H
  H238     1.0000 0.53560  0.13920  0.50850  Biso   1.000  H
  H239     1.0000 0.03560  0.36080  0.00850  Biso   1.000  H
  H240     1.0000 0.46440  0.86080  0.49150  Biso   1.000  H
  Cl1      1.0000 0.36657  0.47824  0.72211  Biso   1.000  Cl
  Cl2      1.0000 0.13343  0.97824  0.77789  Biso   1.000  Cl
  Cl3      1.0000 0.63343  0.52176  0.27789  Biso   1.000  Cl
  Cl4      1.0000 0.86657  0.02176  0.22211  Biso   1.000  Cl
  O49      1.0000 0.35730  0.44410  0.76940  Biso   1.000  O
  O50      1.0000 0.14270  0.94410  0.73060  Biso   1.000  O
  O51      1.0000 0.64270  0.55590  0.23060  Biso   1.000  O
  O52      1.0000 0.85730  0.05590  0.26940  Biso   1.000  O
  O53      1.0000 0.33920  0.47710  0.66200  Biso   1.000  O
  O54      1.0000 0.16080  0.97710  0.83800  Biso   1.000  O
  O55      1.0000 0.66080  0.52290  0.33800  Biso   1.000  O
  O56      1.0000 0.83920  0.02290  0.16200  Biso   1.000  O
  O57      1.0000 0.48060  0.50160  0.74040  Biso   1.000  O
  O58      1.0000 0.01940  0.00160  0.75960  Biso   1.000  O
  O59      1.0000 0.51940  0.49840  0.25960  Biso   1.000  O
  O60      1.0000 0.98060  0.99840  0.24040  Biso   1.000  O
  O61      1.0000 0.29330  0.52110  0.73480  Biso   1.000  O
  O62      1.0000 0.20670  0.02110  0.76520  Biso   1.000  O
  O63      1.0000 0.70670  0.47890  0.26520  Biso   1.000  O
  O64      1.0000 0.79330  0.97890  0.23480  Biso   1.000  O
  O65      1.0000 0.28130  0.45430  0.67620  Biso   1.000  O
  O66      1.0000 0.21870  0.95430  0.82380  Biso   1.000  O
  O67      1.0000 0.71870  0.54570  0.32380  Biso   1.000  O
  O68      1.0000 0.78130  0.04570  0.17620  Biso   1.000  O
  O69      1.0000 0.47730  0.45800  0.70440  Biso   1.000  O
  O70      1.0000 0.02270  0.95800  0.79560  Biso   1.000  O
  O71      1.0000 0.52270  0.54200  0.29560  Biso   1.000  O
  O72      1.0000 0.97730  0.04200  0.20440  Biso   1.000  O
  O73      1.0000 0.34500  0.52580  0.72550  Biso   1.000  O
  O74      1.0000 0.15500  0.02580  0.77450  Biso   1.000  O
  O75      1.0000 0.65500  0.47420  0.27450  Biso   1.000  O
  O76      1.0000 0.84500  0.97420  0.22550  Biso   1.000  O
  Cl5      1.0000 0.05000  0.52593  0.82348  Biso   1.000  Cl
  Cl6      1.0000 0.45000  0.02593  0.67652  Biso   1.000  Cl
  Cl7      1.0000 0.95000  0.47407  0.17652  Biso   1.000  Cl
  Cl8      1.0000 0.55000  0.97407  0.32348  Biso   1.000  Cl
  O77      1.0000 0.15320  0.49710  0.84870  Biso   1.000  O
  O78      1.0000 0.34680  0.99710  0.65130  Biso   1.000  O
  O79      1.0000 0.84680  0.50290  0.15130  Biso   1.000  O
  O80      1.0000 0.65320  0.00290  0.34870  Biso   1.000  O
  O81      1.0000 0.09690  0.57590  0.81540  Biso   1.000  O
  O82      1.0000 0.40310  0.07590  0.68460  Biso   1.000  O
  O83      1.0000 0.90310  0.42410  0.18460  Biso   1.000  O
  O84      1.0000 0.59690  0.92410  0.31540  Biso   1.000  O
  O85      1.0000 0.98750  0.50820  0.77080  Biso   1.000  O
  O86      1.0000 0.51250  0.00820  0.72920  Biso   1.000  O
  O87      1.0000 0.01250  0.49180  0.22920  Biso   1.000  O
  O88      1.0000 0.48750  0.99180  0.27080  Biso   1.000  O
  O89      1.0000 0.97770  0.53050  0.86710  Biso   1.000  O
  O90      1.0000 0.52230  0.03050  0.63290  Biso   1.000  O
  O91      1.0000 0.02230  0.46950  0.13290  Biso   1.000  O
  O92      1.0000 0.47770  0.96950  0.36710  Biso   1.000  O
  Cl9      1.0000 0.98481  0.23841  0.98491  Biso   1.000  Cl
  Cl10     1.0000 0.51519  0.73841  0.51509  Biso   1.000  Cl
  Cl11     1.0000 0.01519  0.76159  0.01509  Biso   1.000  Cl
  Cl12     1.0000 0.48481  0.26159  0.48491  Biso   1.000  Cl
  O93      1.0000 0.91090  0.27780  0.99350  Biso   1.000  O
  O94      1.0000 0.58910  0.77780  0.50650  Biso   1.000  O
  O95      1.0000 0.08910  0.72220  0.00650  Biso   1.000  O
  O96      1.0000 0.41090  0.22220  0.49350  Biso   1.000  O
  O97      1.0000 0.04880  0.21450  0.03800  Biso   1.000  O
  O98      1.0000 0.45120  0.71450  0.46200  Biso   1.000  O
  O99      1.0000 0.95120  0.78550  0.96200  Biso   1.000  O
  O100     1.0000 0.54880  0.28550  0.53800  Biso   1.000  O
  O101     1.0000 0.91490  0.19990  0.95010  Biso   1.000  O
  O102     1.0000 0.58510  0.69990  0.54990  Biso   1.000  O
  O103     1.0000 0.08510  0.80010  0.04990  Biso   1.000  O
  O104     1.0000 0.41490  0.30010  0.45010  Biso   1.000  O
  O105     1.0000 0.07520  0.25640  0.95920  Biso   1.000  O
  O106     1.0000 0.42480  0.75640  0.54080  Biso   1.000  O
  O107     1.0000 0.92480  0.74360  0.04080  Biso   1.000  O
  O108     1.0000 0.57520  0.24360  0.45920  Biso   1.000  O
  Cl13     1.0000 0.74511  0.75418  0.74026  Biso   1.000  Cl
  Cl14     1.0000 0.75489  0.25418  0.75974  Biso   1.000  Cl
  Cl15     1.0000 0.25489  0.24582  0.25974  Biso   1.000  Cl
  Cl16     1.0000 0.24511  0.74582  0.24026  Biso   1.000  Cl
  O109     1.0000 0.65690  0.77780  0.69860  Biso   1.000  O
  O110     1.0000 0.84310  0.27780  0.80140  Biso   1.000  O
  O111     1.0000 0.34310  0.22220  0.30140  Biso   1.000  O
  O112     1.0000 0.15690  0.72220  0.19860  Biso   1.000  O
  O113     1.0000 0.71940  0.75240  0.79830  Biso   1.000  O
  O114     1.0000 0.78060  0.25240  0.70170  Biso   1.000  O
  O115     1.0000 0.28060  0.24760  0.20170  Biso   1.000  O
  O116     1.0000 0.21940  0.74760  0.29830  Biso   1.000  O
  O117     1.0000 0.85380  0.78080  0.74540  Biso   1.000  O
  O118     1.0000 0.64620  0.28080  0.75460  Biso   1.000  O
  O119     1.0000 0.14620  0.21920  0.25460  Biso   1.000  O
  O120     1.0000 0.35380  0.71920  0.24540  Biso   1.000  O
  O121     1.0000 0.75980  0.70270  0.72270  Biso   1.000  O
  O122     1.0000 0.74020  0.20270  0.77730  Biso   1.000  O
  O123     1.0000 0.24020  0.29730  0.27730  Biso   1.000  O
  O124     1.0000 0.25980  0.79730  0.22270  Biso   1.000  O
  O125     1.0000 0.80140  0.67090  0.87360  Biso   1.000  O
  O126     1.0000 0.69860  0.17090  0.62640  Biso   1.000  O
  O127     1.0000 0.19860  0.32910  0.12640  Biso   1.000  O
  O128     1.0000 0.30140  0.82910  0.37360  Biso   1.000  O
  H241     1.0000 0.74000  0.67650  0.84720  Biso   1.000  H
  H242     1.0000 0.76000  0.17650  0.65280  Biso   1.000  H
  H243     1.0000 0.26000  0.32350  0.15280  Biso   1.000  H
  H244     1.0000 0.24000  0.82350  0.34720  Biso   1.000  H
  C185     1.0000 0.89560  0.66850  0.85010  Biso   1.000  C
  C186     1.0000 0.60440  0.16850  0.64990  Biso   1.000  C
  C187     1.0000 0.10440  0.33150  0.14990  Biso   1.000  C
  C188     1.0000 0.39560  0.83150  0.35010  Biso   1.000  C
  H245     1.0000 0.96160  0.68800  0.87440  Biso   1.000  H
  H246     1.0000 0.53840  0.18800  0.62560  Biso   1.000  H
  H247     1.0000 0.03840  0.31200  0.12560  Biso   1.000  H
  H248     1.0000 0.46160  0.81200  0.37440  Biso   1.000  H
  H249     1.0000 0.87600  0.68320  0.81040  Biso   1.000  H
  H250     1.0000 0.62400  0.18320  0.68960  Biso   1.000  H
  H251     1.0000 0.12400  0.31680  0.18960  Biso   1.000  H
  H252     1.0000 0.37600  0.81680  0.31040  Biso   1.000  H
  H253     1.0000 0.91980  0.63250  0.84790  Biso   1.000  H
  H254     1.0000 0.58020  0.13250  0.65210  Biso   1.000  H
  H255     1.0000 0.08020  0.36750  0.15210  Biso   1.000  H
  H256     1.0000 0.41980  0.86750  0.34790  Biso   1.000  H
  O129     1.0000 0.14280  0.96860  0.17270  Biso   1.000  O
  O130     1.0000 0.35720  0.46860  0.32730  Biso   1.000  O
  O131     1.0000 0.85720  0.03140  0.82730  Biso   1.000  O
  O132     1.0000 0.64280  0.53140  0.67270  Biso   1.000  O
  H257     1.0000 0.08230  0.96260  0.14580  Biso   1.000  H
  H258     1.0000 0.41770  0.46260  0.35420  Biso   1.000  H
  H259     1.0000 0.91770  0.03740  0.85420  Biso   1.000  H
  H260     1.0000 0.58230  0.53740  0.64580  Biso   1.000  H
  C189     1.0000 0.19190  0.92190  0.19690  Biso   1.000  C
  C190     1.0000 0.30810  0.42190  0.30310  Biso   1.000  C
  C191     1.0000 0.80810  0.07810  0.80310  Biso   1.000  C
  C192     1.0000 0.69190  0.57810  0.69690  Biso   1.000  C
  H261     1.0000 0.27190  0.91730  0.18850  Biso   1.000  H
  H262     1.0000 0.22810  0.41730  0.31150  Biso   1.000  H
  H263     1.0000 0.72810  0.08270  0.81150  Biso   1.000  H
  H264     1.0000 0.77190  0.58270  0.68850  Biso   1.000  H
  H265     1.0000 0.13990  0.89330  0.17960  Biso   1.000  H
  H266     1.0000 0.36010  0.39330  0.32040  Biso   1.000  H
  H267     1.0000 0.86010  0.10670  0.82040  Biso   1.000  H
  H268     1.0000 0.63990  0.60670  0.67960  Biso   1.000  H
  H269     1.0000 0.19820  0.92230  0.23970  Biso   1.000  H
  H270     1.0000 0.30180  0.42230  0.26030  Biso   1.000  H
  H271     1.0000 0.80180  0.07770  0.76030  Biso   1.000  H
  H272     1.0000 0.69820  0.57770  0.73970  Biso   1.000  H
