data_image0
_cell_length_a       26.237
_cell_length_b       22.2111
_cell_length_c       21.9994
_cell_angle_alpha    90
_cell_angle_beta     90
_cell_angle_gamma    90

_symmetry_space_group_name_H-M    "P 1"
_symmetry_int_tables_number       1

loop_
  _symmetry_equiv_pos_as_xyz
  'x, y, z'

loop_
  _atom_site_label
  _atom_site_occupancy
  _atom_site_fract_x
  _atom_site_fract_y
  _atom_site_fract_z
  _atom_site_thermal_displace_type
  _atom_site_B_iso_or_equiv
  _atom_site_type_symbol
  Cu1      1.0000 0.98723  0.96848  0.39025  Biso   1.000  Cu
  Cu2      1.0000 0.51277  0.53152  0.89025  Biso   1.000  Cu
  Cu3      1.0000 0.01277  0.96848  0.10975  Biso   1.000  Cu
  Cu4      1.0000 0.48723  0.53152  0.60975  Biso   1.000  Cu
  Cu5      1.0000 0.01277  0.03152  0.60975  Biso   1.000  Cu
  Cu6      1.0000 0.48723  0.46848  0.10975  Biso   1.000  Cu
  Cu7      1.0000 0.98723  0.03152  0.89025  Biso   1.000  Cu
  Cu8      1.0000 0.51277  0.46848  0.39025  Biso   1.000  Cu
  Cu9      1.0000 0.74290  0.88918  0.48152  Biso   1.000  Cu
  Cu10     1.0000 0.75710  0.61082  0.98152  Biso   1.000  Cu
  Cu11     1.0000 0.25710  0.88918  0.01848  Biso   1.000  Cu
  Cu12     1.0000 0.24290  0.61082  0.51848  Biso   1.000  Cu
  Cu13     1.0000 0.25710  0.11082  0.51848  Biso   1.000  Cu
  Cu14     1.0000 0.24290  0.38918  0.01848  Biso   1.000  Cu
  Cu15     1.0000 0.74290  0.11082  0.98152  Biso   1.000  Cu
  Cu16     1.0000 0.75710  0.38918  0.48152  Biso   1.000  Cu
  O1       1.0000 0.04299  0.02120  0.40320  Biso   1.000  O
  O2       1.0000 0.45701  0.47880  0.90320  Biso   1.000  O
  O3       1.0000 0.95701  0.02120  0.09680  Biso   1.000  O
  O4       1.0000 0.54299  0.47880  0.59680  Biso   1.000  O
  O5       1.0000 0.95701  0.97880  0.59680  Biso   1.000  O
  O6       1.0000 0.54299  0.52120  0.09680  Biso   1.000  O
  O7       1.0000 0.04299  0.97880  0.90320  Biso   1.000  O
  O8       1.0000 0.45701  0.52120  0.40320  Biso   1.000  O
  O9       1.0000 0.92860  0.91230  0.38950  Biso   1.000  O
  O10      1.0000 0.57140  0.58770  0.88950  Biso   1.000  O
  O11      1.0000 0.07140  0.91230  0.11050  Biso   1.000  O
  O12      1.0000 0.42860  0.58770  0.61050  Biso   1.000  O
  O13      1.0000 0.07140  0.08770  0.61050  Biso   1.000  O
  O14      1.0000 0.42860  0.41230  0.11050  Biso   1.000  O
  O15      1.0000 0.92860  0.08770  0.88950  Biso   1.000  O
  O16      1.0000 0.57140  0.41230  0.38950  Biso   1.000  O
  O17      1.0000 0.77970  0.79250  0.44740  Biso   1.000  O
  O18      1.0000 0.72030  0.70750  0.94740  Biso   1.000  O
  O19      1.0000 0.22030  0.79250  0.05260  Biso   1.000  O
  O20      1.0000 0.27970  0.70750  0.55260  Biso   1.000  O
  O21      1.0000 0.22030  0.20750  0.55260  Biso   1.000  O
  O22      1.0000 0.27970  0.29250  0.05260  Biso   1.000  O
  O23      1.0000 0.77970  0.20750  0.94740  Biso   1.000  O
  O24      1.0000 0.72030  0.29250  0.44740  Biso   1.000  O
  H1       1.0000 0.76500  0.82350  0.43420  Biso   1.000  H
  H2       1.0000 0.73500  0.67650  0.93420  Biso   1.000  H
  H3       1.0000 0.23500  0.82350  0.06580  Biso   1.000  H
  H4       1.0000 0.26500  0.67650  0.56580  Biso   1.000  H
  H5       1.0000 0.23500  0.17650  0.56580  Biso   1.000  H
  H6       1.0000 0.26500  0.32350  0.06580  Biso   1.000  H
  H7       1.0000 0.76500  0.17650  0.93420  Biso   1.000  H
  H8       1.0000 0.73500  0.32350  0.43420  Biso   1.000  H
  O25      1.0000 0.20103  0.09180  0.46660  Biso   1.000  O
  O26      1.0000 0.29897  0.40820  0.96660  Biso   1.000  O
  O27      1.0000 0.79897  0.09180  0.03340  Biso   1.000  O
  O28      1.0000 0.70103  0.40820  0.53340  Biso   1.000  O
  O29      1.0000 0.79897  0.90820  0.53340  Biso   1.000  O
  O30      1.0000 0.70103  0.59180  0.03340  Biso   1.000  O
  O31      1.0000 0.20103  0.90820  0.96660  Biso   1.000  O
  O32      1.0000 0.29897  0.59180  0.46660  Biso   1.000  O
  O33      1.0000 0.31307  0.12180  0.57850  Biso   1.000  O
  O34      1.0000 0.18693  0.37820  0.07850  Biso   1.000  O
  O35      1.0000 0.68693  0.12180  0.92150  Biso   1.000  O
  O36      1.0000 0.81307  0.37820  0.42150  Biso   1.000  O
  O37      1.0000 0.68693  0.87820  0.42150  Biso   1.000  O
  O38      1.0000 0.81307  0.62180  0.92150  Biso   1.000  O
  O39      1.0000 0.31307  0.87820  0.07850  Biso   1.000  O
  O40      1.0000 0.18693  0.62180  0.57850  Biso   1.000  O
  O41      1.0000 0.48180  0.10260  0.68210  Biso   1.000  O
  O42      1.0000 0.01820  0.39740  0.18210  Biso   1.000  O
  O43      1.0000 0.51820  0.10260  0.81790  Biso   1.000  O
  O44      1.0000 0.98180  0.39740  0.31790  Biso   1.000  O
  O45      1.0000 0.51820  0.89740  0.31790  Biso   1.000  O
  O46      1.0000 0.98180  0.60260  0.81790  Biso   1.000  O
  O47      1.0000 0.48180  0.89740  0.18210  Biso   1.000  O
  O48      1.0000 0.01820  0.60260  0.68210  Biso   1.000  O
  H9       1.0000 0.48890  0.13540  0.66520  Biso   1.000  H
  H10      1.0000 0.01110  0.36460  0.16520  Biso   1.000  H
  H11      1.0000 0.51110  0.13540  0.83480  Biso   1.000  H
  H12      1.0000 0.98890  0.36460  0.33480  Biso   1.000  H
  H13      1.0000 0.51110  0.86460  0.33480  Biso   1.000  H
  H14      1.0000 0.98890  0.63540  0.83480  Biso   1.000  H
  H15      1.0000 0.48890  0.86460  0.16520  Biso   1.000  H
  H16      1.0000 0.01110  0.63540  0.66520  Biso   1.000  H
  N1       1.0000 0.00570  0.92030  0.45930  Biso   1.000  N
  N2       1.0000 0.49430  0.57970  0.95930  Biso   1.000  N
  N3       1.0000 0.99430  0.92030  0.04070  Biso   1.000  N
  N4       1.0000 0.50570  0.57970  0.54070  Biso   1.000  N
  N5       1.0000 0.99430  0.07970  0.54070  Biso   1.000  N
  N6       1.0000 0.50570  0.42030  0.04070  Biso   1.000  N
  N7       1.0000 0.00570  0.07970  0.95930  Biso   1.000  N
  N8       1.0000 0.49430  0.42030  0.45930  Biso   1.000  N
  N9       1.0000 0.96960  0.87570  0.47010  Biso   1.000  N
  N10      1.0000 0.53040  0.62430  0.97010  Biso   1.000  N
  N11      1.0000 0.03040  0.87570  0.02990  Biso   1.000  N
  N12      1.0000 0.46960  0.62430  0.52990  Biso   1.000  N
  N13      1.0000 0.03040  0.12430  0.52990  Biso   1.000  N
  N14      1.0000 0.46960  0.37570  0.02990  Biso   1.000  N
  N15      1.0000 0.96960  0.12430  0.97010  Biso   1.000  N
  N16      1.0000 0.53040  0.37570  0.47010  Biso   1.000  N
  H17      1.0000 0.97250  0.85000  0.50040  Biso   1.000  H
  H18      1.0000 0.52750  0.65000  0.00040  Biso   1.000  H
  H19      1.0000 0.02750  0.85000  0.99960  Biso   1.000  H
  H20      1.0000 0.47250  0.65000  0.49960  Biso   1.000  H
  H21      1.0000 0.02750  0.15000  0.49960  Biso   1.000  H
  H22      1.0000 0.47250  0.35000  0.99960  Biso   1.000  H
  H23      1.0000 0.97250  0.15000  0.00040  Biso   1.000  H
  H24      1.0000 0.52750  0.35000  0.50040  Biso   1.000  H
  N17      1.0000 0.23690  0.05020  0.57680  Biso   1.000  N
  N18      1.0000 0.26310  0.44980  0.07680  Biso   1.000  N
  N19      1.0000 0.76310  0.05020  0.92320  Biso   1.000  N
  N20      1.0000 0.73690  0.44980  0.42320  Biso   1.000  N
  N21      1.0000 0.76310  0.94980  0.42320  Biso   1.000  N
  N22      1.0000 0.73690  0.55020  0.92320  Biso   1.000  N
  N23      1.0000 0.23690  0.94980  0.07680  Biso   1.000  N
  N24      1.0000 0.26310  0.55020  0.57680  Biso   1.000  N
  N25      1.0000 0.27140  0.04650  0.62470  Biso   1.000  N
  N26      1.0000 0.22860  0.45350  0.12470  Biso   1.000  N
  N27      1.0000 0.72860  0.04650  0.87530  Biso   1.000  N
  N28      1.0000 0.77140  0.45350  0.37530  Biso   1.000  N
  N29      1.0000 0.72860  0.95350  0.37530  Biso   1.000  N
  N30      1.0000 0.77140  0.54650  0.87530  Biso   1.000  N
  N31      1.0000 0.27140  0.95350  0.12470  Biso   1.000  N
  N32      1.0000 0.22860  0.54650  0.62470  Biso   1.000  N
  H25      1.0000 0.26770  0.02070  0.65470  Biso   1.000  H
  H26      1.0000 0.23230  0.47930  0.15470  Biso   1.000  H
  H27      1.0000 0.73230  0.02070  0.84530  Biso   1.000  H
  H28      1.0000 0.76770  0.47930  0.34530  Biso   1.000  H
  H29      1.0000 0.73230  0.97930  0.34530  Biso   1.000  H
  H30      1.0000 0.76770  0.52070  0.84530  Biso   1.000  H
  H31      1.0000 0.26770  0.97930  0.15470  Biso   1.000  H
  H32      1.0000 0.23230  0.52070  0.65470  Biso   1.000  H
  N33      1.0000 0.95490  0.02500  0.33460  Biso   1.000  N
  N34      1.0000 0.54510  0.47500  0.83460  Biso   1.000  N
  N35      1.0000 0.04510  0.02500  0.16540  Biso   1.000  N
  N36      1.0000 0.45490  0.47500  0.66540  Biso   1.000  N
  N37      1.0000 0.04510  0.97500  0.66540  Biso   1.000  N
  N38      1.0000 0.45490  0.52500  0.16540  Biso   1.000  N
  N39      1.0000 0.95490  0.97500  0.83460  Biso   1.000  N
  N40      1.0000 0.54510  0.52500  0.33460  Biso   1.000  N
  N41      1.0000 0.93690  0.10770  0.28720  Biso   1.000  N
  N42      1.0000 0.56310  0.39230  0.78720  Biso   1.000  N
  N43      1.0000 0.06310  0.10770  0.21280  Biso   1.000  N
  N44      1.0000 0.43690  0.39230  0.71280  Biso   1.000  N
  N45      1.0000 0.06310  0.89230  0.71280  Biso   1.000  N
  N46      1.0000 0.43690  0.60770  0.21280  Biso   1.000  N
  N47      1.0000 0.93690  0.89230  0.78720  Biso   1.000  N
  N48      1.0000 0.56310  0.60770  0.28720  Biso   1.000  N
  H33      1.0000 0.94110  0.14380  0.27150  Biso   1.000  H
  H34      1.0000 0.55890  0.35620  0.77150  Biso   1.000  H
  H35      1.0000 0.05890  0.14380  0.22850  Biso   1.000  H
  H36      1.0000 0.44110  0.35620  0.72850  Biso   1.000  H
  H37      1.0000 0.05890  0.85620  0.72850  Biso   1.000  H
  H38      1.0000 0.44110  0.64380  0.22850  Biso   1.000  H
  H39      1.0000 0.94110  0.85620  0.77150  Biso   1.000  H
  H40      1.0000 0.55890  0.64380  0.27150  Biso   1.000  H
  N49      1.0000 0.70720  0.84430  0.54400  Biso   1.000  N
  N50      1.0000 0.79280  0.65570  0.04400  Biso   1.000  N
  N51      1.0000 0.29280  0.84430  0.95600  Biso   1.000  N
  N52      1.0000 0.20720  0.65570  0.45600  Biso   1.000  N
  N53      1.0000 0.29280  0.15570  0.45600  Biso   1.000  N
  N54      1.0000 0.20720  0.34430  0.95600  Biso   1.000  N
  N55      1.0000 0.70720  0.15570  0.04400  Biso   1.000  N
  N56      1.0000 0.79280  0.34430  0.54400  Biso   1.000  N
  N57      1.0000 0.68750  0.80730  0.63280  Biso   1.000  N
  N58      1.0000 0.81250  0.69270  0.13280  Biso   1.000  N
  N59      1.0000 0.31250  0.80730  0.86720  Biso   1.000  N
  N60      1.0000 0.18750  0.69270  0.36720  Biso   1.000  N
  N61      1.0000 0.31250  0.19270  0.36720  Biso   1.000  N
  N62      1.0000 0.18750  0.30730  0.86720  Biso   1.000  N
  N63      1.0000 0.68750  0.19270  0.13280  Biso   1.000  N
  N64      1.0000 0.81250  0.30730  0.63280  Biso   1.000  N
  H41      1.0000 0.68940  0.79810  0.67160  Biso   1.000  H
  H42      1.0000 0.81060  0.70190  0.17160  Biso   1.000  H
  H43      1.0000 0.31060  0.79810  0.82840  Biso   1.000  H
  H44      1.0000 0.18940  0.70190  0.32840  Biso   1.000  H
  H45      1.0000 0.31060  0.20190  0.32840  Biso   1.000  H
  H46      1.0000 0.18940  0.29810  0.82840  Biso   1.000  H
  H47      1.0000 0.68940  0.20190  0.17160  Biso   1.000  H
  H48      1.0000 0.81060  0.29810  0.67160  Biso   1.000  H
  C1       1.0000 0.08080  0.01630  0.44140  Biso   1.000  C
  C2       1.0000 0.41920  0.48370  0.94140  Biso   1.000  C
  C3       1.0000 0.91920  0.01630  0.05860  Biso   1.000  C
  C4       1.0000 0.58080  0.48370  0.55860  Biso   1.000  C
  C5       1.0000 0.91920  0.98370  0.55860  Biso   1.000  C
  C6       1.0000 0.58080  0.51630  0.05860  Biso   1.000  C
  C7       1.0000 0.08080  0.98370  0.94140  Biso   1.000  C
  C8       1.0000 0.41920  0.51630  0.44140  Biso   1.000  C
  C9       1.0000 0.12170  0.05600  0.43620  Biso   1.000  C
  C10      1.0000 0.37830  0.44400  0.93620  Biso   1.000  C
  C11      1.0000 0.87830  0.05600  0.06380  Biso   1.000  C
  C12      1.0000 0.62170  0.44400  0.56380  Biso   1.000  C
  C13      1.0000 0.87830  0.94400  0.56380  Biso   1.000  C
  C14      1.0000 0.62170  0.55600  0.06380  Biso   1.000  C
  C15      1.0000 0.12170  0.94400  0.93620  Biso   1.000  C
  C16      1.0000 0.37830  0.55600  0.43620  Biso   1.000  C
  C17      1.0000 0.16350  0.05520  0.47630  Biso   1.000  C
  C18      1.0000 0.33650  0.44480  0.97630  Biso   1.000  C
  C19      1.0000 0.83650  0.05520  0.02370  Biso   1.000  C
  C20      1.0000 0.66350  0.44480  0.52370  Biso   1.000  C
  C21      1.0000 0.83650  0.94480  0.52370  Biso   1.000  C
  C22      1.0000 0.66350  0.55520  0.02370  Biso   1.000  C
  C23      1.0000 0.16350  0.94480  0.97630  Biso   1.000  C
  C24      1.0000 0.33650  0.55520  0.47630  Biso   1.000  C
  C25      1.0000 0.16260  0.01270  0.52590  Biso   1.000  C
  C26      1.0000 0.33740  0.48730  0.02590  Biso   1.000  C
  C27      1.0000 0.83740  0.01270  0.97410  Biso   1.000  C
  C28      1.0000 0.66260  0.48730  0.47410  Biso   1.000  C
  C29      1.0000 0.83740  0.98730  0.47410  Biso   1.000  C
  C30      1.0000 0.66260  0.51270  0.97410  Biso   1.000  C
  C31      1.0000 0.16260  0.98730  0.02590  Biso   1.000  C
  C32      1.0000 0.33740  0.51270  0.52590  Biso   1.000  C
  C33      1.0000 0.12200  0.97240  0.52970  Biso   1.000  C
  C34      1.0000 0.37800  0.52760  0.02970  Biso   1.000  C
  C35      1.0000 0.87800  0.97240  0.97030  Biso   1.000  C
  C36      1.0000 0.62200  0.52760  0.47030  Biso   1.000  C
  C37      1.0000 0.87800  0.02760  0.47030  Biso   1.000  C
  C38      1.0000 0.62200  0.47240  0.97030  Biso   1.000  C
  C39      1.0000 0.12200  0.02760  0.02970  Biso   1.000  C
  C40      1.0000 0.37800  0.47240  0.52970  Biso   1.000  C
  H49      1.0000 0.12200  0.94400  0.56210  Biso   1.000  H
  H50      1.0000 0.37800  0.55600  0.06210  Biso   1.000  H
  H51      1.0000 0.87800  0.94400  0.93790  Biso   1.000  H
  H52      1.0000 0.62200  0.55600  0.43790  Biso   1.000  H
  H53      1.0000 0.87800  0.05600  0.43790  Biso   1.000  H
  H54      1.0000 0.62200  0.44400  0.93790  Biso   1.000  H
  H55      1.0000 0.12200  0.05600  0.06210  Biso   1.000  H
  H56      1.0000 0.37800  0.44400  0.56210  Biso   1.000  H
  C41      1.0000 0.08170  0.97130  0.48940  Biso   1.000  C
  C42      1.0000 0.41830  0.52870  0.98940  Biso   1.000  C
  C43      1.0000 0.91830  0.97130  0.01060  Biso   1.000  C
  C44      1.0000 0.58170  0.52870  0.51060  Biso   1.000  C
  C45      1.0000 0.91830  0.02870  0.51060  Biso   1.000  C
  C46      1.0000 0.58170  0.47130  0.01060  Biso   1.000  C
  C47      1.0000 0.08170  0.02870  0.98940  Biso   1.000  C
  C48      1.0000 0.41830  0.47130  0.48940  Biso   1.000  C
  C49      1.0000 0.04310  0.92670  0.49670  Biso   1.000  C
  C50      1.0000 0.45690  0.57330  0.99670  Biso   1.000  C
  C51      1.0000 0.95690  0.92670  0.00330  Biso   1.000  C
  C52      1.0000 0.54310  0.57330  0.50330  Biso   1.000  C
  C53      1.0000 0.95690  0.07330  0.50330  Biso   1.000  C
  C54      1.0000 0.54310  0.42670  0.00330  Biso   1.000  C
  C55      1.0000 0.04310  0.07330  0.99670  Biso   1.000  C
  C56      1.0000 0.45690  0.42670  0.49670  Biso   1.000  C
  H57      1.0000 0.04510  0.90050  0.53070  Biso   1.000  H
  H58      1.0000 0.45490  0.59950  0.03070  Biso   1.000  H
  H59      1.0000 0.95490  0.90050  0.96930  Biso   1.000  H
  H60      1.0000 0.54510  0.59950  0.46930  Biso   1.000  H
  H61      1.0000 0.95490  0.09950  0.46930  Biso   1.000  H
  H62      1.0000 0.54510  0.40050  0.96930  Biso   1.000  H
  H63      1.0000 0.04510  0.09950  0.03070  Biso   1.000  H
  H64      1.0000 0.45490  0.40050  0.53070  Biso   1.000  H
  C57      1.0000 0.93020  0.87450  0.43170  Biso   1.000  C
  C58      1.0000 0.56980  0.62550  0.93170  Biso   1.000  C
  C59      1.0000 0.06980  0.87450  0.06830  Biso   1.000  C
  C60      1.0000 0.43020  0.62550  0.56830  Biso   1.000  C
  C61      1.0000 0.06980  0.12550  0.56830  Biso   1.000  C
  C62      1.0000 0.43020  0.37450  0.06830  Biso   1.000  C
  C63      1.0000 0.93020  0.12550  0.93170  Biso   1.000  C
  C64      1.0000 0.56980  0.37450  0.43170  Biso   1.000  C
  C65      1.0000 0.89010  0.82850  0.44240  Biso   1.000  C
  C66      1.0000 0.60990  0.67150  0.94240  Biso   1.000  C
  C67      1.0000 0.10990  0.82850  0.05760  Biso   1.000  C
  C68      1.0000 0.39010  0.67150  0.55760  Biso   1.000  C
  C69      1.0000 0.10990  0.17150  0.55760  Biso   1.000  C
  C70      1.0000 0.39010  0.32850  0.05760  Biso   1.000  C
  C71      1.0000 0.89010  0.17150  0.94240  Biso   1.000  C
  C72      1.0000 0.60990  0.32850  0.44240  Biso   1.000  C
  H65      1.0000 0.86870  0.84160  0.47710  Biso   1.000  H
  H66      1.0000 0.63130  0.65840  0.97710  Biso   1.000  H
  H67      1.0000 0.13130  0.84160  0.02290  Biso   1.000  H
  H68      1.0000 0.36870  0.65840  0.52290  Biso   1.000  H
  H69      1.0000 0.13130  0.15840  0.52290  Biso   1.000  H
  H70      1.0000 0.36870  0.34160  0.02290  Biso   1.000  H
  H71      1.0000 0.86870  0.15840  0.97710  Biso   1.000  H
  H72      1.0000 0.63130  0.34160  0.47710  Biso   1.000  H
  H73      1.0000 0.90660  0.79010  0.45400  Biso   1.000  H
  H74      1.0000 0.59340  0.70990  0.95400  Biso   1.000  H
  H75      1.0000 0.09340  0.79010  0.04600  Biso   1.000  H
  H76      1.0000 0.40660  0.70990  0.54600  Biso   1.000  H
  H77      1.0000 0.09340  0.20990  0.54600  Biso   1.000  H
  H78      1.0000 0.40660  0.29010  0.04600  Biso   1.000  H
  H79      1.0000 0.90660  0.20990  0.95400  Biso   1.000  H
  H80      1.0000 0.59340  0.29010  0.45400  Biso   1.000  H
  C73      1.0000 0.85640  0.81750  0.38900  Biso   1.000  C
  C74      1.0000 0.64360  0.68250  0.88900  Biso   1.000  C
  C75      1.0000 0.14360  0.81750  0.11100  Biso   1.000  C
  C76      1.0000 0.35640  0.68250  0.61100  Biso   1.000  C
  C77      1.0000 0.14360  0.18250  0.61100  Biso   1.000  C
  C78      1.0000 0.35640  0.31750  0.11100  Biso   1.000  C
  C79      1.0000 0.85640  0.18250  0.88900  Biso   1.000  C
  C80      1.0000 0.64360  0.31750  0.38900  Biso   1.000  C
  H81      1.0000 0.87730  0.80290  0.35460  Biso   1.000  H
  H82      1.0000 0.62270  0.69710  0.85460  Biso   1.000  H
  H83      1.0000 0.12270  0.80290  0.14540  Biso   1.000  H
  H84      1.0000 0.37730  0.69710  0.64540  Biso   1.000  H
  H85      1.0000 0.12270  0.19710  0.64540  Biso   1.000  H
  H86      1.0000 0.37730  0.30290  0.14540  Biso   1.000  H
  H87      1.0000 0.87730  0.19710  0.85460  Biso   1.000  H
  H88      1.0000 0.62270  0.30290  0.35460  Biso   1.000  H
  H89      1.0000 0.84030  0.85590  0.37660  Biso   1.000  H
  H90      1.0000 0.65970  0.64410  0.87660  Biso   1.000  H
  H91      1.0000 0.15970  0.85590  0.12340  Biso   1.000  H
  H92      1.0000 0.34030  0.64410  0.62340  Biso   1.000  H
  H93      1.0000 0.15970  0.14410  0.62340  Biso   1.000  H
  H94      1.0000 0.34030  0.35590  0.12340  Biso   1.000  H
  H95      1.0000 0.84030  0.14410  0.87660  Biso   1.000  H
  H96      1.0000 0.65970  0.35590  0.37660  Biso   1.000  H
  C81      1.0000 0.81510  0.77150  0.40340  Biso   1.000  C
  C82      1.0000 0.68490  0.72850  0.90340  Biso   1.000  C
  C83      1.0000 0.18490  0.77150  0.09660  Biso   1.000  C
  C84      1.0000 0.31510  0.72850  0.59660  Biso   1.000  C
  C85      1.0000 0.18490  0.22850  0.59660  Biso   1.000  C
  C86      1.0000 0.31510  0.27150  0.09660  Biso   1.000  C
  C87      1.0000 0.81510  0.22850  0.90340  Biso   1.000  C
  C88      1.0000 0.68490  0.27150  0.40340  Biso   1.000  C
  H97      1.0000 0.79660  0.76140  0.36550  Biso   1.000  H
  H98      1.0000 0.70340  0.73860  0.86550  Biso   1.000  H
  H99      1.0000 0.20340  0.76140  0.13450  Biso   1.000  H
  H100     1.0000 0.29660  0.73860  0.63450  Biso   1.000  H
  H101     1.0000 0.20340  0.23860  0.63450  Biso   1.000  H
  H102     1.0000 0.29660  0.26140  0.13450  Biso   1.000  H
  H103     1.0000 0.79660  0.23860  0.86550  Biso   1.000  H
  H104     1.0000 0.70340  0.26140  0.36550  Biso   1.000  H
  H105     1.0000 0.83130  0.73410  0.41860  Biso   1.000  H
  H106     1.0000 0.66870  0.76590  0.91860  Biso   1.000  H
  H107     1.0000 0.16870  0.73410  0.08140  Biso   1.000  H
  H108     1.0000 0.33130  0.76590  0.58140  Biso   1.000  H
  H109     1.0000 0.16870  0.26590  0.58140  Biso   1.000  H
  H110     1.0000 0.33130  0.23410  0.08140  Biso   1.000  H
  H111     1.0000 0.83130  0.26590  0.91860  Biso   1.000  H
  H112     1.0000 0.66870  0.23410  0.41860  Biso   1.000  H
  C89      1.0000 0.20040  0.01210  0.57360  Biso   1.000  C
  C90      1.0000 0.29960  0.48790  0.07360  Biso   1.000  C
  C91      1.0000 0.79960  0.01210  0.92640  Biso   1.000  C
  C92      1.0000 0.70040  0.48790  0.42640  Biso   1.000  C
  C93      1.0000 0.79960  0.98790  0.42640  Biso   1.000  C
  C94      1.0000 0.70040  0.51210  0.92640  Biso   1.000  C
  C95      1.0000 0.20040  0.98790  0.07360  Biso   1.000  C
  C96      1.0000 0.29960  0.51210  0.57360  Biso   1.000  C
  H113     1.0000 0.19800  0.98200  0.60420  Biso   1.000  H
  H114     1.0000 0.30200  0.51800  0.10420  Biso   1.000  H
  H115     1.0000 0.80200  0.98200  0.89580  Biso   1.000  H
  H116     1.0000 0.69800  0.51800  0.39580  Biso   1.000  H
  H117     1.0000 0.80200  0.01800  0.39580  Biso   1.000  H
  H118     1.0000 0.69800  0.48200  0.89580  Biso   1.000  H
  H119     1.0000 0.19800  0.01800  0.10420  Biso   1.000  H
  H120     1.0000 0.30200  0.48200  0.60420  Biso   1.000  H
  C97      1.0000 0.31030  0.08480  0.62210  Biso   1.000  C
  C98      1.0000 0.18970  0.41520  0.12210  Biso   1.000  C
  C99      1.0000 0.68970  0.08480  0.87790  Biso   1.000  C
  C100     1.0000 0.81030  0.41520  0.37790  Biso   1.000  C
  C101     1.0000 0.68970  0.91520  0.37790  Biso   1.000  C
  C102     1.0000 0.81030  0.58480  0.87790  Biso   1.000  C
  C103     1.0000 0.31030  0.91520  0.12210  Biso   1.000  C
  C104     1.0000 0.18970  0.58480  0.62210  Biso   1.000  C
  C105     1.0000 0.34910  0.08070  0.67200  Biso   1.000  C
  C106     1.0000 0.15090  0.41930  0.17200  Biso   1.000  C
  C107     1.0000 0.65090  0.08070  0.82800  Biso   1.000  C
  C108     1.0000 0.84910  0.41930  0.32800  Biso   1.000  C
  C109     1.0000 0.65090  0.91930  0.32800  Biso   1.000  C
  C110     1.0000 0.84910  0.58070  0.82800  Biso   1.000  C
  C111     1.0000 0.34910  0.91930  0.17200  Biso   1.000  C
  C112     1.0000 0.15090  0.58070  0.67200  Biso   1.000  C
  H121     1.0000 0.33330  0.09380  0.71080  Biso   1.000  H
  H122     1.0000 0.16670  0.40620  0.21080  Biso   1.000  H
  H123     1.0000 0.66670  0.09380  0.78920  Biso   1.000  H
  H124     1.0000 0.83330  0.40620  0.28920  Biso   1.000  H
  H125     1.0000 0.66670  0.90620  0.28920  Biso   1.000  H
  H126     1.0000 0.83330  0.59380  0.78920  Biso   1.000  H
  H127     1.0000 0.33330  0.90620  0.21080  Biso   1.000  H
  H128     1.0000 0.16670  0.59380  0.71080  Biso   1.000  H
  H129     1.0000 0.35990  0.03830  0.67680  Biso   1.000  H
  H130     1.0000 0.14010  0.46170  0.17680  Biso   1.000  H
  H131     1.0000 0.64010  0.03830  0.82320  Biso   1.000  H
  H132     1.0000 0.85990  0.46170  0.32320  Biso   1.000  H
  H133     1.0000 0.64010  0.96170  0.32320  Biso   1.000  H
  H134     1.0000 0.85990  0.53830  0.82320  Biso   1.000  H
  H135     1.0000 0.35990  0.96170  0.17680  Biso   1.000  H
  H136     1.0000 0.14010  0.53830  0.67680  Biso   1.000  H
  C113     1.0000 0.39440  0.11850  0.65960  Biso   1.000  C
  C114     1.0000 0.10560  0.38150  0.15960  Biso   1.000  C
  C115     1.0000 0.60560  0.11850  0.84040  Biso   1.000  C
  C116     1.0000 0.89440  0.38150  0.34040  Biso   1.000  C
  C117     1.0000 0.60560  0.88150  0.34040  Biso   1.000  C
  C118     1.0000 0.89440  0.61850  0.84040  Biso   1.000  C
  C119     1.0000 0.39440  0.88150  0.15960  Biso   1.000  C
  C120     1.0000 0.10560  0.61850  0.65960  Biso   1.000  C
  H137     1.0000 0.38470  0.16150  0.66230  Biso   1.000  H
  H138     1.0000 0.11530  0.33850  0.16230  Biso   1.000  H
  H139     1.0000 0.61530  0.16150  0.83770  Biso   1.000  H
  H140     1.0000 0.88470  0.33850  0.33770  Biso   1.000  H
  H141     1.0000 0.61530  0.83850  0.33770  Biso   1.000  H
  H142     1.0000 0.88470  0.66150  0.83770  Biso   1.000  H
  H143     1.0000 0.38470  0.83850  0.16230  Biso   1.000  H
  H144     1.0000 0.11530  0.66150  0.66230  Biso   1.000  H
  H145     1.0000 0.40660  0.11060  0.61780  Biso   1.000  H
  H146     1.0000 0.09340  0.38940  0.11780  Biso   1.000  H
  H147     1.0000 0.59340  0.11060  0.88220  Biso   1.000  H
  H148     1.0000 0.90660  0.38940  0.38220  Biso   1.000  H
  H149     1.0000 0.59340  0.88940  0.38220  Biso   1.000  H
  H150     1.0000 0.90660  0.61060  0.88220  Biso   1.000  H
  H151     1.0000 0.40660  0.88940  0.11780  Biso   1.000  H
  H152     1.0000 0.09340  0.61060  0.61780  Biso   1.000  H
  C121     1.0000 0.43770  0.10560  0.70490  Biso   1.000  C
  C122     1.0000 0.06230  0.39440  0.20490  Biso   1.000  C
  C123     1.0000 0.56230  0.10560  0.79510  Biso   1.000  C
  C124     1.0000 0.93770  0.39440  0.29510  Biso   1.000  C
  C125     1.0000 0.56230  0.89440  0.29510  Biso   1.000  C
  C126     1.0000 0.93770  0.60560  0.79510  Biso   1.000  C
  C127     1.0000 0.43770  0.89440  0.20490  Biso   1.000  C
  C128     1.0000 0.06230  0.60560  0.70490  Biso   1.000  C
  H153     1.0000 0.43760  0.13760  0.73620  Biso   1.000  H
  H154     1.0000 0.06240  0.36240  0.23620  Biso   1.000  H
  H155     1.0000 0.56240  0.13760  0.76380  Biso   1.000  H
  H156     1.0000 0.93760  0.36240  0.26380  Biso   1.000  H
  H157     1.0000 0.56240  0.86240  0.26380  Biso   1.000  H
  H158     1.0000 0.93760  0.63760  0.76380  Biso   1.000  H
  H159     1.0000 0.43760  0.86240  0.23620  Biso   1.000  H
  H160     1.0000 0.06240  0.63760  0.73620  Biso   1.000  H
  H161     1.0000 0.43030  0.06700  0.72560  Biso   1.000  H
  H162     1.0000 0.06970  0.43300  0.22560  Biso   1.000  H
  H163     1.0000 0.56970  0.06700  0.77440  Biso   1.000  H
  H164     1.0000 0.93030  0.43300  0.27440  Biso   1.000  H
  H165     1.0000 0.56970  0.93300  0.27440  Biso   1.000  H
  H166     1.0000 0.93030  0.56700  0.77440  Biso   1.000  H
  H167     1.0000 0.43030  0.93300  0.22560  Biso   1.000  H
  H168     1.0000 0.06970  0.56700  0.72560  Biso   1.000  H
  C129     1.0000 0.12020  0.10380  0.38700  Biso   1.000  C
  C130     1.0000 0.37980  0.39620  0.88700  Biso   1.000  C
  C131     1.0000 0.87980  0.10380  0.11300  Biso   1.000  C
  C132     1.0000 0.62020  0.39620  0.61300  Biso   1.000  C
  C133     1.0000 0.87980  0.89620  0.61300  Biso   1.000  C
  C134     1.0000 0.62020  0.60380  0.11300  Biso   1.000  C
  C135     1.0000 0.12020  0.89620  0.88700  Biso   1.000  C
  C136     1.0000 0.37980  0.60380  0.38700  Biso   1.000  C
  H169     1.0000 0.09310  0.13270  0.39610  Biso   1.000  H
  H170     1.0000 0.40690  0.36730  0.89610  Biso   1.000  H
  H171     1.0000 0.90690  0.13270  0.10390  Biso   1.000  H
  H172     1.0000 0.59310  0.36730  0.60390  Biso   1.000  H
  H173     1.0000 0.90690  0.86730  0.60390  Biso   1.000  H
  H174     1.0000 0.59310  0.63270  0.10390  Biso   1.000  H
  H175     1.0000 0.09310  0.86730  0.89610  Biso   1.000  H
  H176     1.0000 0.40690  0.63270  0.39610  Biso   1.000  H
  H177     1.0000 0.11340  0.08470  0.34770  Biso   1.000  H
  H178     1.0000 0.38660  0.41530  0.84770  Biso   1.000  H
  H179     1.0000 0.88660  0.08470  0.15230  Biso   1.000  H
  H180     1.0000 0.61340  0.41530  0.65230  Biso   1.000  H
  H181     1.0000 0.88660  0.91530  0.65230  Biso   1.000  H
  H182     1.0000 0.61340  0.58470  0.15230  Biso   1.000  H
  H183     1.0000 0.11340  0.91530  0.84770  Biso   1.000  H
  H184     1.0000 0.38660  0.58470  0.34770  Biso   1.000  H
  H185     1.0000 0.15300  0.12470  0.38550  Biso   1.000  H
  H186     1.0000 0.34700  0.37530  0.88550  Biso   1.000  H
  H187     1.0000 0.84700  0.12470  0.11450  Biso   1.000  H
  H188     1.0000 0.65300  0.37530  0.61450  Biso   1.000  H
  H189     1.0000 0.84700  0.87530  0.61450  Biso   1.000  H
  H190     1.0000 0.65300  0.62470  0.11450  Biso   1.000  H
  H191     1.0000 0.15300  0.87530  0.88550  Biso   1.000  H
  H192     1.0000 0.34700  0.62470  0.38550  Biso   1.000  H
  C137     1.0000 0.97090  0.07750  0.32140  Biso   1.000  C
  C138     1.0000 0.52910  0.42250  0.82140  Biso   1.000  C
  C139     1.0000 0.02910  0.07750  0.17860  Biso   1.000  C
  C140     1.0000 0.47090  0.42250  0.67860  Biso   1.000  C
  C141     1.0000 0.02910  0.92250  0.67860  Biso   1.000  C
  C142     1.0000 0.47090  0.57750  0.17860  Biso   1.000  C
  C143     1.0000 0.97090  0.92250  0.82140  Biso   1.000  C
  C144     1.0000 0.52910  0.57750  0.32140  Biso   1.000  C
  H193     1.0000 0.00280  0.09340  0.33410  Biso   1.000  H
  H194     1.0000 0.49720  0.40660  0.83410  Biso   1.000  H
  H195     1.0000 0.99720  0.09340  0.16590  Biso   1.000  H
  H196     1.0000 0.50280  0.40660  0.66590  Biso   1.000  H
  H197     1.0000 0.99720  0.90660  0.66590  Biso   1.000  H
  H198     1.0000 0.50280  0.59340  0.16590  Biso   1.000  H
  H199     1.0000 0.00280  0.90660  0.83410  Biso   1.000  H
  H200     1.0000 0.49720  0.59340  0.33410  Biso   1.000  H
  C145     1.0000 0.90600  0.02070  0.30980  Biso   1.000  C
  C146     1.0000 0.59400  0.47930  0.80980  Biso   1.000  C
  C147     1.0000 0.09400  0.02070  0.19020  Biso   1.000  C
  C148     1.0000 0.40600  0.47930  0.69020  Biso   1.000  C
  C149     1.0000 0.09400  0.97930  0.69020  Biso   1.000  C
  C150     1.0000 0.40600  0.52070  0.19020  Biso   1.000  C
  C151     1.0000 0.90600  0.97930  0.80980  Biso   1.000  C
  C152     1.0000 0.59400  0.52070  0.30980  Biso   1.000  C
  H201     1.0000 0.88410  0.98670  0.31270  Biso   1.000  H
  H202     1.0000 0.61590  0.51330  0.81270  Biso   1.000  H
  H203     1.0000 0.11590  0.98670  0.18730  Biso   1.000  H
  H204     1.0000 0.38410  0.51330  0.68730  Biso   1.000  H
  H205     1.0000 0.11590  0.01330  0.68730  Biso   1.000  H
  H206     1.0000 0.38410  0.48670  0.18730  Biso   1.000  H
  H207     1.0000 0.88410  0.01330  0.81270  Biso   1.000  H
  H208     1.0000 0.61590  0.48670  0.31270  Biso   1.000  H
  C153     1.0000 0.89500  0.07260  0.28140  Biso   1.000  C
  C154     1.0000 0.60500  0.42740  0.78140  Biso   1.000  C
  C155     1.0000 0.10500  0.07260  0.21860  Biso   1.000  C
  C156     1.0000 0.39500  0.42740  0.71860  Biso   1.000  C
  C157     1.0000 0.10500  0.92740  0.71860  Biso   1.000  C
  C158     1.0000 0.39500  0.57260  0.21860  Biso   1.000  C
  C159     1.0000 0.89500  0.92740  0.78140  Biso   1.000  C
  C160     1.0000 0.60500  0.57260  0.28140  Biso   1.000  C
  H209     1.0000 0.86410  0.08270  0.26130  Biso   1.000  H
  H210     1.0000 0.63590  0.41730  0.76130  Biso   1.000  H
  H211     1.0000 0.13590  0.08270  0.23870  Biso   1.000  H
  H212     1.0000 0.36410  0.41730  0.73870  Biso   1.000  H
  H213     1.0000 0.13590  0.91730  0.73870  Biso   1.000  H
  H214     1.0000 0.36410  0.58270  0.23870  Biso   1.000  H
  H215     1.0000 0.86410  0.91730  0.76130  Biso   1.000  H
  H216     1.0000 0.63590  0.58270  0.26130  Biso   1.000  H
  C161     1.0000 0.72060  0.83930  0.60170  Biso   1.000  C
  C162     1.0000 0.77940  0.66070  0.10170  Biso   1.000  C
  C163     1.0000 0.27940  0.83930  0.89830  Biso   1.000  C
  C164     1.0000 0.22060  0.66070  0.39830  Biso   1.000  C
  C165     1.0000 0.27940  0.16070  0.39830  Biso   1.000  C
  C166     1.0000 0.22060  0.33930  0.89830  Biso   1.000  C
  C167     1.0000 0.72060  0.16070  0.10170  Biso   1.000  C
  C168     1.0000 0.77940  0.33930  0.60170  Biso   1.000  C
  H217     1.0000 0.75050  0.85660  0.61860  Biso   1.000  H
  H218     1.0000 0.74950  0.64340  0.11860  Biso   1.000  H
  H219     1.0000 0.24950  0.85660  0.88140  Biso   1.000  H
  H220     1.0000 0.25050  0.64340  0.38140  Biso   1.000  H
  H221     1.0000 0.24950  0.14340  0.38140  Biso   1.000  H
  H222     1.0000 0.25050  0.35660  0.88140  Biso   1.000  H
  H223     1.0000 0.75050  0.14340  0.11860  Biso   1.000  H
  H224     1.0000 0.74950  0.35660  0.61860  Biso   1.000  H
  C169     1.0000 0.66160  0.81470  0.53880  Biso   1.000  C
  C170     1.0000 0.83840  0.68530  0.03880  Biso   1.000  C
  C171     1.0000 0.33840  0.81470  0.96120  Biso   1.000  C
  C172     1.0000 0.16160  0.68530  0.46120  Biso   1.000  C
  C173     1.0000 0.33840  0.18530  0.46120  Biso   1.000  C
  C174     1.0000 0.16160  0.31470  0.96120  Biso   1.000  C
  C175     1.0000 0.66160  0.18530  0.03880  Biso   1.000  C
  C176     1.0000 0.83840  0.31470  0.53880  Biso   1.000  C
  H225     1.0000 0.64210  0.81160  0.50260  Biso   1.000  H
  H226     1.0000 0.85790  0.68840  0.00260  Biso   1.000  H
  H227     1.0000 0.35790  0.81160  0.99740  Biso   1.000  H
  H228     1.0000 0.14210  0.68840  0.49740  Biso   1.000  H
  H229     1.0000 0.35790  0.18840  0.49740  Biso   1.000  H
  H230     1.0000 0.14210  0.31160  0.99740  Biso   1.000  H
  H231     1.0000 0.64210  0.18840  0.00260  Biso   1.000  H
  H232     1.0000 0.85790  0.31160  0.50260  Biso   1.000  H
  C177     1.0000 0.64880  0.79080  0.59270  Biso   1.000  C
  C178     1.0000 0.85120  0.70920  0.09270  Biso   1.000  C
  C179     1.0000 0.35120  0.79080  0.90730  Biso   1.000  C
  C180     1.0000 0.14880  0.70920  0.40730  Biso   1.000  C
  C181     1.0000 0.35120  0.20920  0.40730  Biso   1.000  C
  C182     1.0000 0.14880  0.29080  0.90730  Biso   1.000  C
  C183     1.0000 0.64880  0.20920  0.09270  Biso   1.000  C
  C184     1.0000 0.85120  0.29080  0.59270  Biso   1.000  C
  H233     1.0000 0.61940  0.76750  0.60170  Biso   1.000  H
  H234     1.0000 0.88060  0.73250  0.10170  Biso   1.000  H
  H235     1.0000 0.38060  0.76750  0.89830  Biso   1.000  H
  H236     1.0000 0.11940  0.73250  0.39830  Biso   1.000  H
  H237     1.0000 0.38060  0.23250  0.39830  Biso   1.000  H
  H238     1.0000 0.11940  0.26750  0.89830  Biso   1.000  H
  H239     1.0000 0.61940  0.23250  0.10170  Biso   1.000  H
  H240     1.0000 0.88060  0.26750  0.60170  Biso   1.000  H
  Cu17     1.0000 0.23957  0.89584  0.48957  Biso   1.000  Cu
  Cu18     1.0000 0.26043  0.60416  0.98957  Biso   1.000  Cu
  Cu19     1.0000 0.76043  0.89584  0.01043  Biso   1.000  Cu
  Cu20     1.0000 0.73957  0.60416  0.51043  Biso   1.000  Cu
  Cu21     1.0000 0.76043  0.10416  0.51043  Biso   1.000  Cu
  Cu22     1.0000 0.73957  0.39584  0.01043  Biso   1.000  Cu
  Cu23     1.0000 0.23957  0.10416  0.98957  Biso   1.000  Cu
  Cu24     1.0000 0.26043  0.39584  0.48957  Biso   1.000  Cu
  Cu25     1.0000 0.51462  0.03709  0.60163  Biso   1.000  Cu
  Cu26     1.0000 0.98538  0.46291  0.10163  Biso   1.000  Cu
  Cu27     1.0000 0.48538  0.03709  0.89837  Biso   1.000  Cu
  Cu28     1.0000 0.01462  0.46291  0.39837  Biso   1.000  Cu
  Cu29     1.0000 0.48538  0.96291  0.39837  Biso   1.000  Cu
  Cu30     1.0000 0.01462  0.53709  0.89837  Biso   1.000  Cu
  Cu31     1.0000 0.51462  0.96291  0.10163  Biso   1.000  Cu
  Cu32     1.0000 0.98538  0.53709  0.60163  Biso   1.000  Cu
  O49      1.0000 0.29541  0.91800  0.53920  Biso   1.000  O
  O50      1.0000 0.20459  0.58200  0.03920  Biso   1.000  O
  O51      1.0000 0.70459  0.91800  0.96080  Biso   1.000  O
  O52      1.0000 0.79541  0.58200  0.46080  Biso   1.000  O
  O53      1.0000 0.70459  0.08200  0.46080  Biso   1.000  O
  O54      1.0000 0.79541  0.41800  0.96080  Biso   1.000  O
  O55      1.0000 0.29541  0.08200  0.03920  Biso   1.000  O
  O56      1.0000 0.20459  0.41800  0.53920  Biso   1.000  O
  O57      1.0000 0.18325  0.88180  0.42990  Biso   1.000  O
  O58      1.0000 0.31675  0.61820  0.92990  Biso   1.000  O
  O59      1.0000 0.81675  0.88180  0.07010  Biso   1.000  O
  O60      1.0000 0.68325  0.61820  0.57010  Biso   1.000  O
  O61      1.0000 0.81675  0.11820  0.57010  Biso   1.000  O
  O62      1.0000 0.68325  0.38180  0.07010  Biso   1.000  O
  O63      1.0000 0.18325  0.11820  0.92990  Biso   1.000  O
  O64      1.0000 0.31675  0.38180  0.42990  Biso   1.000  O
  O65      1.0000 0.02870  0.91380  0.30570  Biso   1.000  O
  O66      1.0000 0.47130  0.58620  0.80570  Biso   1.000  O
  O67      1.0000 0.97130  0.91380  0.19430  Biso   1.000  O
  O68      1.0000 0.52870  0.58620  0.69430  Biso   1.000  O
  O69      1.0000 0.97130  0.08620  0.69430  Biso   1.000  O
  O70      1.0000 0.52870  0.41380  0.19430  Biso   1.000  O
  O71      1.0000 0.02870  0.08620  0.80570  Biso   1.000  O
  O72      1.0000 0.47130  0.41380  0.30570  Biso   1.000  O
  H241     1.0000 0.00750  0.91450  0.27710  Biso   1.000  H
  H242     1.0000 0.49250  0.58550  0.77710  Biso   1.000  H
  H243     1.0000 0.99250  0.91450  0.22290  Biso   1.000  H
  H244     1.0000 0.50750  0.58550  0.72290  Biso   1.000  H
  H245     1.0000 0.99250  0.08550  0.72290  Biso   1.000  H
  H246     1.0000 0.50750  0.41450  0.22290  Biso   1.000  H
  H247     1.0000 0.00750  0.08550  0.77710  Biso   1.000  H
  H248     1.0000 0.49250  0.41450  0.27710  Biso   1.000  H
  O73      1.0000 0.45523  0.98820  0.59580  Biso   1.000  O
  O74      1.0000 0.04477  0.51180  0.09580  Biso   1.000  O
  O75      1.0000 0.54477  0.98820  0.90420  Biso   1.000  O
  O76      1.0000 0.95523  0.51180  0.40420  Biso   1.000  O
  O77      1.0000 0.54477  0.01180  0.40420  Biso   1.000  O
  O78      1.0000 0.95523  0.48820  0.90420  Biso   1.000  O
  O79      1.0000 0.45523  0.01180  0.09580  Biso   1.000  O
  O80      1.0000 0.04477  0.48820  0.59580  Biso   1.000  O
  O81      1.0000 0.57530  0.09060  0.59640  Biso   1.000  O
  O82      1.0000 0.92470  0.40940  0.09640  Biso   1.000  O
  O83      1.0000 0.42470  0.09060  0.90360  Biso   1.000  O
  O84      1.0000 0.07530  0.40940  0.40360  Biso   1.000  O
  O85      1.0000 0.42470  0.90940  0.40360  Biso   1.000  O
  O86      1.0000 0.07530  0.59060  0.90360  Biso   1.000  O
  O87      1.0000 0.57530  0.90940  0.09640  Biso   1.000  O
  O88      1.0000 0.92470  0.59060  0.59640  Biso   1.000  O
  O89      1.0000 0.72420  0.20600  0.55230  Biso   1.000  O
  O90      1.0000 0.77580  0.29400  0.05230  Biso   1.000  O
  O91      1.0000 0.27580  0.20600  0.94770  Biso   1.000  O
  O92      1.0000 0.22420  0.29400  0.44770  Biso   1.000  O
  O93      1.0000 0.27580  0.79400  0.44770  Biso   1.000  O
  O94      1.0000 0.22420  0.70600  0.94770  Biso   1.000  O
  O95      1.0000 0.72420  0.79400  0.05230  Biso   1.000  O
  O96      1.0000 0.77580  0.70600  0.55230  Biso   1.000  O
  H249     1.0000 0.71340  0.19410  0.51840  Biso   1.000  H
  H250     1.0000 0.78660  0.30590  0.01840  Biso   1.000  H
  H251     1.0000 0.28660  0.19410  0.98160  Biso   1.000  H
  H252     1.0000 0.21340  0.30590  0.48160  Biso   1.000  H
  H253     1.0000 0.28660  0.80590  0.48160  Biso   1.000  H
  H254     1.0000 0.21340  0.69410  0.98160  Biso   1.000  H
  H255     1.0000 0.71340  0.80590  0.01840  Biso   1.000  H
  H256     1.0000 0.78660  0.69410  0.51840  Biso   1.000  H
  N65      1.0000 0.25830  0.95500  0.42960  Biso   1.000  N
  N66      1.0000 0.24170  0.54500  0.92960  Biso   1.000  N
  N67      1.0000 0.74170  0.95500  0.07040  Biso   1.000  N
  N68      1.0000 0.75830  0.54500  0.57040  Biso   1.000  N
  N69      1.0000 0.74170  0.04500  0.57040  Biso   1.000  N
  N70      1.0000 0.75830  0.45500  0.07040  Biso   1.000  N
  N71      1.0000 0.25830  0.04500  0.92960  Biso   1.000  N
  N72      1.0000 0.24170  0.45500  0.42960  Biso   1.000  N
  N73      1.0000 0.22360  0.95690  0.38240  Biso   1.000  N
  N74      1.0000 0.27640  0.54310  0.88240  Biso   1.000  N
  N75      1.0000 0.77640  0.95690  0.11760  Biso   1.000  N
  N76      1.0000 0.72360  0.54310  0.61760  Biso   1.000  N
  N77      1.0000 0.77640  0.04310  0.61760  Biso   1.000  N
  N78      1.0000 0.72360  0.45690  0.11760  Biso   1.000  N
  N79      1.0000 0.22360  0.04310  0.88240  Biso   1.000  N
  N80      1.0000 0.27640  0.45690  0.38240  Biso   1.000  N
  H257     1.0000 0.22670  0.98230  0.35200  Biso   1.000  H
  H258     1.0000 0.27330  0.51770  0.85200  Biso   1.000  H
  H259     1.0000 0.77330  0.98230  0.14800  Biso   1.000  H
  H260     1.0000 0.72670  0.51770  0.64800  Biso   1.000  H
  H261     1.0000 0.77330  0.01770  0.64800  Biso   1.000  H
  H262     1.0000 0.72670  0.48230  0.14800  Biso   1.000  H
  H263     1.0000 0.22670  0.01770  0.85200  Biso   1.000  H
  H264     1.0000 0.27330  0.48230  0.35200  Biso   1.000  H
  N81      1.0000 0.49550  0.08280  0.53060  Biso   1.000  N
  N82      1.0000 0.00450  0.41720  0.03060  Biso   1.000  N
  N83      1.0000 0.50450  0.08280  0.96940  Biso   1.000  N
  N84      1.0000 0.99550  0.41720  0.46940  Biso   1.000  N
  N85      1.0000 0.50450  0.91720  0.46940  Biso   1.000  N
  N86      1.0000 0.99550  0.58280  0.96940  Biso   1.000  N
  N87      1.0000 0.49550  0.91720  0.03060  Biso   1.000  N
  N88      1.0000 0.00450  0.58280  0.53060  Biso   1.000  N
  N89      1.0000 0.53230  0.12540  0.51610  Biso   1.000  N
  N90      1.0000 0.96770  0.37460  0.01610  Biso   1.000  N
  N91      1.0000 0.46770  0.12540  0.98390  Biso   1.000  N
  N92      1.0000 0.03230  0.37460  0.48390  Biso   1.000  N
  N93      1.0000 0.46770  0.87460  0.48390  Biso   1.000  N
  N94      1.0000 0.03230  0.62540  0.98390  Biso   1.000  N
  N95      1.0000 0.53230  0.87460  0.01610  Biso   1.000  N
  N96      1.0000 0.96770  0.62540  0.51610  Biso   1.000  N
  H265     1.0000 0.52920  0.15020  0.48520  Biso   1.000  H
  H266     1.0000 0.97080  0.34980  0.98520  Biso   1.000  H
  H267     1.0000 0.47080  0.15020  0.01480  Biso   1.000  H
  H268     1.0000 0.02920  0.34980  0.51480  Biso   1.000  H
  H269     1.0000 0.47080  0.84980  0.51480  Biso   1.000  H
  H270     1.0000 0.02920  0.65020  0.01480  Biso   1.000  H
  H271     1.0000 0.52920  0.84980  0.98520  Biso   1.000  H
  H272     1.0000 0.97080  0.65020  0.48520  Biso   1.000  H
  N97      1.0000 0.20810  0.84880  0.55390  Biso   1.000  N
  N98      1.0000 0.29190  0.65120  0.05390  Biso   1.000  N
  N99      1.0000 0.79190  0.84880  0.94610  Biso   1.000  N
  N100     1.0000 0.70810  0.65120  0.44610  Biso   1.000  N
  N101     1.0000 0.79190  0.15120  0.44610  Biso   1.000  N
  N102     1.0000 0.70810  0.34880  0.94610  Biso   1.000  N
  N103     1.0000 0.20810  0.15120  0.05390  Biso   1.000  N
  N104     1.0000 0.29190  0.34880  0.55390  Biso   1.000  N
  N105     1.0000 0.19660  0.80700  0.64260  Biso   1.000  N
  N106     1.0000 0.30340  0.69300  0.14260  Biso   1.000  N
  N107     1.0000 0.80340  0.80700  0.85740  Biso   1.000  N
  N108     1.0000 0.69660  0.69300  0.35740  Biso   1.000  N
  N109     1.0000 0.80340  0.19300  0.35740  Biso   1.000  N
  N110     1.0000 0.69660  0.30700  0.85740  Biso   1.000  N
  N111     1.0000 0.19660  0.19300  0.14260  Biso   1.000  N
  N112     1.0000 0.30340  0.30700  0.64260  Biso   1.000  N
  H273     1.0000 0.20200  0.79620  0.68050  Biso   1.000  H
  H274     1.0000 0.29800  0.70380  0.18050  Biso   1.000  H
  H275     1.0000 0.79800  0.79620  0.81950  Biso   1.000  H
  H276     1.0000 0.70200  0.70380  0.31950  Biso   1.000  H
  H277     1.0000 0.79800  0.20380  0.31950  Biso   1.000  H
  H278     1.0000 0.70200  0.29620  0.81950  Biso   1.000  H
  H279     1.0000 0.20200  0.20380  0.18050  Biso   1.000  H
  H280     1.0000 0.29800  0.29620  0.68050  Biso   1.000  H
  N113     1.0000 0.54570  0.98240  0.65990  Biso   1.000  N
  N114     1.0000 0.95430  0.51760  0.15990  Biso   1.000  N
  N115     1.0000 0.45430  0.98240  0.84010  Biso   1.000  N
  N116     1.0000 0.04570  0.51760  0.34010  Biso   1.000  N
  N117     1.0000 0.45430  0.01760  0.34010  Biso   1.000  N
  N118     1.0000 0.04570  0.48240  0.84010  Biso   1.000  N
  N119     1.0000 0.54570  0.01760  0.15990  Biso   1.000  N
  N120     1.0000 0.95430  0.48240  0.65990  Biso   1.000  N
  N121     1.0000 0.60310  0.93330  0.71430  Biso   1.000  N
  N122     1.0000 0.89690  0.56670  0.21430  Biso   1.000  N
  N123     1.0000 0.39690  0.93330  0.78570  Biso   1.000  N
  N124     1.0000 0.10310  0.56670  0.28570  Biso   1.000  N
  N125     1.0000 0.39690  0.06670  0.28570  Biso   1.000  N
  N126     1.0000 0.10310  0.43330  0.78570  Biso   1.000  N
  N127     1.0000 0.60310  0.06670  0.21430  Biso   1.000  N
  N128     1.0000 0.89690  0.43330  0.71430  Biso   1.000  N
  H281     1.0000 0.63120  0.92320  0.73360  Biso   1.000  H
  H282     1.0000 0.86880  0.57680  0.23360  Biso   1.000  H
  H283     1.0000 0.36880  0.92320  0.76640  Biso   1.000  H
  H284     1.0000 0.13120  0.57680  0.26640  Biso   1.000  H
  H285     1.0000 0.36880  0.07680  0.26640  Biso   1.000  H
  H286     1.0000 0.13120  0.42320  0.76640  Biso   1.000  H
  H287     1.0000 0.63120  0.07680  0.23360  Biso   1.000  H
  H288     1.0000 0.86880  0.42320  0.73360  Biso   1.000  H
  C185     1.0000 0.33320  0.95380  0.52810  Biso   1.000  C
  C186     1.0000 0.16680  0.54620  0.02810  Biso   1.000  C
  C187     1.0000 0.66680  0.95380  0.97190  Biso   1.000  C
  C188     1.0000 0.83320  0.54620  0.47190  Biso   1.000  C
  C189     1.0000 0.66680  0.04620  0.47190  Biso   1.000  C
  C190     1.0000 0.83320  0.45380  0.97190  Biso   1.000  C
  C191     1.0000 0.33320  0.04620  0.02810  Biso   1.000  C
  C192     1.0000 0.16680  0.45380  0.52810  Biso   1.000  C
  C193     1.0000 0.37500  0.95410  0.56780  Biso   1.000  C
  C194     1.0000 0.12500  0.54590  0.06780  Biso   1.000  C
  C195     1.0000 0.62500  0.95410  0.93220  Biso   1.000  C
  C196     1.0000 0.87500  0.54590  0.43220  Biso   1.000  C
  C197     1.0000 0.62500  0.04590  0.43220  Biso   1.000  C
  C198     1.0000 0.87500  0.45410  0.93220  Biso   1.000  C
  C199     1.0000 0.37500  0.04590  0.06780  Biso   1.000  C
  C200     1.0000 0.12500  0.45410  0.56780  Biso   1.000  C
  C201     1.0000 0.41710  0.99270  0.55830  Biso   1.000  C
  C202     1.0000 0.08290  0.50730  0.05830  Biso   1.000  C
  C203     1.0000 0.58290  0.99270  0.94170  Biso   1.000  C
  C204     1.0000 0.91710  0.50730  0.44170  Biso   1.000  C
  C205     1.0000 0.58290  0.00730  0.44170  Biso   1.000  C
  C206     1.0000 0.91710  0.49270  0.94170  Biso   1.000  C
  C207     1.0000 0.41710  0.00730  0.05830  Biso   1.000  C
  C208     1.0000 0.08290  0.49270  0.55830  Biso   1.000  C
  C209     1.0000 0.41640  0.03460  0.50800  Biso   1.000  C
  C210     1.0000 0.08360  0.46540  0.00800  Biso   1.000  C
  C211     1.0000 0.58360  0.03460  0.99200  Biso   1.000  C
  C212     1.0000 0.91640  0.46540  0.49200  Biso   1.000  C
  C213     1.0000 0.58360  0.96540  0.49200  Biso   1.000  C
  C214     1.0000 0.91640  0.53460  0.99200  Biso   1.000  C
  C215     1.0000 0.41640  0.96540  0.00800  Biso   1.000  C
  C216     1.0000 0.08360  0.53460  0.50800  Biso   1.000  C
  C217     1.0000 0.37450  0.03300  0.46860  Biso   1.000  C
  C218     1.0000 0.12550  0.46700  0.96860  Biso   1.000  C
  C219     1.0000 0.62550  0.03300  0.03140  Biso   1.000  C
  C220     1.0000 0.87450  0.46700  0.53140  Biso   1.000  C
  C221     1.0000 0.62550  0.96700  0.53140  Biso   1.000  C
  C222     1.0000 0.87450  0.53300  0.03140  Biso   1.000  C
  C223     1.0000 0.37450  0.96700  0.96860  Biso   1.000  C
  C224     1.0000 0.12550  0.53300  0.46860  Biso   1.000  C
  H289     1.0000 0.37380  0.06000  0.43510  Biso   1.000  H
  H290     1.0000 0.12620  0.44000  0.93510  Biso   1.000  H
  H291     1.0000 0.62620  0.06000  0.06490  Biso   1.000  H
  H292     1.0000 0.87380  0.44000  0.56490  Biso   1.000  H
  H293     1.0000 0.62620  0.94000  0.56490  Biso   1.000  H
  H294     1.0000 0.87380  0.56000  0.06490  Biso   1.000  H
  H295     1.0000 0.37380  0.94000  0.93510  Biso   1.000  H
  H296     1.0000 0.12620  0.56000  0.43510  Biso   1.000  H
  C225     1.0000 0.33380  0.99370  0.47630  Biso   1.000  C
  C226     1.0000 0.16620  0.50630  0.97630  Biso   1.000  C
  C227     1.0000 0.66620  0.99370  0.02370  Biso   1.000  C
  C228     1.0000 0.83380  0.50630  0.52370  Biso   1.000  C
  C229     1.0000 0.66620  0.00630  0.52370  Biso   1.000  C
  C230     1.0000 0.83380  0.49370  0.02370  Biso   1.000  C
  C231     1.0000 0.33380  0.00630  0.97630  Biso   1.000  C
  C232     1.0000 0.16620  0.49370  0.47630  Biso   1.000  C
  C233     1.0000 0.29520  0.99320  0.42980  Biso   1.000  C
  C234     1.0000 0.20480  0.50680  0.92980  Biso   1.000  C
  C235     1.0000 0.70480  0.99320  0.07020  Biso   1.000  C
  C236     1.0000 0.79520  0.50680  0.57020  Biso   1.000  C
  C237     1.0000 0.70480  0.00680  0.57020  Biso   1.000  C
  C238     1.0000 0.79520  0.49320  0.07020  Biso   1.000  C
  C239     1.0000 0.29520  0.00680  0.92980  Biso   1.000  C
  C240     1.0000 0.20480  0.49320  0.42980  Biso   1.000  C
  H297     1.0000 0.29700  0.02210  0.39810  Biso   1.000  H
  H298     1.0000 0.20300  0.47790  0.89810  Biso   1.000  H
  H299     1.0000 0.70300  0.02210  0.10190  Biso   1.000  H
  H300     1.0000 0.79700  0.47790  0.60190  Biso   1.000  H
  H301     1.0000 0.70300  0.97790  0.60190  Biso   1.000  H
  H302     1.0000 0.79700  0.52210  0.10190  Biso   1.000  H
  H303     1.0000 0.29700  0.97790  0.89810  Biso   1.000  H
  H304     1.0000 0.20300  0.52210  0.39810  Biso   1.000  H
  C241     1.0000 0.18530  0.91820  0.38560  Biso   1.000  C
  C242     1.0000 0.31470  0.58180  0.88560  Biso   1.000  C
  C243     1.0000 0.81470  0.91820  0.11440  Biso   1.000  C
  C244     1.0000 0.68530  0.58180  0.61440  Biso   1.000  C
  C245     1.0000 0.81470  0.08180  0.61440  Biso   1.000  C
  C246     1.0000 0.68530  0.41820  0.11440  Biso   1.000  C
  C247     1.0000 0.18530  0.08180  0.88560  Biso   1.000  C
  C248     1.0000 0.31470  0.41820  0.38560  Biso   1.000  C
  C249     1.0000 0.14540  0.92050  0.33700  Biso   1.000  C
  C250     1.0000 0.35460  0.57950  0.83700  Biso   1.000  C
  C251     1.0000 0.85460  0.92050  0.16300  Biso   1.000  C
  C252     1.0000 0.64540  0.57950  0.66300  Biso   1.000  C
  C253     1.0000 0.85460  0.07950  0.66300  Biso   1.000  C
  C254     1.0000 0.64540  0.42050  0.16300  Biso   1.000  C
  C255     1.0000 0.14540  0.07950  0.83700  Biso   1.000  C
  C256     1.0000 0.35460  0.42050  0.33700  Biso   1.000  C
  H305     1.0000 0.12850  0.96030  0.33870  Biso   1.000  H
  H306     1.0000 0.37150  0.53970  0.83870  Biso   1.000  H
  H307     1.0000 0.87150  0.96030  0.16130  Biso   1.000  H
  H308     1.0000 0.62850  0.53970  0.66130  Biso   1.000  H
  H309     1.0000 0.87150  0.03970  0.66130  Biso   1.000  H
  H310     1.0000 0.62850  0.46030  0.16130  Biso   1.000  H
  H311     1.0000 0.12850  0.03970  0.83870  Biso   1.000  H
  H312     1.0000 0.37150  0.46030  0.33870  Biso   1.000  H
  H313     1.0000 0.16260  0.91740  0.29700  Biso   1.000  H
  H314     1.0000 0.33740  0.58260  0.79700  Biso   1.000  H
  H315     1.0000 0.83740  0.91740  0.20300  Biso   1.000  H
  H316     1.0000 0.66260  0.58260  0.70300  Biso   1.000  H
  H317     1.0000 0.83740  0.08260  0.70300  Biso   1.000  H
  H318     1.0000 0.66260  0.41740  0.20300  Biso   1.000  H
  H319     1.0000 0.16260  0.08260  0.79700  Biso   1.000  H
  H320     1.0000 0.33740  0.41740  0.29700  Biso   1.000  H
  C257     1.0000 0.10730  0.87500  0.34040  Biso   1.000  C
  C258     1.0000 0.39270  0.62500  0.84040  Biso   1.000  C
  C259     1.0000 0.89270  0.87500  0.15960  Biso   1.000  C
  C260     1.0000 0.60730  0.62500  0.65960  Biso   1.000  C
  C261     1.0000 0.89270  0.12500  0.65960  Biso   1.000  C
  C262     1.0000 0.60730  0.37500  0.15960  Biso   1.000  C
  C263     1.0000 0.10730  0.12500  0.84040  Biso   1.000  C
  C264     1.0000 0.39270  0.37500  0.34040  Biso   1.000  C
  H321     1.0000 0.09010  0.87810  0.38040  Biso   1.000  H
  H322     1.0000 0.40990  0.62190  0.88040  Biso   1.000  H
  H323     1.0000 0.90990  0.87810  0.11960  Biso   1.000  H
  H324     1.0000 0.59010  0.62190  0.61960  Biso   1.000  H
  H325     1.0000 0.90990  0.12190  0.61960  Biso   1.000  H
  H326     1.0000 0.59010  0.37810  0.11960  Biso   1.000  H
  H327     1.0000 0.09010  0.12190  0.88040  Biso   1.000  H
  H328     1.0000 0.40990  0.37810  0.38040  Biso   1.000  H
  H329     1.0000 0.12420  0.83520  0.33870  Biso   1.000  H
  H330     1.0000 0.37580  0.66480  0.83870  Biso   1.000  H
  H331     1.0000 0.87580  0.83520  0.16130  Biso   1.000  H
  H332     1.0000 0.62420  0.66480  0.66130  Biso   1.000  H
  H333     1.0000 0.87580  0.16480  0.66130  Biso   1.000  H
  H334     1.0000 0.62420  0.33520  0.16130  Biso   1.000  H
  H335     1.0000 0.12420  0.16480  0.83870  Biso   1.000  H
  H336     1.0000 0.37580  0.33520  0.33870  Biso   1.000  H
  C265     1.0000 0.06730  0.87780  0.29090  Biso   1.000  C
  C266     1.0000 0.43270  0.62220  0.79090  Biso   1.000  C
  C267     1.0000 0.93270  0.87780  0.20910  Biso   1.000  C
  C268     1.0000 0.56730  0.62220  0.70910  Biso   1.000  C
  C269     1.0000 0.93270  0.12220  0.70910  Biso   1.000  C
  C270     1.0000 0.56730  0.37780  0.20910  Biso   1.000  C
  C271     1.0000 0.06730  0.12220  0.79090  Biso   1.000  C
  C272     1.0000 0.43270  0.37780  0.29090  Biso   1.000  C
  H337     1.0000 0.08320  0.89250  0.25290  Biso   1.000  H
  H338     1.0000 0.41680  0.60750  0.75290  Biso   1.000  H
  H339     1.0000 0.91680  0.89250  0.24710  Biso   1.000  H
  H340     1.0000 0.58320  0.60750  0.74710  Biso   1.000  H
  H341     1.0000 0.91680  0.10750  0.74710  Biso   1.000  H
  H342     1.0000 0.58320  0.39250  0.24710  Biso   1.000  H
  H343     1.0000 0.08320  0.10750  0.75290  Biso   1.000  H
  H344     1.0000 0.41680  0.39250  0.25290  Biso   1.000  H
  H345     1.0000 0.05410  0.83680  0.28320  Biso   1.000  H
  H346     1.0000 0.44590  0.66320  0.78320  Biso   1.000  H
  H347     1.0000 0.94590  0.83680  0.21680  Biso   1.000  H
  H348     1.0000 0.55410  0.66320  0.71680  Biso   1.000  H
  H349     1.0000 0.94590  0.16320  0.71680  Biso   1.000  H
  H350     1.0000 0.55410  0.33680  0.21680  Biso   1.000  H
  H351     1.0000 0.05410  0.16320  0.78320  Biso   1.000  H
  H352     1.0000 0.44590  0.33680  0.28320  Biso   1.000  H
  C273     1.0000 0.45560  0.07810  0.49680  Biso   1.000  C
  C274     1.0000 0.04440  0.42190  0.99680  Biso   1.000  C
  C275     1.0000 0.54440  0.07810  0.00320  Biso   1.000  C
  C276     1.0000 0.95560  0.42190  0.50320  Biso   1.000  C
  C277     1.0000 0.54440  0.92190  0.50320  Biso   1.000  C
  C278     1.0000 0.95560  0.57810  0.00320  Biso   1.000  C
  C279     1.0000 0.45560  0.92190  0.99680  Biso   1.000  C
  C280     1.0000 0.04440  0.57810  0.49680  Biso   1.000  C
  H353     1.0000 0.45200  0.10450  0.46320  Biso   1.000  H
  H354     1.0000 0.04800  0.39550  0.96320  Biso   1.000  H
  H355     1.0000 0.54800  0.10450  0.03680  Biso   1.000  H
  H356     1.0000 0.95200  0.39550  0.53680  Biso   1.000  H
  H357     1.0000 0.54800  0.89550  0.53680  Biso   1.000  H
  H358     1.0000 0.95200  0.60450  0.03680  Biso   1.000  H
  H359     1.0000 0.45200  0.89550  0.96320  Biso   1.000  H
  H360     1.0000 0.04800  0.60450  0.46320  Biso   1.000  H
  C281     1.0000 0.57330  0.12590  0.55330  Biso   1.000  C
  C282     1.0000 0.92670  0.37410  0.05330  Biso   1.000  C
  C283     1.0000 0.42670  0.12590  0.94670  Biso   1.000  C
  C284     1.0000 0.07330  0.37410  0.44670  Biso   1.000  C
  C285     1.0000 0.42670  0.87410  0.44670  Biso   1.000  C
  C286     1.0000 0.07330  0.62590  0.94670  Biso   1.000  C
  C287     1.0000 0.57330  0.87410  0.05330  Biso   1.000  C
  C288     1.0000 0.92670  0.62590  0.55330  Biso   1.000  C
  C289     1.0000 0.61430  0.17040  0.54080  Biso   1.000  C
  C290     1.0000 0.88570  0.32960  0.04080  Biso   1.000  C
  C291     1.0000 0.38570  0.17040  0.95920  Biso   1.000  C
  C292     1.0000 0.11430  0.32960  0.45920  Biso   1.000  C
  C293     1.0000 0.38570  0.82960  0.45920  Biso   1.000  C
  C294     1.0000 0.11430  0.67040  0.95920  Biso   1.000  C
  C295     1.0000 0.61430  0.82960  0.04080  Biso   1.000  C
  C296     1.0000 0.88570  0.67040  0.54080  Biso   1.000  C
  H361     1.0000 0.59910  0.20640  0.52150  Biso   1.000  H
  H362     1.0000 0.90090  0.29360  0.02150  Biso   1.000  H
  H363     1.0000 0.40090  0.20640  0.97850  Biso   1.000  H
  H364     1.0000 0.09910  0.29360  0.47850  Biso   1.000  H
  H365     1.0000 0.40090  0.79360  0.47850  Biso   1.000  H
  H366     1.0000 0.09910  0.70640  0.97850  Biso   1.000  H
  H367     1.0000 0.59910  0.79360  0.02150  Biso   1.000  H
  H368     1.0000 0.90090  0.70640  0.52150  Biso   1.000  H
  H369     1.0000 0.63880  0.15270  0.51160  Biso   1.000  H
  H370     1.0000 0.86120  0.34730  0.01160  Biso   1.000  H
  H371     1.0000 0.36120  0.15270  0.98840  Biso   1.000  H
  H372     1.0000 0.13880  0.34730  0.48840  Biso   1.000  H
  H373     1.0000 0.36120  0.84730  0.48840  Biso   1.000  H
  H374     1.0000 0.13880  0.65270  0.98840  Biso   1.000  H
  H375     1.0000 0.63880  0.84730  0.01160  Biso   1.000  H
  H376     1.0000 0.86120  0.65270  0.51160  Biso   1.000  H
  C297     1.0000 0.64260  0.18950  0.59690  Biso   1.000  C
  C298     1.0000 0.85740  0.31050  0.09690  Biso   1.000  C
  C299     1.0000 0.35740  0.18950  0.90310  Biso   1.000  C
  C300     1.0000 0.14260  0.31050  0.40310  Biso   1.000  C
  C301     1.0000 0.35740  0.81050  0.40310  Biso   1.000  C
  C302     1.0000 0.14260  0.68950  0.90310  Biso   1.000  C
  C303     1.0000 0.64260  0.81050  0.09690  Biso   1.000  C
  C304     1.0000 0.85740  0.68950  0.59690  Biso   1.000  C
  H377     1.0000 0.61840  0.20880  0.62540  Biso   1.000  H
  H378     1.0000 0.88160  0.29120  0.12540  Biso   1.000  H
  H379     1.0000 0.38160  0.20880  0.87460  Biso   1.000  H
  H380     1.0000 0.11840  0.29120  0.37460  Biso   1.000  H
  H381     1.0000 0.38160  0.79120  0.37460  Biso   1.000  H
  H382     1.0000 0.11840  0.70880  0.87460  Biso   1.000  H
  H383     1.0000 0.61840  0.79120  0.12540  Biso   1.000  H
  H384     1.0000 0.88160  0.70880  0.62540  Biso   1.000  H
  H385     1.0000 0.65660  0.15330  0.61720  Biso   1.000  H
  H386     1.0000 0.84340  0.34670  0.11720  Biso   1.000  H
  H387     1.0000 0.34340  0.15330  0.88280  Biso   1.000  H
  H388     1.0000 0.15660  0.34670  0.38280  Biso   1.000  H
  H389     1.0000 0.34340  0.84670  0.38280  Biso   1.000  H
  H390     1.0000 0.15660  0.65330  0.88280  Biso   1.000  H
  H391     1.0000 0.65660  0.84670  0.11720  Biso   1.000  H
  H392     1.0000 0.84340  0.65330  0.61720  Biso   1.000  H
  C305     1.0000 0.68530  0.23250  0.58390  Biso   1.000  C
  C306     1.0000 0.81470  0.26750  0.08390  Biso   1.000  C
  C307     1.0000 0.31470  0.23250  0.91610  Biso   1.000  C
  C308     1.0000 0.18530  0.26750  0.41610  Biso   1.000  C
  C309     1.0000 0.31470  0.76750  0.41610  Biso   1.000  C
  C310     1.0000 0.18530  0.73250  0.91610  Biso   1.000  C
  C311     1.0000 0.68530  0.76750  0.08390  Biso   1.000  C
  C312     1.0000 0.81470  0.73250  0.58390  Biso   1.000  C
  H393     1.0000 0.67190  0.26690  0.56020  Biso   1.000  H
  H394     1.0000 0.82810  0.23310  0.06020  Biso   1.000  H
  H395     1.0000 0.32810  0.26690  0.93980  Biso   1.000  H
  H396     1.0000 0.17190  0.23310  0.43980  Biso   1.000  H
  H397     1.0000 0.32810  0.73310  0.43980  Biso   1.000  H
  H398     1.0000 0.17190  0.76690  0.93980  Biso   1.000  H
  H399     1.0000 0.67190  0.73310  0.06020  Biso   1.000  H
  H400     1.0000 0.82810  0.76690  0.56020  Biso   1.000  H
  H401     1.0000 0.69870  0.24830  0.62280  Biso   1.000  H
  H402     1.0000 0.80130  0.25170  0.12280  Biso   1.000  H
  H403     1.0000 0.30130  0.24830  0.87720  Biso   1.000  H
  H404     1.0000 0.19870  0.25170  0.37720  Biso   1.000  H
  H405     1.0000 0.30130  0.75170  0.37720  Biso   1.000  H
  H406     1.0000 0.19870  0.74830  0.87720  Biso   1.000  H
  H407     1.0000 0.69870  0.75170  0.12280  Biso   1.000  H
  H408     1.0000 0.80130  0.74830  0.62280  Biso   1.000  H
  C313     1.0000 0.37600  0.91170  0.62030  Biso   1.000  C
  C314     1.0000 0.12400  0.58830  0.12030  Biso   1.000  C
  C315     1.0000 0.62400  0.91170  0.87970  Biso   1.000  C
  C316     1.0000 0.87600  0.58830  0.37970  Biso   1.000  C
  C317     1.0000 0.62400  0.08830  0.37970  Biso   1.000  C
  C318     1.0000 0.87600  0.41170  0.87970  Biso   1.000  C
  C319     1.0000 0.37600  0.08830  0.12030  Biso   1.000  C
  C320     1.0000 0.12400  0.41170  0.62030  Biso   1.000  C
  H409     1.0000 0.34160  0.89560  0.62710  Biso   1.000  H
  H410     1.0000 0.15840  0.60440  0.12710  Biso   1.000  H
  H411     1.0000 0.65840  0.89560  0.87290  Biso   1.000  H
  H412     1.0000 0.84160  0.60440  0.37290  Biso   1.000  H
  H413     1.0000 0.65840  0.10440  0.37290  Biso   1.000  H
  H414     1.0000 0.84160  0.39560  0.87290  Biso   1.000  H
  H415     1.0000 0.34160  0.10440  0.12710  Biso   1.000  H
  H416     1.0000 0.15840  0.39560  0.62710  Biso   1.000  H
  H417     1.0000 0.38740  0.93300  0.65680  Biso   1.000  H
  H418     1.0000 0.11260  0.56700  0.15680  Biso   1.000  H
  H419     1.0000 0.61260  0.93300  0.84320  Biso   1.000  H
  H420     1.0000 0.88740  0.56700  0.34320  Biso   1.000  H
  H421     1.0000 0.61260  0.06700  0.34320  Biso   1.000  H
  H422     1.0000 0.88740  0.43300  0.84320  Biso   1.000  H
  H423     1.0000 0.38740  0.06700  0.15680  Biso   1.000  H
  H424     1.0000 0.11260  0.43300  0.65680  Biso   1.000  H
  H425     1.0000 0.39940  0.87850  0.61150  Biso   1.000  H
  H426     1.0000 0.10060  0.62150  0.11150  Biso   1.000  H
  H427     1.0000 0.60060  0.87850  0.88850  Biso   1.000  H
  H428     1.0000 0.89940  0.62150  0.38850  Biso   1.000  H
  H429     1.0000 0.60060  0.12150  0.38850  Biso   1.000  H
  H430     1.0000 0.89940  0.37850  0.88850  Biso   1.000  H
  H431     1.0000 0.39940  0.12150  0.11150  Biso   1.000  H
  H432     1.0000 0.10060  0.37850  0.61150  Biso   1.000  H
  C321     1.0000 0.22690  0.84190  0.60880  Biso   1.000  C
  C322     1.0000 0.27310  0.65810  0.10880  Biso   1.000  C
  C323     1.0000 0.77310  0.84190  0.89120  Biso   1.000  C
  C324     1.0000 0.72690  0.65810  0.39120  Biso   1.000  C
  C325     1.0000 0.77310  0.15810  0.39120  Biso   1.000  C
  C326     1.0000 0.72690  0.34190  0.89120  Biso   1.000  C
  C327     1.0000 0.22690  0.15810  0.10880  Biso   1.000  C
  C328     1.0000 0.27310  0.34190  0.60880  Biso   1.000  C
  H433     1.0000 0.25790  0.85940  0.62260  Biso   1.000  H
  H434     1.0000 0.24210  0.64060  0.12260  Biso   1.000  H
  H435     1.0000 0.74210  0.85940  0.87740  Biso   1.000  H
  H436     1.0000 0.75790  0.64060  0.37740  Biso   1.000  H
  H437     1.0000 0.74210  0.14060  0.37740  Biso   1.000  H
  H438     1.0000 0.75790  0.35940  0.87740  Biso   1.000  H
  H439     1.0000 0.25790  0.14060  0.12260  Biso   1.000  H
  H440     1.0000 0.24210  0.35940  0.62260  Biso   1.000  H
  C329     1.0000 0.16390  0.81680  0.55330  Biso   1.000  C
  C330     1.0000 0.33610  0.68320  0.05330  Biso   1.000  C
  C331     1.0000 0.83610  0.81680  0.94670  Biso   1.000  C
  C332     1.0000 0.66390  0.68320  0.44670  Biso   1.000  C
  C333     1.0000 0.83610  0.18320  0.44670  Biso   1.000  C
  C334     1.0000 0.66390  0.31680  0.94670  Biso   1.000  C
  C335     1.0000 0.16390  0.18320  0.05330  Biso   1.000  C
  C336     1.0000 0.33610  0.31680  0.55330  Biso   1.000  C
  H441     1.0000 0.14180  0.81280  0.51930  Biso   1.000  H
  H442     1.0000 0.35820  0.68720  0.01930  Biso   1.000  H
  H443     1.0000 0.85820  0.81280  0.98070  Biso   1.000  H
  H444     1.0000 0.64180  0.68720  0.48070  Biso   1.000  H
  H445     1.0000 0.85820  0.18720  0.48070  Biso   1.000  H
  H446     1.0000 0.64180  0.31280  0.98070  Biso   1.000  H
  H447     1.0000 0.14180  0.18720  0.01930  Biso   1.000  H
  H448     1.0000 0.35820  0.31280  0.51930  Biso   1.000  H
  C337     1.0000 0.15630  0.79160  0.60820  Biso   1.000  C
  C338     1.0000 0.34370  0.70840  0.10820  Biso   1.000  C
  C339     1.0000 0.84370  0.79160  0.89180  Biso   1.000  C
  C340     1.0000 0.65630  0.70840  0.39180  Biso   1.000  C
  C341     1.0000 0.84370  0.20840  0.39180  Biso   1.000  C
  C342     1.0000 0.65630  0.29160  0.89180  Biso   1.000  C
  C343     1.0000 0.15630  0.20840  0.10820  Biso   1.000  C
  C344     1.0000 0.34370  0.29160  0.60820  Biso   1.000  C
  H449     1.0000 0.12800  0.76770  0.62020  Biso   1.000  H
  H450     1.0000 0.37200  0.73230  0.12020  Biso   1.000  H
  H451     1.0000 0.87200  0.76770  0.87980  Biso   1.000  H
  H452     1.0000 0.62800  0.73230  0.37980  Biso   1.000  H
  H453     1.0000 0.87200  0.23230  0.37980  Biso   1.000  H
  H454     1.0000 0.62800  0.26770  0.87980  Biso   1.000  H
  H455     1.0000 0.12800  0.23230  0.12020  Biso   1.000  H
  H456     1.0000 0.37200  0.26770  0.62020  Biso   1.000  H
  C345     1.0000 0.59480  0.98530  0.68360  Biso   1.000  C
  C346     1.0000 0.90520  0.51470  0.18360  Biso   1.000  C
  C347     1.0000 0.40520  0.98530  0.81640  Biso   1.000  C
  C348     1.0000 0.09480  0.51470  0.31640  Biso   1.000  C
  C349     1.0000 0.40520  0.01470  0.31640  Biso   1.000  C
  C350     1.0000 0.09480  0.48530  0.81640  Biso   1.000  C
  C351     1.0000 0.59480  0.01470  0.18360  Biso   1.000  C
  C352     1.0000 0.90520  0.48530  0.68360  Biso   1.000  C
  H457     1.0000 0.61820  0.01770  0.67910  Biso   1.000  H
  H458     1.0000 0.88180  0.48230  0.17910  Biso   1.000  H
  H459     1.0000 0.38180  0.01770  0.82090  Biso   1.000  H
  H460     1.0000 0.11820  0.48230  0.32090  Biso   1.000  H
  H461     1.0000 0.38180  0.98230  0.32090  Biso   1.000  H
  H462     1.0000 0.11820  0.51770  0.82090  Biso   1.000  H
  H463     1.0000 0.61820  0.98230  0.17910  Biso   1.000  H
  H464     1.0000 0.88180  0.51770  0.67910  Biso   1.000  H
  C353     1.0000 0.52770  0.93090  0.67550  Biso   1.000  C
  C354     1.0000 0.97230  0.56910  0.17550  Biso   1.000  C
  C355     1.0000 0.47230  0.93090  0.82450  Biso   1.000  C
  C356     1.0000 0.02770  0.56910  0.32450  Biso   1.000  C
  C357     1.0000 0.47230  0.06910  0.32450  Biso   1.000  C
  C358     1.0000 0.02770  0.43090  0.82450  Biso   1.000  C
  C359     1.0000 0.52770  0.06910  0.17550  Biso   1.000  C
  C360     1.0000 0.97230  0.43090  0.67550  Biso   1.000  C
  H465     1.0000 0.49500  0.91640  0.66410  Biso   1.000  H
  H466     1.0000 0.00500  0.58360  0.16410  Biso   1.000  H
  H467     1.0000 0.50500  0.91640  0.83590  Biso   1.000  H
  H468     1.0000 0.99500  0.58360  0.33590  Biso   1.000  H
  H469     1.0000 0.50500  0.08360  0.33590  Biso   1.000  H
  H470     1.0000 0.99500  0.41640  0.83590  Biso   1.000  H
  H471     1.0000 0.49500  0.08360  0.16410  Biso   1.000  H
  H472     1.0000 0.00500  0.41640  0.66410  Biso   1.000  H
  C361     1.0000 0.56100  0.90010  0.70970  Biso   1.000  C
  C362     1.0000 0.93900  0.59990  0.20970  Biso   1.000  C
  C363     1.0000 0.43900  0.90010  0.79030  Biso   1.000  C
  C364     1.0000 0.06100  0.59990  0.29030  Biso   1.000  C
  C365     1.0000 0.43900  0.09990  0.29030  Biso   1.000  C
  C366     1.0000 0.06100  0.40010  0.79030  Biso   1.000  C
  C367     1.0000 0.56100  0.09990  0.20970  Biso   1.000  C
  C368     1.0000 0.93900  0.40010  0.70970  Biso   1.000  C
  H473     1.0000 0.55550  0.86170  0.72750  Biso   1.000  H
  H474     1.0000 0.94450  0.63830  0.22750  Biso   1.000  H
  H475     1.0000 0.44450  0.86170  0.77250  Biso   1.000  H
  H476     1.0000 0.05550  0.63830  0.27250  Biso   1.000  H
  H477     1.0000 0.44450  0.13830  0.27250  Biso   1.000  H
  H478     1.0000 0.05550  0.36170  0.77250  Biso   1.000  H
  H479     1.0000 0.55550  0.13830  0.22750  Biso   1.000  H
  H480     1.0000 0.94450  0.36170  0.72750  Biso   1.000  H
  Cl1      1.0000 0.74995  0.06249  0.24625  Biso   1.000  Cl
  Cl2      1.0000 0.75005  0.43751  0.74625  Biso   1.000  Cl
  Cl3      1.0000 0.25005  0.06249  0.25375  Biso   1.000  Cl
  Cl4      1.0000 0.24995  0.43751  0.75375  Biso   1.000  Cl
  Cl5      1.0000 0.25005  0.93751  0.75375  Biso   1.000  Cl
  Cl6      1.0000 0.24995  0.56249  0.25375  Biso   1.000  Cl
  Cl7      1.0000 0.74995  0.93751  0.74625  Biso   1.000  Cl
  Cl8      1.0000 0.75005  0.56249  0.24625  Biso   1.000  Cl
  O97      1.0000 0.78380  0.06520  0.19480  Biso   1.000  O
  O98      1.0000 0.71620  0.43480  0.69480  Biso   1.000  O
  O99      1.0000 0.21620  0.06520  0.30520  Biso   1.000  O
  O100     1.0000 0.28380  0.43480  0.80520  Biso   1.000  O
  O101     1.0000 0.21620  0.93480  0.80520  Biso   1.000  O
  O102     1.0000 0.28380  0.56520  0.30520  Biso   1.000  O
  O103     1.0000 0.78380  0.93480  0.69480  Biso   1.000  O
  O104     1.0000 0.71620  0.56520  0.19480  Biso   1.000  O
  O105     1.0000 0.72240  0.11840  0.25320  Biso   1.000  O
  O106     1.0000 0.77760  0.38160  0.75320  Biso   1.000  O
  O107     1.0000 0.27760  0.11840  0.24680  Biso   1.000  O
  O108     1.0000 0.22240  0.38160  0.74680  Biso   1.000  O
  O109     1.0000 0.27760  0.88160  0.74680  Biso   1.000  O
  O110     1.0000 0.22240  0.61840  0.24680  Biso   1.000  O
  O111     1.0000 0.72240  0.88160  0.75320  Biso   1.000  O
  O112     1.0000 0.77760  0.61840  0.25320  Biso   1.000  O
  O113     1.0000 0.70860  0.01560  0.22830  Biso   1.000  O
  O114     1.0000 0.79140  0.48440  0.72830  Biso   1.000  O
  O115     1.0000 0.29140  0.01560  0.27170  Biso   1.000  O
  O116     1.0000 0.20860  0.48440  0.77170  Biso   1.000  O
  O117     1.0000 0.29140  0.98440  0.77170  Biso   1.000  O
  O118     1.0000 0.20860  0.51560  0.27170  Biso   1.000  O
  O119     1.0000 0.70860  0.98440  0.72830  Biso   1.000  O
  O120     1.0000 0.79140  0.51560  0.22830  Biso   1.000  O
  O121     1.0000 0.79290  0.02260  0.27280  Biso   1.000  O
  O122     1.0000 0.70710  0.47740  0.77280  Biso   1.000  O
  O123     1.0000 0.20710  0.02260  0.22720  Biso   1.000  O
  O124     1.0000 0.29290  0.47740  0.72720  Biso   1.000  O
  O125     1.0000 0.20710  0.97740  0.72720  Biso   1.000  O
  O126     1.0000 0.29290  0.52260  0.22720  Biso   1.000  O
  O127     1.0000 0.79290  0.97740  0.77280  Biso   1.000  O
  O128     1.0000 0.70710  0.52260  0.27280  Biso   1.000  O
  O129     1.0000 0.77520  0.12320  0.24150  Biso   1.000  O
  O130     1.0000 0.72480  0.37680  0.74150  Biso   1.000  O
  O131     1.0000 0.22480  0.12320  0.25850  Biso   1.000  O
  O132     1.0000 0.27520  0.37680  0.75850  Biso   1.000  O
  O133     1.0000 0.22480  0.87680  0.75850  Biso   1.000  O
  O134     1.0000 0.27520  0.62320  0.25850  Biso   1.000  O
  O135     1.0000 0.77520  0.87680  0.74150  Biso   1.000  O
  O136     1.0000 0.72480  0.62320  0.24150  Biso   1.000  O
  O137     1.0000 0.71830  0.06490  0.29930  Biso   1.000  O
  O138     1.0000 0.78170  0.43510  0.79930  Biso   1.000  O
  O139     1.0000 0.28170  0.06490  0.20070  Biso   1.000  O
  O140     1.0000 0.21830  0.43510  0.70070  Biso   1.000  O
  O141     1.0000 0.28170  0.93510  0.70070  Biso   1.000  O
  O142     1.0000 0.21830  0.56490  0.20070  Biso   1.000  O
  O143     1.0000 0.71830  0.93510  0.79930  Biso   1.000  O
  O144     1.0000 0.78170  0.56490  0.29930  Biso   1.000  O
  O145     1.0000 0.73140  0.04040  0.19860  Biso   1.000  O
  O146     1.0000 0.76860  0.45960  0.69860  Biso   1.000  O
  O147     1.0000 0.26860  0.04040  0.30140  Biso   1.000  O
  O148     1.0000 0.23140  0.45960  0.80140  Biso   1.000  O
  O149     1.0000 0.26860  0.95960  0.80140  Biso   1.000  O
  O150     1.0000 0.23140  0.54040  0.30140  Biso   1.000  O
  O151     1.0000 0.73140  0.95960  0.69860  Biso   1.000  O
  O152     1.0000 0.76860  0.54040  0.19860  Biso   1.000  O
  O153     1.0000 0.76980  0.04260  0.29850  Biso   1.000  O
  O154     1.0000 0.73020  0.45740  0.79850  Biso   1.000  O
  O155     1.0000 0.23020  0.04260  0.20150  Biso   1.000  O
  O156     1.0000 0.26980  0.45740  0.70150  Biso   1.000  O
  O157     1.0000 0.23020  0.95740  0.70150  Biso   1.000  O
  O158     1.0000 0.26980  0.54260  0.20150  Biso   1.000  O
  O159     1.0000 0.76980  0.95740  0.79850  Biso   1.000  O
  O160     1.0000 0.73020  0.54260  0.29850  Biso   1.000  O
  Cl9      1.0000 0.01338  0.75701  0.58463  Biso   1.000  Cl
  Cl10     1.0000 0.48662  0.74299  0.08463  Biso   1.000  Cl
  Cl11     1.0000 0.98662  0.75701  0.91537  Biso   1.000  Cl
  Cl12     1.0000 0.51338  0.74299  0.41537  Biso   1.000  Cl
  Cl13     1.0000 0.98662  0.24299  0.41537  Biso   1.000  Cl
  Cl14     1.0000 0.51338  0.25701  0.91537  Biso   1.000  Cl
  Cl15     1.0000 0.01338  0.24299  0.08463  Biso   1.000  Cl
  Cl16     1.0000 0.48662  0.25701  0.58463  Biso   1.000  Cl
  O161     1.0000 0.03560  0.81190  0.60340  Biso   1.000  O
  O162     1.0000 0.46440  0.68810  0.10340  Biso   1.000  O
  O163     1.0000 0.96440  0.81190  0.89660  Biso   1.000  O
  O164     1.0000 0.53560  0.68810  0.39660  Biso   1.000  O
  O165     1.0000 0.96440  0.18810  0.39660  Biso   1.000  O
  O166     1.0000 0.53560  0.31190  0.89660  Biso   1.000  O
  O167     1.0000 0.03560  0.18810  0.10340  Biso   1.000  O
  O168     1.0000 0.46440  0.31190  0.60340  Biso   1.000  O
  O169     1.0000 0.99010  0.73070  0.63430  Biso   1.000  O
  O170     1.0000 0.50990  0.76930  0.13430  Biso   1.000  O
  O171     1.0000 0.00990  0.73070  0.86570  Biso   1.000  O
  O172     1.0000 0.49010  0.76930  0.36570  Biso   1.000  O
  O173     1.0000 0.00990  0.26930  0.36570  Biso   1.000  O
  O174     1.0000 0.49010  0.23070  0.86570  Biso   1.000  O
  O175     1.0000 0.99010  0.26930  0.13430  Biso   1.000  O
  O176     1.0000 0.50990  0.23070  0.63430  Biso   1.000  O
  O177     1.0000 0.05140  0.71690  0.55890  Biso   1.000  O
  O178     1.0000 0.44860  0.78310  0.05890  Biso   1.000  O
  O179     1.0000 0.94860  0.71690  0.94110  Biso   1.000  O
  O180     1.0000 0.55140  0.78310  0.44110  Biso   1.000  O
  O181     1.0000 0.94860  0.28310  0.44110  Biso   1.000  O
  O182     1.0000 0.55140  0.21690  0.94110  Biso   1.000  O
  O183     1.0000 0.05140  0.28310  0.05890  Biso   1.000  O
  O184     1.0000 0.44860  0.21690  0.55890  Biso   1.000  O
  O185     1.0000 0.97310  0.77230  0.54410  Biso   1.000  O
  O186     1.0000 0.52690  0.72770  0.04410  Biso   1.000  O
  O187     1.0000 0.02690  0.77230  0.95590  Biso   1.000  O
  O188     1.0000 0.47310  0.72770  0.45590  Biso   1.000  O
  O189     1.0000 0.02690  0.22770  0.45590  Biso   1.000  O
  O190     1.0000 0.47310  0.27230  0.95590  Biso   1.000  O
  O191     1.0000 0.97310  0.22770  0.04410  Biso   1.000  O
  O192     1.0000 0.52690  0.27230  0.54410  Biso   1.000  O
  Cl17     1.0000 0.76890  0.69380  0.74440  Biso   1.000  Cl
  Cl18     1.0000 0.73110  0.80620  0.24440  Biso   1.000  Cl
  Cl19     1.0000 0.23110  0.69380  0.75560  Biso   1.000  Cl
  Cl20     1.0000 0.26890  0.80620  0.25560  Biso   1.000  Cl
  Cl21     1.0000 0.23110  0.30620  0.25560  Biso   1.000  Cl
  Cl22     1.0000 0.26890  0.19380  0.75560  Biso   1.000  Cl
  Cl23     1.0000 0.76890  0.30620  0.24440  Biso   1.000  Cl
  Cl24     1.0000 0.73110  0.19380  0.74440  Biso   1.000  Cl
  O193     1.0000 0.71600  0.71400  0.72700  Biso   1.000  O
  O194     1.0000 0.78400  0.78600  0.22700  Biso   1.000  O
  O195     1.0000 0.28400  0.71400  0.77300  Biso   1.000  O
  O196     1.0000 0.21600  0.78600  0.27300  Biso   1.000  O
  O197     1.0000 0.28400  0.28600  0.27300  Biso   1.000  O
  O198     1.0000 0.21600  0.21400  0.77300  Biso   1.000  O
  O199     1.0000 0.71600  0.28600  0.22700  Biso   1.000  O
  O200     1.0000 0.78400  0.21400  0.72700  Biso   1.000  O
  O201     1.0000 0.77740  0.64880  0.70620  Biso   1.000  O
  O202     1.0000 0.72260  0.85120  0.20620  Biso   1.000  O
  O203     1.0000 0.22260  0.64880  0.79380  Biso   1.000  O
  O204     1.0000 0.27740  0.85120  0.29380  Biso   1.000  O
  O205     1.0000 0.22260  0.35120  0.29380  Biso   1.000  O
  O206     1.0000 0.27740  0.14880  0.79380  Biso   1.000  O
  O207     1.0000 0.77740  0.35120  0.20620  Biso   1.000  O
  O208     1.0000 0.72260  0.14880  0.70620  Biso   1.000  O
  O209     1.0000 0.75910  0.67320  0.80190  Biso   1.000  O
  O210     1.0000 0.74090  0.82680  0.30190  Biso   1.000  O
  O211     1.0000 0.24090  0.67320  0.69810  Biso   1.000  O
  O212     1.0000 0.25910  0.82680  0.19810  Biso   1.000  O
  O213     1.0000 0.24090  0.32680  0.19810  Biso   1.000  O
  O214     1.0000 0.25910  0.17320  0.69810  Biso   1.000  O
  O215     1.0000 0.75910  0.32680  0.30190  Biso   1.000  O
  O216     1.0000 0.74090  0.17320  0.80190  Biso   1.000  O
  O217     1.0000 0.79400  0.71700  0.76400  Biso   1.000  O
  O218     1.0000 0.70600  0.78300  0.26400  Biso   1.000  O
  O219     1.0000 0.20600  0.71700  0.73600  Biso   1.000  O
  O220     1.0000 0.29400  0.78300  0.23600  Biso   1.000  O
  O221     1.0000 0.20600  0.28300  0.23600  Biso   1.000  O
  O222     1.0000 0.29400  0.21700  0.73600  Biso   1.000  O
  O223     1.0000 0.79400  0.28300  0.26400  Biso   1.000  O
  O224     1.0000 0.70600  0.21700  0.76400  Biso   1.000  O
  Cl25     1.0000 0.73840  0.69570  0.74310  Biso   1.000  Cl
  Cl26     1.0000 0.76160  0.80430  0.24310  Biso   1.000  Cl
  Cl27     1.0000 0.26160  0.69570  0.75690  Biso   1.000  Cl
  Cl28     1.0000 0.23840  0.80430  0.25690  Biso   1.000  Cl
  Cl29     1.0000 0.26160  0.30430  0.25690  Biso   1.000  Cl
  Cl30     1.0000 0.23840  0.19570  0.75690  Biso   1.000  Cl
  Cl31     1.0000 0.73840  0.30430  0.24310  Biso   1.000  Cl
  Cl32     1.0000 0.76160  0.19570  0.74310  Biso   1.000  Cl
  O225     1.0000 0.70290  0.73760  0.75140  Biso   1.000  O
  O226     1.0000 0.79710  0.76240  0.25140  Biso   1.000  O
  O227     1.0000 0.29710  0.73760  0.74860  Biso   1.000  O
  O228     1.0000 0.20290  0.76240  0.24860  Biso   1.000  O
  O229     1.0000 0.29710  0.26240  0.24860  Biso   1.000  O
  O230     1.0000 0.20290  0.23760  0.74860  Biso   1.000  O
  O231     1.0000 0.70290  0.26240  0.25140  Biso   1.000  O
  O232     1.0000 0.79710  0.23760  0.75140  Biso   1.000  O
  O233     1.0000 0.72440  0.64650  0.77540  Biso   1.000  O
  O234     1.0000 0.77560  0.85350  0.27540  Biso   1.000  O
  O235     1.0000 0.27560  0.64650  0.72460  Biso   1.000  O
  O236     1.0000 0.22440  0.85350  0.22460  Biso   1.000  O
  O237     1.0000 0.27560  0.35350  0.22460  Biso   1.000  O
  O238     1.0000 0.22440  0.14650  0.72460  Biso   1.000  O
  O239     1.0000 0.72440  0.35350  0.27540  Biso   1.000  O
  O240     1.0000 0.77560  0.14650  0.77540  Biso   1.000  O
  O241     1.0000 0.73430  0.68000  0.68000  Biso   1.000  O
  O242     1.0000 0.76570  0.82000  0.18000  Biso   1.000  O
  O243     1.0000 0.26570  0.68000  0.82000  Biso   1.000  O
  O244     1.0000 0.23430  0.82000  0.32000  Biso   1.000  O
  O245     1.0000 0.26570  0.32000  0.32000  Biso   1.000  O
  O246     1.0000 0.23430  0.18000  0.82000  Biso   1.000  O
  O247     1.0000 0.73430  0.32000  0.18000  Biso   1.000  O
  O248     1.0000 0.76570  0.18000  0.68000  Biso   1.000  O
  O249     1.0000 0.78400  0.74850  0.73570  Biso   1.000  O
  O250     1.0000 0.71600  0.75150  0.23570  Biso   1.000  O
  O251     1.0000 0.21600  0.74850  0.76430  Biso   1.000  O
  O252     1.0000 0.28400  0.75150  0.26430  Biso   1.000  O
  O253     1.0000 0.21600  0.25150  0.26430  Biso   1.000  O
  O254     1.0000 0.28400  0.24850  0.76430  Biso   1.000  O
  O255     1.0000 0.78400  0.25150  0.23570  Biso   1.000  O
  O256     1.0000 0.71600  0.24850  0.73570  Biso   1.000  O
  Cl33     1.0000 0.48750  0.24330  0.39170  Biso   1.000  Cl
  Cl34     1.0000 0.01250  0.25670  0.89170  Biso   1.000  Cl
  Cl35     1.0000 0.51250  0.24330  0.10830  Biso   1.000  Cl
  Cl36     1.0000 0.98750  0.25670  0.60830  Biso   1.000  Cl
  Cl37     1.0000 0.51250  0.75670  0.60830  Biso   1.000  Cl
  Cl38     1.0000 0.98750  0.74330  0.10830  Biso   1.000  Cl
  Cl39     1.0000 0.48750  0.75670  0.89170  Biso   1.000  Cl
  Cl40     1.0000 0.01250  0.74330  0.39170  Biso   1.000  Cl
  O257     1.0000 0.54140  0.21310  0.42300  Biso   1.000  O
  O258     1.0000 0.95860  0.28690  0.92300  Biso   1.000  O
  O259     1.0000 0.45860  0.21310  0.07700  Biso   1.000  O
  O260     1.0000 0.04140  0.28690  0.57700  Biso   1.000  O
  O261     1.0000 0.45860  0.78690  0.57700  Biso   1.000  O
  O262     1.0000 0.04140  0.71310  0.07700  Biso   1.000  O
  O263     1.0000 0.54140  0.78690  0.92300  Biso   1.000  O
  O264     1.0000 0.95860  0.71310  0.42300  Biso   1.000  O
  O265     1.0000 0.45490  0.28020  0.43000  Biso   1.000  O
  O266     1.0000 0.04510  0.21980  0.93000  Biso   1.000  O
  O267     1.0000 0.54510  0.28020  0.07000  Biso   1.000  O
  O268     1.0000 0.95490  0.21980  0.57000  Biso   1.000  O
  O269     1.0000 0.54510  0.71980  0.57000  Biso   1.000  O
  O270     1.0000 0.95490  0.78020  0.07000  Biso   1.000  O
  O271     1.0000 0.45490  0.71980  0.93000  Biso   1.000  O
  O272     1.0000 0.04510  0.78020  0.43000  Biso   1.000  O
  O273     1.0000 0.50800  0.27660  0.36420  Biso   1.000  O
  O274     1.0000 0.99200  0.22340  0.86420  Biso   1.000  O
  O275     1.0000 0.49200  0.27660  0.13580  Biso   1.000  O
  O276     1.0000 0.00800  0.22340  0.63580  Biso   1.000  O
  O277     1.0000 0.49200  0.72340  0.63580  Biso   1.000  O
  O278     1.0000 0.00800  0.77660  0.13580  Biso   1.000  O
  O279     1.0000 0.50800  0.72340  0.86420  Biso   1.000  O
  O280     1.0000 0.99200  0.77660  0.36420  Biso   1.000  O
  O281     1.0000 0.45480  0.22530  0.33470  Biso   1.000  O
  O282     1.0000 0.04520  0.27470  0.83470  Biso   1.000  O
  O283     1.0000 0.54520  0.22530  0.16530  Biso   1.000  O
  O284     1.0000 0.95480  0.27470  0.66530  Biso   1.000  O
  O285     1.0000 0.54520  0.77470  0.66530  Biso   1.000  O
  O286     1.0000 0.95480  0.72530  0.16530  Biso   1.000  O
  O287     1.0000 0.45480  0.77470  0.83470  Biso   1.000  O
  O288     1.0000 0.04520  0.72530  0.33470  Biso   1.000  O
  Cl41     1.0000 0.51380  0.21890  0.36240  Biso   1.000  Cl
  Cl42     1.0000 0.98620  0.28110  0.86240  Biso   1.000  Cl
  Cl43     1.0000 0.48620  0.21890  0.13760  Biso   1.000  Cl
  Cl44     1.0000 0.01380  0.28110  0.63760  Biso   1.000  Cl
  Cl45     1.0000 0.48620  0.78110  0.63760  Biso   1.000  Cl
  Cl46     1.0000 0.01380  0.71890  0.13760  Biso   1.000  Cl
  Cl47     1.0000 0.51380  0.78110  0.86240  Biso   1.000  Cl
  Cl48     1.0000 0.98620  0.71890  0.36240  Biso   1.000  Cl
  O289     1.0000 0.52350  0.19490  0.40940  Biso   1.000  O
  O290     1.0000 0.97650  0.30510  0.90940  Biso   1.000  O
  O291     1.0000 0.47650  0.19490  0.09060  Biso   1.000  O
  O292     1.0000 0.02350  0.30510  0.59060  Biso   1.000  O
  O293     1.0000 0.47650  0.80510  0.59060  Biso   1.000  O
  O294     1.0000 0.02350  0.69490  0.09060  Biso   1.000  O
  O295     1.0000 0.52350  0.80510  0.90940  Biso   1.000  O
  O296     1.0000 0.97650  0.69490  0.40940  Biso   1.000  O
  O297     1.0000 0.46800  0.18960  0.38930  Biso   1.000  O
  O298     1.0000 0.03200  0.31040  0.88930  Biso   1.000  O
  O299     1.0000 0.53200  0.18960  0.11070  Biso   1.000  O
  O300     1.0000 0.96800  0.31040  0.61070  Biso   1.000  O
  O301     1.0000 0.53200  0.81040  0.61070  Biso   1.000  O
  O302     1.0000 0.96800  0.68960  0.11070  Biso   1.000  O
  O303     1.0000 0.46800  0.81040  0.88930  Biso   1.000  O
  O304     1.0000 0.03200  0.68960  0.38930  Biso   1.000  O
  O305     1.0000 0.51790  0.28500  0.35500  Biso   1.000  O
  O306     1.0000 0.98210  0.21500  0.85500  Biso   1.000  O
  O307     1.0000 0.48210  0.28500  0.14500  Biso   1.000  O
  O308     1.0000 0.01790  0.21500  0.64500  Biso   1.000  O
  O309     1.0000 0.48210  0.71500  0.64500  Biso   1.000  O
  O310     1.0000 0.01790  0.78500  0.14500  Biso   1.000  O
  O311     1.0000 0.51790  0.71500  0.85500  Biso   1.000  O
  O312     1.0000 0.98210  0.78500  0.35500  Biso   1.000  O
  O313     1.0000 0.52920  0.19440  0.30590  Biso   1.000  O
  O314     1.0000 0.97080  0.30560  0.80590  Biso   1.000  O
  O315     1.0000 0.47080  0.19440  0.19410  Biso   1.000  O
  O316     1.0000 0.02920  0.30560  0.69410  Biso   1.000  O
  O317     1.0000 0.47080  0.80560  0.69410  Biso   1.000  O
  O318     1.0000 0.02920  0.69440  0.19410  Biso   1.000  O
  O319     1.0000 0.52920  0.80560  0.80590  Biso   1.000  O
  O320     1.0000 0.97080  0.69440  0.30590  Biso   1.000  O
  O321     1.0000 0.92450  0.22240  0.23560  Biso   1.000  O
  O322     1.0000 0.57550  0.27760  0.73560  Biso   1.000  O
  O323     1.0000 0.07550  0.22240  0.26440  Biso   1.000  O
  O324     1.0000 0.42450  0.27760  0.76440  Biso   1.000  O
  O325     1.0000 0.07550  0.77760  0.76440  Biso   1.000  O
  O326     1.0000 0.42450  0.72240  0.26440  Biso   1.000  O
  O327     1.0000 0.92450  0.77760  0.73560  Biso   1.000  O
  O328     1.0000 0.57550  0.72240  0.23560  Biso   1.000  O
  O329     1.0000 0.59450  0.20970  0.26020  Biso   1.000  O
  O330     1.0000 0.90550  0.29030  0.76020  Biso   1.000  O
  O331     1.0000 0.40550  0.20970  0.23980  Biso   1.000  O
  O332     1.0000 0.09450  0.29030  0.73980  Biso   1.000  O
  O333     1.0000 0.40550  0.79030  0.73980  Biso   1.000  O
  O334     1.0000 0.09450  0.70970  0.23980  Biso   1.000  O
  O335     1.0000 0.59450  0.79030  0.76020  Biso   1.000  O
  O336     1.0000 0.90550  0.70970  0.26020  Biso   1.000  O
