data_image0
_cell_length_a       25.229
_cell_length_b       33.371
_cell_length_c       18.27
_cell_angle_alpha    90
_cell_angle_beta     90
_cell_angle_gamma    90

_symmetry_space_group_name_H-M    "P 1"
_symmetry_int_tables_number       1

loop_
  _symmetry_equiv_pos_as_xyz
  'x, y, z'

loop_
  _atom_site_label
  _atom_site_occupancy
  _atom_site_fract_x
  _atom_site_fract_y
  _atom_site_fract_z
  _atom_site_thermal_displace_type
  _atom_site_B_iso_or_equiv
  _atom_site_type_symbol
  C1       1.0000 0.88141  0.39564  0.60526  Biso   1.000  C
  C2       1.0000 0.11859  0.60436  0.10526  Biso   1.000  C
  C3       1.0000 0.88141  0.60436  0.39474  Biso   1.000  C
  C4       1.0000 0.11859  0.39564  0.89474  Biso   1.000  C
  C5       1.0000 0.38141  0.89564  0.60526  Biso   1.000  C
  C6       1.0000 0.61859  0.10436  0.10526  Biso   1.000  C
  C7       1.0000 0.38141  0.10436  0.39474  Biso   1.000  C
  C8       1.0000 0.61859  0.89564  0.89474  Biso   1.000  C
  C9       1.0000 0.11859  0.60436  0.39474  Biso   1.000  C
  C10      1.0000 0.88141  0.39564  0.89474  Biso   1.000  C
  C11      1.0000 0.11859  0.39564  0.60526  Biso   1.000  C
  C12      1.0000 0.88141  0.60436  0.10526  Biso   1.000  C
  C13      1.0000 0.61859  0.10436  0.39474  Biso   1.000  C
  C14      1.0000 0.38141  0.89564  0.89474  Biso   1.000  C
  C15      1.0000 0.61859  0.89564  0.60526  Biso   1.000  C
  C16      1.0000 0.38141  0.10436  0.10526  Biso   1.000  C
  C17      1.0000 0.86290  0.35837  0.58332  Biso   1.000  C
  C18      1.0000 0.13710  0.64163  0.08332  Biso   1.000  C
  C19      1.0000 0.86290  0.64163  0.41668  Biso   1.000  C
  C20      1.0000 0.13710  0.35837  0.91668  Biso   1.000  C
  C21      1.0000 0.36290  0.85837  0.58332  Biso   1.000  C
  C22      1.0000 0.63710  0.14163  0.08332  Biso   1.000  C
  C23      1.0000 0.36290  0.14163  0.41668  Biso   1.000  C
  C24      1.0000 0.63710  0.85837  0.91668  Biso   1.000  C
  C25      1.0000 0.13710  0.64163  0.41668  Biso   1.000  C
  C26      1.0000 0.86290  0.35837  0.91668  Biso   1.000  C
  C27      1.0000 0.13710  0.35837  0.58332  Biso   1.000  C
  C28      1.0000 0.86290  0.64163  0.08332  Biso   1.000  C
  C29      1.0000 0.63710  0.14163  0.41668  Biso   1.000  C
  C30      1.0000 0.36290  0.85837  0.91668  Biso   1.000  C
  C31      1.0000 0.63710  0.85837  0.58332  Biso   1.000  C
  C32      1.0000 0.36290  0.14163  0.08332  Biso   1.000  C
  H1       1.0000 0.88030  0.33520  0.59828  Biso   1.000  H
  H2       1.0000 0.11970  0.66480  0.09828  Biso   1.000  H
  H3       1.0000 0.88030  0.66480  0.40172  Biso   1.000  H
  H4       1.0000 0.11970  0.33520  0.90172  Biso   1.000  H
  H5       1.0000 0.38030  0.83520  0.59828  Biso   1.000  H
  H6       1.0000 0.61970  0.16480  0.09828  Biso   1.000  H
  H7       1.0000 0.38030  0.16480  0.40172  Biso   1.000  H
  H8       1.0000 0.61970  0.83520  0.90172  Biso   1.000  H
  H9       1.0000 0.11970  0.66480  0.40172  Biso   1.000  H
  H10      1.0000 0.88030  0.33520  0.90172  Biso   1.000  H
  H11      1.0000 0.11970  0.33520  0.59828  Biso   1.000  H
  H12      1.0000 0.88030  0.66480  0.09828  Biso   1.000  H
  H13      1.0000 0.61970  0.16480  0.40172  Biso   1.000  H
  H14      1.0000 0.38030  0.83520  0.90172  Biso   1.000  H
  H15      1.0000 0.61970  0.83520  0.59828  Biso   1.000  H
  H16      1.0000 0.38030  0.16480  0.09828  Biso   1.000  H
  C33      1.0000 0.79199  0.39034  0.51705  Biso   1.000  C
  C34      1.0000 0.20801  0.60966  0.01705  Biso   1.000  C
  C35      1.0000 0.79199  0.60966  0.48295  Biso   1.000  C
  C36      1.0000 0.20801  0.39034  0.98295  Biso   1.000  C
  C37      1.0000 0.29199  0.89034  0.51705  Biso   1.000  C
  C38      1.0000 0.70801  0.10966  0.01705  Biso   1.000  C
  C39      1.0000 0.29199  0.10966  0.48295  Biso   1.000  C
  C40      1.0000 0.70801  0.89034  0.98295  Biso   1.000  C
  C41      1.0000 0.20801  0.60966  0.48295  Biso   1.000  C
  C42      1.0000 0.79199  0.39034  0.98295  Biso   1.000  C
  C43      1.0000 0.20801  0.39034  0.51705  Biso   1.000  C
  C44      1.0000 0.79199  0.60966  0.01705  Biso   1.000  C
  C45      1.0000 0.70801  0.10966  0.48295  Biso   1.000  C
  C46      1.0000 0.29199  0.89034  0.98295  Biso   1.000  C
  C47      1.0000 0.70801  0.89034  0.51705  Biso   1.000  C
  C48      1.0000 0.29199  0.10966  0.01705  Biso   1.000  C
  H17      1.0000 0.76194  0.38862  0.48774  Biso   1.000  H
  H18      1.0000 0.23806  0.61138  0.98774  Biso   1.000  H
  H19      1.0000 0.76194  0.61138  0.51226  Biso   1.000  H
  H20      1.0000 0.23806  0.38862  0.01226  Biso   1.000  H
  H21      1.0000 0.26194  0.88862  0.48774  Biso   1.000  H
  H22      1.0000 0.73806  0.11138  0.98774  Biso   1.000  H
  H23      1.0000 0.26194  0.11138  0.51226  Biso   1.000  H
  H24      1.0000 0.73806  0.88862  0.01226  Biso   1.000  H
  H25      1.0000 0.23806  0.61138  0.51226  Biso   1.000  H
  H26      1.0000 0.76194  0.38862  0.01226  Biso   1.000  H
  H27      1.0000 0.23806  0.38862  0.48774  Biso   1.000  H
  H28      1.0000 0.76194  0.61138  0.98774  Biso   1.000  H
  H29      1.0000 0.73806  0.11138  0.51226  Biso   1.000  H
  H30      1.0000 0.26194  0.88862  0.01226  Biso   1.000  H
  H31      1.0000 0.73806  0.88862  0.48774  Biso   1.000  H
  H32      1.0000 0.26194  0.11138  0.98774  Biso   1.000  H
  C49      1.0000 0.81066  0.42786  0.53909  Biso   1.000  C
  C50      1.0000 0.18934  0.57214  0.03909  Biso   1.000  C
  C51      1.0000 0.81066  0.57214  0.46091  Biso   1.000  C
  C52      1.0000 0.18934  0.42786  0.96091  Biso   1.000  C
  C53      1.0000 0.31066  0.92786  0.53909  Biso   1.000  C
  C54      1.0000 0.68934  0.07214  0.03909  Biso   1.000  C
  C55      1.0000 0.31066  0.07214  0.46091  Biso   1.000  C
  C56      1.0000 0.68934  0.92786  0.96091  Biso   1.000  C
  C57      1.0000 0.18934  0.57214  0.46091  Biso   1.000  C
  C58      1.0000 0.81066  0.42786  0.96091  Biso   1.000  C
  C59      1.0000 0.18934  0.42786  0.53909  Biso   1.000  C
  C60      1.0000 0.81066  0.57214  0.03909  Biso   1.000  C
  C61      1.0000 0.68934  0.07214  0.46091  Biso   1.000  C
  C62      1.0000 0.31066  0.92786  0.96091  Biso   1.000  C
  C63      1.0000 0.68934  0.92786  0.53909  Biso   1.000  C
  C64      1.0000 0.31066  0.07214  0.03909  Biso   1.000  C
  C65      1.0000 0.85534  0.43050  0.58316  Biso   1.000  C
  C66      1.0000 0.14466  0.56950  0.08316  Biso   1.000  C
  C67      1.0000 0.85534  0.56950  0.41684  Biso   1.000  C
  C68      1.0000 0.14466  0.43050  0.91684  Biso   1.000  C
  C69      1.0000 0.35534  0.93050  0.58316  Biso   1.000  C
  C70      1.0000 0.64466  0.06950  0.08316  Biso   1.000  C
  C71      1.0000 0.35534  0.06950  0.41684  Biso   1.000  C
  C72      1.0000 0.64466  0.93050  0.91684  Biso   1.000  C
  C73      1.0000 0.14466  0.56950  0.41684  Biso   1.000  C
  C74      1.0000 0.85534  0.43050  0.91684  Biso   1.000  C
  C75      1.0000 0.14466  0.43050  0.58316  Biso   1.000  C
  C76      1.0000 0.85534  0.56950  0.08316  Biso   1.000  C
  C77      1.0000 0.64466  0.06950  0.41684  Biso   1.000  C
  C78      1.0000 0.35534  0.93050  0.91684  Biso   1.000  C
  C79      1.0000 0.64466  0.93050  0.58316  Biso   1.000  C
  C80      1.0000 0.35534  0.06950  0.08316  Biso   1.000  C
  H33      1.0000 0.86787  0.45543  0.59793  Biso   1.000  H
  H34      1.0000 0.13213  0.54457  0.09793  Biso   1.000  H
  H35      1.0000 0.86787  0.54457  0.40207  Biso   1.000  H
  H36      1.0000 0.13213  0.45543  0.90207  Biso   1.000  H
  H37      1.0000 0.36787  0.95543  0.59793  Biso   1.000  H
  H38      1.0000 0.63213  0.04457  0.09793  Biso   1.000  H
  H39      1.0000 0.36787  0.04457  0.40207  Biso   1.000  H
  H40      1.0000 0.63213  0.95543  0.90207  Biso   1.000  H
  H41      1.0000 0.13213  0.54457  0.40207  Biso   1.000  H
  H42      1.0000 0.86787  0.45543  0.90207  Biso   1.000  H
  H43      1.0000 0.13213  0.45543  0.59793  Biso   1.000  H
  H44      1.0000 0.86787  0.54457  0.09793  Biso   1.000  H
  H45      1.0000 0.63213  0.04457  0.40207  Biso   1.000  H
  H46      1.0000 0.36787  0.95543  0.90207  Biso   1.000  H
  H47      1.0000 0.63213  0.95543  0.59793  Biso   1.000  H
  H48      1.0000 0.36787  0.04457  0.09793  Biso   1.000  H
  C81      1.0000 0.92621  0.39652  0.65699  Biso   1.000  C
  C82      1.0000 0.07379  0.60348  0.15699  Biso   1.000  C
  C83      1.0000 0.92621  0.60348  0.34301  Biso   1.000  C
  C84      1.0000 0.07379  0.39652  0.84301  Biso   1.000  C
  C85      1.0000 0.42621  0.89652  0.65699  Biso   1.000  C
  C86      1.0000 0.57379  0.10348  0.15699  Biso   1.000  C
  C87      1.0000 0.42621  0.10348  0.34301  Biso   1.000  C
  C88      1.0000 0.57379  0.89652  0.84301  Biso   1.000  C
  C89      1.0000 0.07379  0.60348  0.34301  Biso   1.000  C
  C90      1.0000 0.92621  0.39652  0.84301  Biso   1.000  C
  C91      1.0000 0.07379  0.39652  0.65699  Biso   1.000  C
  C92      1.0000 0.92621  0.60348  0.15699  Biso   1.000  C
  C93      1.0000 0.57379  0.10348  0.34301  Biso   1.000  C
  C94      1.0000 0.42621  0.89652  0.84301  Biso   1.000  C
  C95      1.0000 0.57379  0.89652  0.65699  Biso   1.000  C
  C96      1.0000 0.42621  0.10348  0.15699  Biso   1.000  C
  C97      1.0000 0.79299  0.31598  0.52210  Biso   1.000  C
  C98      1.0000 0.20701  0.68402  0.02210  Biso   1.000  C
  C99      1.0000 0.79299  0.68402  0.47790  Biso   1.000  C
  C100     1.0000 0.20701  0.31598  0.97790  Biso   1.000  C
  C101     1.0000 0.29299  0.81598  0.52210  Biso   1.000  C
  C102     1.0000 0.70701  0.18402  0.02210  Biso   1.000  C
  C103     1.0000 0.29299  0.18402  0.47790  Biso   1.000  C
  C104     1.0000 0.70701  0.81598  0.97790  Biso   1.000  C
  C105     1.0000 0.20701  0.68402  0.47790  Biso   1.000  C
  C106     1.0000 0.79299  0.31598  0.97790  Biso   1.000  C
  C107     1.0000 0.20701  0.31598  0.52210  Biso   1.000  C
  C108     1.0000 0.79299  0.68402  0.02210  Biso   1.000  C
  C109     1.0000 0.70701  0.18402  0.47790  Biso   1.000  C
  C110     1.0000 0.29299  0.81598  0.97790  Biso   1.000  C
  C111     1.0000 0.70701  0.81598  0.52210  Biso   1.000  C
  C112     1.0000 0.29299  0.18402  0.02210  Biso   1.000  C
  C113     1.0000 0.81033  0.50000  0.50000  Biso   1.000  C
  C114     1.0000 0.18967  0.50000  0.00000  Biso   1.000  C
  C115     1.0000 0.31033  0.00000  0.50000  Biso   1.000  C
  C116     1.0000 0.68967  0.00000  0.00000  Biso   1.000  C
  C117     1.0000 0.18967  0.50000  0.50000  Biso   1.000  C
  C118     1.0000 0.81033  0.50000  0.00000  Biso   1.000  C
  C119     1.0000 0.68967  0.00000  0.50000  Biso   1.000  C
  C120     1.0000 0.31033  0.00000  0.00000  Biso   1.000  C
  H49      1.0000 0.84719  0.50000  0.50000  Biso   1.000  H
  H50      1.0000 0.15281  0.50000  0.00000  Biso   1.000  H
  H51      1.0000 0.34719  0.00000  0.50000  Biso   1.000  H
  H52      1.0000 0.65281  0.00000  0.00000  Biso   1.000  H
  H53      1.0000 0.15281  0.50000  0.50000  Biso   1.000  H
  H54      1.0000 0.84719  0.50000  0.00000  Biso   1.000  H
  H55      1.0000 0.65281  0.00000  0.50000  Biso   1.000  H
  H56      1.0000 0.34719  0.00000  0.00000  Biso   1.000  H
  C121     1.0000 0.78192  0.46125  0.51461  Biso   1.000  C
  C122     1.0000 0.21808  0.53875  0.01461  Biso   1.000  C
  C123     1.0000 0.78192  0.53875  0.48539  Biso   1.000  C
  C124     1.0000 0.21808  0.46125  0.98539  Biso   1.000  C
  C125     1.0000 0.28192  0.96125  0.51461  Biso   1.000  C
  C126     1.0000 0.71808  0.03875  0.01461  Biso   1.000  C
  C127     1.0000 0.28192  0.03875  0.48539  Biso   1.000  C
  C128     1.0000 0.71808  0.96125  0.98539  Biso   1.000  C
  C129     1.0000 0.21808  0.53875  0.48539  Biso   1.000  C
  C130     1.0000 0.78192  0.46125  0.98539  Biso   1.000  C
  C131     1.0000 0.21808  0.46125  0.51461  Biso   1.000  C
  C132     1.0000 0.78192  0.53875  0.01461  Biso   1.000  C
  C133     1.0000 0.71808  0.03875  0.48539  Biso   1.000  C
  C134     1.0000 0.28192  0.96125  0.98539  Biso   1.000  C
  C135     1.0000 0.71808  0.96125  0.51461  Biso   1.000  C
  C136     1.0000 0.28192  0.03875  0.01461  Biso   1.000  C
  C137     1.0000 0.72446  0.46209  0.51456  Biso   1.000  C
  C138     1.0000 0.27554  0.53791  0.01456  Biso   1.000  C
  C139     1.0000 0.72446  0.53791  0.48544  Biso   1.000  C
  C140     1.0000 0.27554  0.46209  0.98544  Biso   1.000  C
  C141     1.0000 0.22446  0.96209  0.51456  Biso   1.000  C
  C142     1.0000 0.77554  0.03791  0.01456  Biso   1.000  C
  C143     1.0000 0.22446  0.03791  0.48544  Biso   1.000  C
  C144     1.0000 0.77554  0.96209  0.98544  Biso   1.000  C
  C145     1.0000 0.27554  0.53791  0.48544  Biso   1.000  C
  C146     1.0000 0.72446  0.46209  0.98544  Biso   1.000  C
  C147     1.0000 0.27554  0.46209  0.51456  Biso   1.000  C
  C148     1.0000 0.72446  0.53791  0.01456  Biso   1.000  C
  C149     1.0000 0.77554  0.03791  0.48544  Biso   1.000  C
  C150     1.0000 0.22446  0.96209  0.98544  Biso   1.000  C
  C151     1.0000 0.77554  0.96209  0.51456  Biso   1.000  C
  C152     1.0000 0.22446  0.03791  0.01456  Biso   1.000  C
  H57      1.0000 0.70596  0.43852  0.52379  Biso   1.000  H
  H58      1.0000 0.29404  0.56148  0.02379  Biso   1.000  H
  H59      1.0000 0.70596  0.56148  0.47621  Biso   1.000  H
  H60      1.0000 0.29404  0.43852  0.97621  Biso   1.000  H
  H61      1.0000 0.20596  0.93852  0.52379  Biso   1.000  H
  H62      1.0000 0.79404  0.06148  0.02379  Biso   1.000  H
  H63      1.0000 0.20596  0.06148  0.47621  Biso   1.000  H
  H64      1.0000 0.79404  0.93852  0.97621  Biso   1.000  H
  H65      1.0000 0.29404  0.56148  0.47621  Biso   1.000  H
  H66      1.0000 0.70596  0.43852  0.97621  Biso   1.000  H
  H67      1.0000 0.29404  0.43852  0.52379  Biso   1.000  H
  H68      1.0000 0.70596  0.56148  0.02379  Biso   1.000  H
  H69      1.0000 0.79404  0.06148  0.47621  Biso   1.000  H
  H70      1.0000 0.20596  0.93852  0.97621  Biso   1.000  H
  H71      1.0000 0.79404  0.93852  0.52379  Biso   1.000  H
  H72      1.0000 0.20596  0.06148  0.02379  Biso   1.000  H
  C153     1.0000 0.69387  0.50000  0.50000  Biso   1.000  C
  C154     1.0000 0.30613  0.50000  0.00000  Biso   1.000  C
  C155     1.0000 0.19387  0.00000  0.50000  Biso   1.000  C
  C156     1.0000 0.80613  0.00000  0.00000  Biso   1.000  C
  C157     1.0000 0.30613  0.50000  0.50000  Biso   1.000  C
  C158     1.0000 0.69387  0.50000  0.00000  Biso   1.000  C
  C159     1.0000 0.80613  0.00000  0.50000  Biso   1.000  C
  C160     1.0000 0.19387  0.00000  0.00000  Biso   1.000  C
  C161     1.0000 0.63466  0.50000  0.50000  Biso   1.000  C
  C162     1.0000 0.36534  0.50000  0.00000  Biso   1.000  C
  C163     1.0000 0.13466  0.00000  0.50000  Biso   1.000  C
  C164     1.0000 0.86534  0.00000  0.00000  Biso   1.000  C
  C165     1.0000 0.36534  0.50000  0.50000  Biso   1.000  C
  C166     1.0000 0.63466  0.50000  0.00000  Biso   1.000  C
  C167     1.0000 0.86534  0.00000  0.50000  Biso   1.000  C
  C168     1.0000 0.13466  0.00000  0.00000  Biso   1.000  C
  C169     1.0000 0.69647  0.26041  0.75000  Biso   1.000  C
  C170     1.0000 0.30353  0.73959  0.25000  Biso   1.000  C
  C171     1.0000 0.69647  0.73959  0.25000  Biso   1.000  C
  C172     1.0000 0.30353  0.26041  0.75000  Biso   1.000  C
  C173     1.0000 0.19647  0.76041  0.75000  Biso   1.000  C
  C174     1.0000 0.80353  0.23959  0.25000  Biso   1.000  C
  C175     1.0000 0.19647  0.23959  0.25000  Biso   1.000  C
  C176     1.0000 0.80353  0.76041  0.75000  Biso   1.000  C
  H73      1.0000 0.72909  0.24742  0.75000  Biso   1.000  H
  H74      1.0000 0.27091  0.75258  0.25000  Biso   1.000  H
  H75      1.0000 0.72909  0.75258  0.25000  Biso   1.000  H
  H76      1.0000 0.27091  0.24742  0.75000  Biso   1.000  H
  H77      1.0000 0.22909  0.74742  0.75000  Biso   1.000  H
  H78      1.0000 0.77091  0.25258  0.25000  Biso   1.000  H
  H79      1.0000 0.22909  0.25258  0.25000  Biso   1.000  H
  H80      1.0000 0.77091  0.74742  0.75000  Biso   1.000  H
  C177     1.0000 0.66831  0.27163  0.68162  Biso   1.000  C
  C178     1.0000 0.33169  0.72837  0.18162  Biso   1.000  C
  C179     1.0000 0.66831  0.72837  0.31838  Biso   1.000  C
  C180     1.0000 0.33169  0.27163  0.81838  Biso   1.000  C
  C181     1.0000 0.16831  0.77163  0.68162  Biso   1.000  C
  C182     1.0000 0.83169  0.22837  0.18162  Biso   1.000  C
  C183     1.0000 0.16831  0.22837  0.31838  Biso   1.000  C
  C184     1.0000 0.83169  0.77163  0.81838  Biso   1.000  C
  C185     1.0000 0.33169  0.72837  0.31838  Biso   1.000  C
  C186     1.0000 0.66831  0.27163  0.81838  Biso   1.000  C
  C187     1.0000 0.33169  0.27163  0.68162  Biso   1.000  C
  C188     1.0000 0.66831  0.72837  0.18162  Biso   1.000  C
  C189     1.0000 0.83169  0.22837  0.31838  Biso   1.000  C
  C190     1.0000 0.16831  0.77163  0.81838  Biso   1.000  C
  C191     1.0000 0.83169  0.77163  0.68162  Biso   1.000  C
  C192     1.0000 0.16831  0.22837  0.18162  Biso   1.000  C
  C193     1.0000 0.62362  0.29187  0.68204  Biso   1.000  C
  C194     1.0000 0.37638  0.70813  0.18204  Biso   1.000  C
  C195     1.0000 0.62362  0.70813  0.31796  Biso   1.000  C
  C196     1.0000 0.37638  0.29187  0.81796  Biso   1.000  C
  C197     1.0000 0.12362  0.79187  0.68204  Biso   1.000  C
  C198     1.0000 0.87638  0.20813  0.18204  Biso   1.000  C
  C199     1.0000 0.12362  0.20813  0.31796  Biso   1.000  C
  C200     1.0000 0.87638  0.79187  0.81796  Biso   1.000  C
  C201     1.0000 0.37638  0.70813  0.31796  Biso   1.000  C
  C202     1.0000 0.62362  0.29187  0.81796  Biso   1.000  C
  C203     1.0000 0.37638  0.29187  0.68204  Biso   1.000  C
  C204     1.0000 0.62362  0.70813  0.18204  Biso   1.000  C
  C205     1.0000 0.87638  0.20813  0.31796  Biso   1.000  C
  C206     1.0000 0.12362  0.79187  0.81796  Biso   1.000  C
  C207     1.0000 0.87638  0.79187  0.68204  Biso   1.000  C
  C208     1.0000 0.12362  0.20813  0.18204  Biso   1.000  C
  H81      1.0000 0.60884  0.29907  0.63730  Biso   1.000  H
  H82      1.0000 0.39116  0.70093  0.13730  Biso   1.000  H
  H83      1.0000 0.60884  0.70093  0.36270  Biso   1.000  H
  H84      1.0000 0.39116  0.29907  0.86270  Biso   1.000  H
  H85      1.0000 0.10884  0.79907  0.63730  Biso   1.000  H
  H86      1.0000 0.89116  0.20093  0.13730  Biso   1.000  H
  H87      1.0000 0.10884  0.20093  0.36270  Biso   1.000  H
  H88      1.0000 0.89116  0.79907  0.86270  Biso   1.000  H
  H89      1.0000 0.39116  0.70093  0.36270  Biso   1.000  H
  H90      1.0000 0.60884  0.29907  0.86270  Biso   1.000  H
  H91      1.0000 0.39116  0.29907  0.63730  Biso   1.000  H
  H92      1.0000 0.60884  0.70093  0.13730  Biso   1.000  H
  H93      1.0000 0.89116  0.20093  0.36270  Biso   1.000  H
  H94      1.0000 0.10884  0.79907  0.86270  Biso   1.000  H
  H95      1.0000 0.89116  0.79907  0.63730  Biso   1.000  H
  H96      1.0000 0.10884  0.20093  0.13730  Biso   1.000  H
  C209     1.0000 0.59533  0.30393  0.75000  Biso   1.000  C
  C210     1.0000 0.40467  0.69607  0.25000  Biso   1.000  C
  C211     1.0000 0.59533  0.69607  0.25000  Biso   1.000  C
  C212     1.0000 0.40467  0.30393  0.75000  Biso   1.000  C
  C213     1.0000 0.09533  0.80393  0.75000  Biso   1.000  C
  C214     1.0000 0.90467  0.19607  0.25000  Biso   1.000  C
  C215     1.0000 0.09533  0.19607  0.25000  Biso   1.000  C
  C216     1.0000 0.90467  0.80393  0.75000  Biso   1.000  C
  C217     1.0000 0.69659  0.26282  0.61088  Biso   1.000  C
  C218     1.0000 0.30341  0.73718  0.11088  Biso   1.000  C
  C219     1.0000 0.69659  0.73718  0.38912  Biso   1.000  C
  C220     1.0000 0.30341  0.26282  0.88912  Biso   1.000  C
  C221     1.0000 0.19659  0.76282  0.61088  Biso   1.000  C
  C222     1.0000 0.80341  0.23718  0.11088  Biso   1.000  C
  C223     1.0000 0.19659  0.23718  0.38912  Biso   1.000  C
  C224     1.0000 0.80341  0.76282  0.88912  Biso   1.000  C
  C225     1.0000 0.30341  0.73718  0.38912  Biso   1.000  C
  C226     1.0000 0.69659  0.26282  0.88912  Biso   1.000  C
  C227     1.0000 0.30341  0.26282  0.61088  Biso   1.000  C
  C228     1.0000 0.69659  0.73718  0.11088  Biso   1.000  C
  C229     1.0000 0.80341  0.23718  0.38912  Biso   1.000  C
  C230     1.0000 0.19659  0.76282  0.88912  Biso   1.000  C
  C231     1.0000 0.80341  0.76282  0.61088  Biso   1.000  C
  C232     1.0000 0.19659  0.23718  0.11088  Biso   1.000  C
  C233     1.0000 0.50000  0.30266  0.75000  Biso   1.000  C
  C234     1.0000 0.50000  0.69734  0.25000  Biso   1.000  C
  C235     1.0000 0.00000  0.80266  0.75000  Biso   1.000  C
  C236     1.0000 0.00000  0.19734  0.25000  Biso   1.000  C
  H97      1.0000 0.50000  0.27479  0.75000  Biso   1.000  H
  H98      1.0000 0.50000  0.72521  0.25000  Biso   1.000  H
  H99      1.0000 0.00000  0.77479  0.75000  Biso   1.000  H
  H100     1.0000 0.00000  0.22521  0.25000  Biso   1.000  H
  C237     1.0000 0.54655  0.32346  0.75000  Biso   1.000  C
  C238     1.0000 0.45345  0.67654  0.25000  Biso   1.000  C
  C239     1.0000 0.54655  0.67654  0.25000  Biso   1.000  C
  C240     1.0000 0.45345  0.32346  0.75000  Biso   1.000  C
  C241     1.0000 0.04655  0.82346  0.75000  Biso   1.000  C
  C242     1.0000 0.95345  0.17654  0.25000  Biso   1.000  C
  C243     1.0000 0.04655  0.17654  0.25000  Biso   1.000  C
  C244     1.0000 0.95345  0.82346  0.75000  Biso   1.000  C
  C245     1.0000 0.54782  0.36508  0.75000  Biso   1.000  C
  C246     1.0000 0.45218  0.63492  0.25000  Biso   1.000  C
  C247     1.0000 0.54782  0.63492  0.25000  Biso   1.000  C
  C248     1.0000 0.45218  0.36508  0.75000  Biso   1.000  C
  C249     1.0000 0.04782  0.86508  0.75000  Biso   1.000  C
  C250     1.0000 0.95218  0.13492  0.25000  Biso   1.000  C
  C251     1.0000 0.04782  0.13492  0.25000  Biso   1.000  C
  C252     1.0000 0.95218  0.86508  0.75000  Biso   1.000  C
  H101     1.0000 0.58001  0.37866  0.75000  Biso   1.000  H
  H102     1.0000 0.41999  0.62134  0.25000  Biso   1.000  H
  H103     1.0000 0.58001  0.62134  0.25000  Biso   1.000  H
  H104     1.0000 0.41999  0.37866  0.75000  Biso   1.000  H
  H105     1.0000 0.08001  0.87866  0.75000  Biso   1.000  H
  H106     1.0000 0.91999  0.12134  0.25000  Biso   1.000  H
  H107     1.0000 0.08001  0.12134  0.25000  Biso   1.000  H
  H108     1.0000 0.91999  0.87866  0.75000  Biso   1.000  H
  C253     1.0000 0.50000  0.38625  0.75000  Biso   1.000  C
  C254     1.0000 0.50000  0.61375  0.25000  Biso   1.000  C
  C255     1.0000 0.00000  0.88625  0.75000  Biso   1.000  C
  C256     1.0000 0.00000  0.11375  0.25000  Biso   1.000  C
  C257     1.0000 0.50000  0.43129  0.75000  Biso   1.000  C
  C258     1.0000 0.50000  0.56871  0.25000  Biso   1.000  C
  C259     1.0000 0.00000  0.93129  0.75000  Biso   1.000  C
  C260     1.0000 0.00000  0.06871  0.25000  Biso   1.000  C
  Cu1      1.0000 0.00000  0.35761  0.75000  Biso   1.000  Cu
  Cu2      1.0000 0.00000  0.64239  0.25000  Biso   1.000  Cu
  Cu3      1.0000 0.50000  0.85761  0.75000  Biso   1.000  Cu
  Cu4      1.0000 0.50000  0.14239  0.25000  Biso   1.000  Cu
  Cu5      1.0000 0.00000  0.43771  0.75000  Biso   1.000  Cu
  Cu6      1.0000 0.00000  0.56229  0.25000  Biso   1.000  Cu
  Cu7      1.0000 0.50000  0.93771  0.75000  Biso   1.000  Cu
  Cu8      1.0000 0.50000  0.06229  0.25000  Biso   1.000  Cu
  Cu9      1.0000 0.71172  0.26799  0.46229  Biso   1.000  Cu
  Cu10     1.0000 0.28828  0.73201  0.96229  Biso   1.000  Cu
  Cu11     1.0000 0.71172  0.73201  0.53771  Biso   1.000  Cu
  Cu12     1.0000 0.28828  0.26799  0.03771  Biso   1.000  Cu
  Cu13     1.0000 0.21172  0.76799  0.46229  Biso   1.000  Cu
  Cu14     1.0000 0.78828  0.23201  0.96229  Biso   1.000  Cu
  Cu15     1.0000 0.21172  0.23201  0.53771  Biso   1.000  Cu
  Cu16     1.0000 0.78828  0.76799  0.03771  Biso   1.000  Cu
  Cu17     1.0000 0.28828  0.73201  0.53771  Biso   1.000  Cu
  Cu18     1.0000 0.71172  0.26799  0.03771  Biso   1.000  Cu
  Cu19     1.0000 0.28828  0.26799  0.46229  Biso   1.000  Cu
  Cu20     1.0000 0.71172  0.73201  0.96229  Biso   1.000  Cu
  Cu21     1.0000 0.78828  0.23201  0.53771  Biso   1.000  Cu
  Cu22     1.0000 0.21172  0.76799  0.03771  Biso   1.000  Cu
  Cu23     1.0000 0.78828  0.76799  0.46229  Biso   1.000  Cu
  Cu24     1.0000 0.21172  0.23201  0.96229  Biso   1.000  Cu
  N1       1.0000 0.60160  0.52976  0.53208  Biso   1.000  N
  N2       1.0000 0.39840  0.47024  0.03208  Biso   1.000  N
  N3       1.0000 0.60160  0.47024  0.46792  Biso   1.000  N
  N4       1.0000 0.39840  0.52976  0.96792  Biso   1.000  N
  N5       1.0000 0.10160  0.02976  0.53208  Biso   1.000  N
  N6       1.0000 0.89840  0.97024  0.03208  Biso   1.000  N
  N7       1.0000 0.10160  0.97024  0.46792  Biso   1.000  N
  N8       1.0000 0.89840  0.02976  0.96792  Biso   1.000  N
  N9       1.0000 0.39840  0.47024  0.46792  Biso   1.000  N
  N10      1.0000 0.60160  0.52976  0.96792  Biso   1.000  N
  N11      1.0000 0.39840  0.52976  0.53208  Biso   1.000  N
  N12      1.0000 0.60160  0.47024  0.03208  Biso   1.000  N
  N13      1.0000 0.89840  0.97024  0.46792  Biso   1.000  N
  N14      1.0000 0.10160  0.02976  0.96792  Biso   1.000  N
  N15      1.0000 0.89840  0.02976  0.53208  Biso   1.000  N
  N16      1.0000 0.10160  0.97024  0.03208  Biso   1.000  N
  N17      1.0000 0.54798  0.51844  0.51906  Biso   1.000  N
  N18      1.0000 0.45202  0.48156  0.01906  Biso   1.000  N
  N19      1.0000 0.54798  0.48156  0.48094  Biso   1.000  N
  N20      1.0000 0.45202  0.51844  0.98094  Biso   1.000  N
  N21      1.0000 0.04798  0.01844  0.51906  Biso   1.000  N
  N22      1.0000 0.95202  0.98156  0.01906  Biso   1.000  N
  N23      1.0000 0.04798  0.98156  0.48094  Biso   1.000  N
  N24      1.0000 0.95202  0.01844  0.98094  Biso   1.000  N
  N25      1.0000 0.45202  0.48156  0.48094  Biso   1.000  N
  N26      1.0000 0.54798  0.51844  0.98094  Biso   1.000  N
  N27      1.0000 0.45202  0.51844  0.51906  Biso   1.000  N
  N28      1.0000 0.54798  0.48156  0.01906  Biso   1.000  N
  N29      1.0000 0.95202  0.98156  0.48094  Biso   1.000  N
  N30      1.0000 0.04798  0.01844  0.98094  Biso   1.000  N
  N31      1.0000 0.95202  0.01844  0.51906  Biso   1.000  N
  N32      1.0000 0.04798  0.98156  0.01906  Biso   1.000  N
  N33      1.0000 0.54642  0.45533  0.75000  Biso   1.000  N
  N34      1.0000 0.45358  0.54467  0.25000  Biso   1.000  N
  N35      1.0000 0.54642  0.54467  0.25000  Biso   1.000  N
  N36      1.0000 0.45358  0.45533  0.75000  Biso   1.000  N
  N37      1.0000 0.04642  0.95533  0.75000  Biso   1.000  N
  N38      1.0000 0.95358  0.04467  0.25000  Biso   1.000  N
  N39      1.0000 0.04642  0.04467  0.25000  Biso   1.000  N
  N40      1.0000 0.95358  0.95533  0.75000  Biso   1.000  N
  N41      1.0000 0.52857  0.49586  0.75000  Biso   1.000  N
  N42      1.0000 0.47143  0.50414  0.25000  Biso   1.000  N
  N43      1.0000 0.52857  0.50414  0.25000  Biso   1.000  N
  N44      1.0000 0.47143  0.49586  0.75000  Biso   1.000  N
  N45      1.0000 0.02857  0.99586  0.75000  Biso   1.000  N
  N46      1.0000 0.97143  0.00414  0.25000  Biso   1.000  N
  N47      1.0000 0.02857  0.00414  0.25000  Biso   1.000  N
  N48      1.0000 0.97143  0.99586  0.75000  Biso   1.000  N
  O1       1.0000 0.94594  0.36442  0.67467  Biso   1.000  O
  O2       1.0000 0.05406  0.63558  0.17467  Biso   1.000  O
  O3       1.0000 0.94594  0.63558  0.32533  Biso   1.000  O
  O4       1.0000 0.05406  0.36442  0.82533  Biso   1.000  O
  O5       1.0000 0.44594  0.86442  0.67467  Biso   1.000  O
  O6       1.0000 0.55406  0.13558  0.17467  Biso   1.000  O
  O7       1.0000 0.44594  0.13558  0.32533  Biso   1.000  O
  O8       1.0000 0.55406  0.86442  0.82533  Biso   1.000  O
  O9       1.0000 0.05406  0.63558  0.32533  Biso   1.000  O
  O10      1.0000 0.94594  0.36442  0.82533  Biso   1.000  O
  O11      1.0000 0.05406  0.36442  0.67467  Biso   1.000  O
  O12      1.0000 0.94594  0.63558  0.17467  Biso   1.000  O
  O13      1.0000 0.55406  0.13558  0.32533  Biso   1.000  O
  O14      1.0000 0.44594  0.86442  0.82533  Biso   1.000  O
  O15      1.0000 0.55406  0.86442  0.67467  Biso   1.000  O
  O16      1.0000 0.44594  0.13558  0.17467  Biso   1.000  O
  O17      1.0000 0.94588  0.43028  0.67508  Biso   1.000  O
  O18      1.0000 0.05412  0.56972  0.17508  Biso   1.000  O
  O19      1.0000 0.94588  0.56972  0.32492  Biso   1.000  O
  O20      1.0000 0.05412  0.43028  0.82492  Biso   1.000  O
  O21      1.0000 0.44588  0.93028  0.67508  Biso   1.000  O
  O22      1.0000 0.55412  0.06972  0.17508  Biso   1.000  O
  O23      1.0000 0.44588  0.06972  0.32492  Biso   1.000  O
  O24      1.0000 0.55412  0.93028  0.82492  Biso   1.000  O
  O25      1.0000 0.05412  0.56972  0.32492  Biso   1.000  O
  O26      1.0000 0.94588  0.43028  0.82492  Biso   1.000  O
  O27      1.0000 0.05412  0.43028  0.67508  Biso   1.000  O
  O28      1.0000 0.94588  0.56972  0.17508  Biso   1.000  O
  O29      1.0000 0.55412  0.06972  0.32492  Biso   1.000  O
  O30      1.0000 0.44588  0.93028  0.82492  Biso   1.000  O
  O31      1.0000 0.55412  0.93028  0.67508  Biso   1.000  O
  O32      1.0000 0.44588  0.06972  0.17508  Biso   1.000  O
  O33      1.0000 0.75181  0.32183  0.48224  Biso   1.000  O
  O34      1.0000 0.24819  0.67817  0.98224  Biso   1.000  O
  O35      1.0000 0.75181  0.67817  0.51776  Biso   1.000  O
  O36      1.0000 0.24819  0.32183  0.01776  Biso   1.000  O
  O37      1.0000 0.25181  0.82183  0.48224  Biso   1.000  O
  O38      1.0000 0.74819  0.17817  0.98224  Biso   1.000  O
  O39      1.0000 0.25181  0.17817  0.51776  Biso   1.000  O
  O40      1.0000 0.74819  0.82183  0.01776  Biso   1.000  O
  O41      1.0000 0.24819  0.67817  0.51776  Biso   1.000  O
  O42      1.0000 0.75181  0.32183  0.01776  Biso   1.000  O
  O43      1.0000 0.24819  0.32183  0.48224  Biso   1.000  O
  O44      1.0000 0.75181  0.67817  0.98224  Biso   1.000  O
  O45      1.0000 0.74819  0.17817  0.51776  Biso   1.000  O
  O46      1.0000 0.25181  0.82183  0.01776  Biso   1.000  O
  O47      1.0000 0.74819  0.82183  0.48224  Biso   1.000  O
  O48      1.0000 0.25181  0.17817  0.98224  Biso   1.000  O
  O49      1.0000 0.81686  0.28617  0.54802  Biso   1.000  O
  O50      1.0000 0.18314  0.71383  0.04802  Biso   1.000  O
  O51      1.0000 0.81686  0.71383  0.45198  Biso   1.000  O
  O52      1.0000 0.18314  0.28617  0.95198  Biso   1.000  O
  O53      1.0000 0.31686  0.78617  0.54802  Biso   1.000  O
  O54      1.0000 0.68314  0.21383  0.04802  Biso   1.000  O
  O55      1.0000 0.31686  0.21383  0.45198  Biso   1.000  O
  O56      1.0000 0.68314  0.78617  0.95198  Biso   1.000  O
  O57      1.0000 0.18314  0.71383  0.45198  Biso   1.000  O
  O58      1.0000 0.81686  0.28617  0.95198  Biso   1.000  O
  O59      1.0000 0.18314  0.28617  0.54802  Biso   1.000  O
  O60      1.0000 0.81686  0.71383  0.04802  Biso   1.000  O
  O61      1.0000 0.68314  0.21383  0.45198  Biso   1.000  O
  O62      1.0000 0.31686  0.78617  0.95198  Biso   1.000  O
  O63      1.0000 0.68314  0.78617  0.54802  Biso   1.000  O
  O64      1.0000 0.31686  0.21383  0.04802  Biso   1.000  O
  C261     1.0000 0.81786  0.35573  0.53850  Biso   1.000  C
  C262     1.0000 0.18214  0.64427  0.03850  Biso   1.000  C
  C263     1.0000 0.81786  0.64427  0.46150  Biso   1.000  C
  C264     1.0000 0.18214  0.35573  0.96150  Biso   1.000  C
  C265     1.0000 0.31786  0.85573  0.53850  Biso   1.000  C
  C266     1.0000 0.68214  0.14427  0.03850  Biso   1.000  C
  C267     1.0000 0.31786  0.14427  0.46150  Biso   1.000  C
  C268     1.0000 0.68214  0.85573  0.96150  Biso   1.000  C
  C269     1.0000 0.18214  0.64427  0.46150  Biso   1.000  C
  C270     1.0000 0.81786  0.35573  0.96150  Biso   1.000  C
  C271     1.0000 0.18214  0.35573  0.53850  Biso   1.000  C
  C272     1.0000 0.81786  0.64427  0.03850  Biso   1.000  C
  C273     1.0000 0.68214  0.14427  0.46150  Biso   1.000  C
  C274     1.0000 0.31786  0.85573  0.96150  Biso   1.000  C
  C275     1.0000 0.68214  0.85573  0.53850  Biso   1.000  C
  C276     1.0000 0.31786  0.14427  0.03850  Biso   1.000  C
  O65      1.0000 0.67111  0.27694  0.55516  Biso   1.000  O
  O66      1.0000 0.32889  0.72306  0.05516  Biso   1.000  O
  O67      1.0000 0.67111  0.72306  0.44484  Biso   1.000  O
  O68      1.0000 0.32889  0.27694  0.94484  Biso   1.000  O
  O69      1.0000 0.17111  0.77694  0.55516  Biso   1.000  O
  O70      1.0000 0.82889  0.22306  0.05516  Biso   1.000  O
  O71      1.0000 0.17111  0.22306  0.44484  Biso   1.000  O
  O72      1.0000 0.82889  0.77694  0.94484  Biso   1.000  O
  O73      1.0000 0.32889  0.72306  0.44484  Biso   1.000  O
  O74      1.0000 0.67111  0.27694  0.94484  Biso   1.000  O
  O75      1.0000 0.32889  0.27694  0.55516  Biso   1.000  O
  O76      1.0000 0.67111  0.72306  0.05516  Biso   1.000  O
  O77      1.0000 0.82889  0.22306  0.44484  Biso   1.000  O
  O78      1.0000 0.17111  0.77694  0.94484  Biso   1.000  O
  O79      1.0000 0.82889  0.77694  0.55516  Biso   1.000  O
  O80      1.0000 0.17111  0.22306  0.05516  Biso   1.000  O
  O81      1.0000 0.73796  0.24536  0.61584  Biso   1.000  O
  O82      1.0000 0.26204  0.75464  0.11584  Biso   1.000  O
  O83      1.0000 0.73796  0.75464  0.38416  Biso   1.000  O
  O84      1.0000 0.26204  0.24536  0.88416  Biso   1.000  O
  O85      1.0000 0.23796  0.74536  0.61584  Biso   1.000  O
  O86      1.0000 0.76204  0.25464  0.11584  Biso   1.000  O
  O87      1.0000 0.23796  0.25464  0.38416  Biso   1.000  O
  O88      1.0000 0.76204  0.74536  0.88416  Biso   1.000  O
  O89      1.0000 0.26204  0.75464  0.38416  Biso   1.000  O
  O90      1.0000 0.73796  0.24536  0.88416  Biso   1.000  O
  O91      1.0000 0.26204  0.24536  0.61584  Biso   1.000  O
  O92      1.0000 0.73796  0.75464  0.11584  Biso   1.000  O
  O93      1.0000 0.76204  0.25464  0.38416  Biso   1.000  O
  O94      1.0000 0.23796  0.74536  0.88416  Biso   1.000  O
  O95      1.0000 0.76204  0.74536  0.61584  Biso   1.000  O
  O96      1.0000 0.23796  0.25464  0.11584  Biso   1.000  O
  O97      1.0000 0.00000  0.29585  0.75000  Biso   1.000  O
  O98      1.0000 0.00000  0.70415  0.25000  Biso   1.000  O
  O99      1.0000 0.50000  0.79585  0.75000  Biso   1.000  O
  O100     1.0000 0.50000  0.20415  0.25000  Biso   1.000  O
  H109     1.0000 0.02526  0.28626  0.78518  Biso   1.000  H
  H110     1.0000 0.97474  0.71374  0.28518  Biso   1.000  H
  H111     1.0000 0.02526  0.71374  0.21482  Biso   1.000  H
  H112     1.0000 0.97474  0.28626  0.71482  Biso   1.000  H
  H113     1.0000 0.52526  0.78626  0.78518  Biso   1.000  H
  H114     1.0000 0.47474  0.21374  0.28518  Biso   1.000  H
  H115     1.0000 0.52526  0.21374  0.21482  Biso   1.000  H
  H116     1.0000 0.47474  0.78626  0.71482  Biso   1.000  H
  H117     1.0000 0.97474  0.71374  0.21482  Biso   1.000  H
  H118     1.0000 0.02526  0.28626  0.71482  Biso   1.000  H
  H119     1.0000 0.97474  0.28626  0.78518  Biso   1.000  H
  H120     1.0000 0.02526  0.71374  0.28518  Biso   1.000  H
  H121     1.0000 0.47474  0.21374  0.21482  Biso   1.000  H
  H122     1.0000 0.52526  0.78626  0.71482  Biso   1.000  H
  H123     1.0000 0.47474  0.78626  0.78518  Biso   1.000  H
  H124     1.0000 0.52526  0.21374  0.28518  Biso   1.000  H
  H125     1.0000 0.00943  0.28626  0.70220  Biso   1.000  H
  H126     1.0000 0.99057  0.71374  0.20220  Biso   1.000  H
  H127     1.0000 0.00943  0.71374  0.29780  Biso   1.000  H
  H128     1.0000 0.99057  0.28626  0.79780  Biso   1.000  H
  H129     1.0000 0.50943  0.78626  0.70220  Biso   1.000  H
  H130     1.0000 0.49057  0.21374  0.20220  Biso   1.000  H
  H131     1.0000 0.50943  0.21374  0.29780  Biso   1.000  H
  H132     1.0000 0.49057  0.78626  0.79780  Biso   1.000  H
  H133     1.0000 0.99057  0.71374  0.29780  Biso   1.000  H
  H134     1.0000 0.00943  0.28626  0.79780  Biso   1.000  H
  H135     1.0000 0.99057  0.28626  0.70220  Biso   1.000  H
  H136     1.0000 0.00943  0.71374  0.20220  Biso   1.000  H
  H137     1.0000 0.49057  0.21374  0.29780  Biso   1.000  H
  H138     1.0000 0.50943  0.78626  0.79780  Biso   1.000  H
  H139     1.0000 0.49057  0.78626  0.70220  Biso   1.000  H
  H140     1.0000 0.50943  0.21374  0.20220  Biso   1.000  H
  O101     1.0000 0.00000  0.50062  0.75000  Biso   1.000  O
  O102     1.0000 0.00000  0.49938  0.25000  Biso   1.000  O
  O103     1.0000 0.50000  0.00062  0.75000  Biso   1.000  O
  O104     1.0000 0.50000  0.99938  0.25000  Biso   1.000  O
  H141     1.0000 0.97468  0.51020  0.71490  Biso   1.000  H
  H142     1.0000 0.02532  0.48980  0.21490  Biso   1.000  H
  H143     1.0000 0.97468  0.48980  0.28510  Biso   1.000  H
  H144     1.0000 0.02532  0.51020  0.78510  Biso   1.000  H
  H145     1.0000 0.47468  0.01020  0.71490  Biso   1.000  H
  H146     1.0000 0.52532  0.98980  0.21490  Biso   1.000  H
  H147     1.0000 0.47468  0.98980  0.28510  Biso   1.000  H
  H148     1.0000 0.52532  0.01020  0.78510  Biso   1.000  H
  H149     1.0000 0.02532  0.48980  0.28510  Biso   1.000  H
  H150     1.0000 0.97468  0.51020  0.78510  Biso   1.000  H
  H151     1.0000 0.02532  0.51020  0.71490  Biso   1.000  H
  H152     1.0000 0.97468  0.48980  0.21490  Biso   1.000  H
  H153     1.0000 0.52532  0.98980  0.28510  Biso   1.000  H
  H154     1.0000 0.47468  0.01020  0.78510  Biso   1.000  H
  H155     1.0000 0.52532  0.01020  0.71490  Biso   1.000  H
  H156     1.0000 0.47468  0.98980  0.21490  Biso   1.000  H
  H157     1.0000 0.99064  0.51020  0.79783  Biso   1.000  H
  H158     1.0000 0.00936  0.48980  0.29783  Biso   1.000  H
  H159     1.0000 0.99064  0.48980  0.20217  Biso   1.000  H
  H160     1.0000 0.00936  0.51020  0.70217  Biso   1.000  H
  H161     1.0000 0.49064  0.01020  0.79783  Biso   1.000  H
  H162     1.0000 0.50936  0.98980  0.29783  Biso   1.000  H
  H163     1.0000 0.49064  0.98980  0.20217  Biso   1.000  H
  H164     1.0000 0.50936  0.01020  0.70217  Biso   1.000  H
  H165     1.0000 0.00936  0.48980  0.20217  Biso   1.000  H
  H166     1.0000 0.99064  0.51020  0.70217  Biso   1.000  H
  H167     1.0000 0.00936  0.51020  0.79783  Biso   1.000  H
  H168     1.0000 0.99064  0.48980  0.29783  Biso   1.000  H
  H169     1.0000 0.50936  0.98980  0.20217  Biso   1.000  H
  H170     1.0000 0.49064  0.01020  0.70217  Biso   1.000  H
  H171     1.0000 0.50936  0.01020  0.79783  Biso   1.000  H
  H172     1.0000 0.49064  0.98980  0.29783  Biso   1.000  H
  O105     1.0000 0.65357  0.30374  0.40549  Biso   1.000  O
  O106     1.0000 0.34643  0.69626  0.90549  Biso   1.000  O
  O107     1.0000 0.65357  0.69626  0.59451  Biso   1.000  O
  O108     1.0000 0.34643  0.30374  0.09451  Biso   1.000  O
  O109     1.0000 0.15357  0.80374  0.40549  Biso   1.000  O
  O110     1.0000 0.84643  0.19626  0.90549  Biso   1.000  O
  O111     1.0000 0.15357  0.19626  0.59451  Biso   1.000  O
  O112     1.0000 0.84643  0.80374  0.09451  Biso   1.000  O
  O113     1.0000 0.34643  0.69626  0.59451  Biso   1.000  O
  O114     1.0000 0.65357  0.30374  0.09451  Biso   1.000  O
  O115     1.0000 0.34643  0.30374  0.40549  Biso   1.000  O
  O116     1.0000 0.65357  0.69626  0.90549  Biso   1.000  O
  O117     1.0000 0.84643  0.19626  0.59451  Biso   1.000  O
  O118     1.0000 0.15357  0.80374  0.09451  Biso   1.000  O
  O119     1.0000 0.84643  0.80374  0.40549  Biso   1.000  O
  O120     1.0000 0.15357  0.19626  0.90549  Biso   1.000  O
  H173     1.0000 0.67347  0.32397  0.39892  Biso   1.000  H
  H174     1.0000 0.32653  0.67603  0.89892  Biso   1.000  H
  H175     1.0000 0.67347  0.67603  0.60108  Biso   1.000  H
  H176     1.0000 0.32653  0.32397  0.10108  Biso   1.000  H
  H177     1.0000 0.17347  0.82397  0.39892  Biso   1.000  H
  H178     1.0000 0.82653  0.17603  0.89892  Biso   1.000  H
  H179     1.0000 0.17347  0.17603  0.60108  Biso   1.000  H
  H180     1.0000 0.82653  0.82397  0.10108  Biso   1.000  H
  H181     1.0000 0.32653  0.67603  0.60108  Biso   1.000  H
  H182     1.0000 0.67347  0.32397  0.10108  Biso   1.000  H
  H183     1.0000 0.32653  0.32397  0.39892  Biso   1.000  H
  H184     1.0000 0.67347  0.67603  0.89892  Biso   1.000  H
  H185     1.0000 0.82653  0.17603  0.60108  Biso   1.000  H
  H186     1.0000 0.17347  0.82397  0.10108  Biso   1.000  H
  H187     1.0000 0.82653  0.82397  0.39892  Biso   1.000  H
  H188     1.0000 0.17347  0.17603  0.89892  Biso   1.000  H
  H189     1.0000 0.63141  0.30464  0.44046  Biso   1.000  H
  H190     1.0000 0.36859  0.69536  0.94046  Biso   1.000  H
  H191     1.0000 0.63141  0.69536  0.55954  Biso   1.000  H
  H192     1.0000 0.36859  0.30464  0.05954  Biso   1.000  H
  H193     1.0000 0.13141  0.80464  0.44046  Biso   1.000  H
  H194     1.0000 0.86859  0.19536  0.94046  Biso   1.000  H
  H195     1.0000 0.13141  0.19536  0.55954  Biso   1.000  H
  H196     1.0000 0.86859  0.80464  0.05954  Biso   1.000  H
  H197     1.0000 0.36859  0.69536  0.55954  Biso   1.000  H
  H198     1.0000 0.63141  0.30464  0.05954  Biso   1.000  H
  H199     1.0000 0.36859  0.30464  0.44046  Biso   1.000  H
  H200     1.0000 0.63141  0.69536  0.94046  Biso   1.000  H
  H201     1.0000 0.86859  0.19536  0.55954  Biso   1.000  H
  H202     1.0000 0.13141  0.80464  0.05954  Biso   1.000  H
  H203     1.0000 0.86859  0.80464  0.44046  Biso   1.000  H
  H204     1.0000 0.13141  0.19536  0.94046  Biso   1.000  H
  H205     1.0000 0.52037  0.53175  0.53212  Biso   1.000  H
  H206     1.0000 0.47963  0.46825  0.03212  Biso   1.000  H
  H207     1.0000 0.52037  0.46825  0.46788  Biso   1.000  H
  H208     1.0000 0.47963  0.53175  0.96788  Biso   1.000  H
  H209     1.0000 0.02037  0.03175  0.53212  Biso   1.000  H
  H210     1.0000 0.97963  0.96825  0.03212  Biso   1.000  H
  H211     1.0000 0.02037  0.96825  0.46788  Biso   1.000  H
  H212     1.0000 0.97963  0.03175  0.96788  Biso   1.000  H
  H213     1.0000 0.47963  0.46825  0.46788  Biso   1.000  H
  H214     1.0000 0.52037  0.53175  0.96788  Biso   1.000  H
  H215     1.0000 0.47963  0.53175  0.53212  Biso   1.000  H
  H216     1.0000 0.52037  0.46825  0.03212  Biso   1.000  H
  H217     1.0000 0.97963  0.96825  0.46788  Biso   1.000  H
  H218     1.0000 0.02037  0.03175  0.96788  Biso   1.000  H
  H219     1.0000 0.97963  0.03175  0.53212  Biso   1.000  H
  H220     1.0000 0.02037  0.96825  0.03212  Biso   1.000  H
  H221     1.0000 0.57872  0.44711  0.75000  Biso   1.000  H
  H222     1.0000 0.42128  0.55289  0.25000  Biso   1.000  H
  H223     1.0000 0.57872  0.55289  0.25000  Biso   1.000  H
  H224     1.0000 0.42128  0.44711  0.75000  Biso   1.000  H
  H225     1.0000 0.07872  0.94711  0.75000  Biso   1.000  H
  H226     1.0000 0.92128  0.05289  0.25000  Biso   1.000  H
  H227     1.0000 0.07872  0.05289  0.25000  Biso   1.000  H
  H228     1.0000 0.92128  0.94711  0.75000  Biso   1.000  H
