data_image0
_cell_length_a       18.531
_cell_length_b       18.531
_cell_length_c       37.266
_cell_angle_alpha    90
_cell_angle_beta     90
_cell_angle_gamma    120

_symmetry_space_group_name_H-M    "P 1"
_symmetry_int_tables_number       1

loop_
  _symmetry_equiv_pos_as_xyz
  'x, y, z'

loop_
  _atom_site_label
  _atom_site_occupancy
  _atom_site_fract_x
  _atom_site_fract_y
  _atom_site_fract_z
  _atom_site_thermal_displace_type
  _atom_site_B_iso_or_equiv
  _atom_site_type_symbol
  Mo1      1.0000 0.35240  0.78160  0.45190  Biso   1.000  Mo
  Mo2      1.0000 0.21840  0.57080  0.45190  Biso   1.000  Mo
  Mo3      1.0000 0.42920  0.64760  0.45190  Biso   1.000  Mo
  Mo4      1.0000 0.01907  0.11493  0.78523  Biso   1.000  Mo
  Mo5      1.0000 0.88507  0.90413  0.78523  Biso   1.000  Mo
  Mo6      1.0000 0.09587  0.98093  0.78523  Biso   1.000  Mo
  Mo7      1.0000 0.68573  0.44827  0.11857  Biso   1.000  Mo
  Mo8      1.0000 0.55173  0.23747  0.11857  Biso   1.000  Mo
  Mo9      1.0000 0.76253  0.31427  0.11857  Biso   1.000  Mo
  Mo10     1.0000 0.64760  0.21840  0.54810  Biso   1.000  Mo
  Mo11     1.0000 0.78160  0.42920  0.54810  Biso   1.000  Mo
  Mo12     1.0000 0.57080  0.35240  0.54810  Biso   1.000  Mo
  Mo13     1.0000 0.31427  0.55173  0.88143  Biso   1.000  Mo
  Mo14     1.0000 0.44827  0.76253  0.88143  Biso   1.000  Mo
  Mo15     1.0000 0.23747  0.68573  0.88143  Biso   1.000  Mo
  Mo16     1.0000 0.98093  0.88507  0.21477  Biso   1.000  Mo
  Mo17     1.0000 0.11493  0.09587  0.21477  Biso   1.000  Mo
  Mo18     1.0000 0.90413  0.01907  0.21477  Biso   1.000  Mo
  Mo19     1.0000 0.54960  0.73170  0.36710  Biso   1.000  Mo
  Mo20     1.0000 0.26830  0.81790  0.36710  Biso   1.000  Mo
  Mo21     1.0000 0.18210  0.45040  0.36710  Biso   1.000  Mo
  Mo22     1.0000 0.21627  0.06503  0.70043  Biso   1.000  Mo
  Mo23     1.0000 0.93497  0.15123  0.70043  Biso   1.000  Mo
  Mo24     1.0000 0.84877  0.78373  0.70043  Biso   1.000  Mo
  Mo25     1.0000 0.88293  0.39837  0.03377  Biso   1.000  Mo
  Mo26     1.0000 0.60163  0.48457  0.03377  Biso   1.000  Mo
  Mo27     1.0000 0.51543  0.11707  0.03377  Biso   1.000  Mo
  Mo28     1.0000 0.45040  0.26830  0.63290  Biso   1.000  Mo
  Mo29     1.0000 0.73170  0.18210  0.63290  Biso   1.000  Mo
  Mo30     1.0000 0.81790  0.54960  0.63290  Biso   1.000  Mo
  Mo31     1.0000 0.11707  0.60163  0.96623  Biso   1.000  Mo
  Mo32     1.0000 0.39837  0.51543  0.96623  Biso   1.000  Mo
  Mo33     1.0000 0.48457  0.88293  0.96623  Biso   1.000  Mo
  Mo34     1.0000 0.78373  0.93497  0.29957  Biso   1.000  Mo
  Mo35     1.0000 0.06503  0.84877  0.29957  Biso   1.000  Mo
  Mo36     1.0000 0.15123  0.21627  0.29957  Biso   1.000  Mo
  Mo37     1.0000 0.49190  0.87930  0.37450  Biso   1.000  Mo
  Mo38     1.0000 0.12070  0.61260  0.37450  Biso   1.000  Mo
  Mo39     1.0000 0.38740  0.50810  0.37450  Biso   1.000  Mo
  Mo40     1.0000 0.15857  0.21263  0.70783  Biso   1.000  Mo
  Mo41     1.0000 0.78737  0.94593  0.70783  Biso   1.000  Mo
  Mo42     1.0000 0.05407  0.84143  0.70783  Biso   1.000  Mo
  Mo43     1.0000 0.82523  0.54597  0.04117  Biso   1.000  Mo
  Mo44     1.0000 0.45403  0.27927  0.04117  Biso   1.000  Mo
  Mo45     1.0000 0.72073  0.17477  0.04117  Biso   1.000  Mo
  Mo46     1.0000 0.50810  0.12070  0.62550  Biso   1.000  Mo
  Mo47     1.0000 0.87930  0.38740  0.62550  Biso   1.000  Mo
  Mo48     1.0000 0.61260  0.49190  0.62550  Biso   1.000  Mo
  Mo49     1.0000 0.17477  0.45403  0.95883  Biso   1.000  Mo
  Mo50     1.0000 0.54597  0.72073  0.95883  Biso   1.000  Mo
  Mo51     1.0000 0.27927  0.82523  0.95883  Biso   1.000  Mo
  Mo52     1.0000 0.84143  0.78737  0.29217  Biso   1.000  Mo
  Mo53     1.0000 0.21263  0.05407  0.29217  Biso   1.000  Mo
  Mo54     1.0000 0.94593  0.15857  0.29217  Biso   1.000  Mo
  Mo55     1.0000 0.45780  0.77080  0.29640  Biso   1.000  Mo
  Mo56     1.0000 0.22920  0.68700  0.29640  Biso   1.000  Mo
  Mo57     1.0000 0.31300  0.54220  0.29640  Biso   1.000  Mo
  Mo58     1.0000 0.12447  0.10413  0.62973  Biso   1.000  Mo
  Mo59     1.0000 0.89587  0.02033  0.62973  Biso   1.000  Mo
  Mo60     1.0000 0.97967  0.87553  0.62973  Biso   1.000  Mo
  Mo61     1.0000 0.79113  0.43747  0.96307  Biso   1.000  Mo
  Mo62     1.0000 0.56253  0.35367  0.96307  Biso   1.000  Mo
  Mo63     1.0000 0.64633  0.20887  0.96307  Biso   1.000  Mo
  Mo64     1.0000 0.54220  0.22920  0.70360  Biso   1.000  Mo
  Mo65     1.0000 0.77080  0.31300  0.70360  Biso   1.000  Mo
  Mo66     1.0000 0.68700  0.45780  0.70360  Biso   1.000  Mo
  Mo67     1.0000 0.20887  0.56253  0.03693  Biso   1.000  Mo
  Mo68     1.0000 0.43747  0.64633  0.03693  Biso   1.000  Mo
  Mo69     1.0000 0.35367  0.79113  0.03693  Biso   1.000  Mo
  Mo70     1.0000 0.87553  0.89587  0.37027  Biso   1.000  Mo
  Mo71     1.0000 0.10413  0.97967  0.37027  Biso   1.000  Mo
  Mo72     1.0000 0.02033  0.12447  0.37027  Biso   1.000  Mo
  P1       1.0000 0.33330  0.66670  0.37280  Biso   1.000  P
  P2       1.0000 0.99997  0.00003  0.70613  Biso   1.000  P
  P3       1.0000 0.66663  0.33337  0.03947  Biso   1.000  P
  P4       1.0000 0.66670  0.33330  0.62720  Biso   1.000  P
  P5       1.0000 0.33337  0.66663  0.96053  Biso   1.000  P
  P6       1.0000 0.00003  0.99997  0.29387  Biso   1.000  P
  O1       1.0000 0.33330  0.66670  0.41400  Biso   1.000  O
  O2       1.0000 0.99997  0.00003  0.74733  Biso   1.000  O
  O3       1.0000 0.66663  0.33337  0.08067  Biso   1.000  O
  O4       1.0000 0.66670  0.33330  0.58600  Biso   1.000  O
  O5       1.0000 0.33337  0.66663  0.91933  Biso   1.000  O
  O6       1.0000 0.00003  0.99997  0.25267  Biso   1.000  O
  O7       1.0000 0.29400  0.80100  0.41800  Biso   1.000  O
  O8       1.0000 0.19900  0.49300  0.41800  Biso   1.000  O
  O9       1.0000 0.50700  0.70600  0.41800  Biso   1.000  O
  O10      1.0000 0.96067  0.13433  0.75133  Biso   1.000  O
  O11      1.0000 0.86567  0.82633  0.75133  Biso   1.000  O
  O12      1.0000 0.17367  0.03933  0.75133  Biso   1.000  O
  O13      1.0000 0.62733  0.46767  0.08467  Biso   1.000  O
  O14      1.0000 0.53233  0.15967  0.08467  Biso   1.000  O
  O15      1.0000 0.84033  0.37267  0.08467  Biso   1.000  O
  O16      1.0000 0.70600  0.19900  0.58200  Biso   1.000  O
  O17      1.0000 0.80100  0.50700  0.58200  Biso   1.000  O
  O18      1.0000 0.49300  0.29400  0.58200  Biso   1.000  O
  O19      1.0000 0.37267  0.53233  0.91533  Biso   1.000  O
  O20      1.0000 0.46767  0.84033  0.91533  Biso   1.000  O
  O21      1.0000 0.15967  0.62733  0.91533  Biso   1.000  O
  O22      1.0000 0.03933  0.86567  0.24867  Biso   1.000  O
  O23      1.0000 0.13433  0.17367  0.24867  Biso   1.000  O
  O24      1.0000 0.82633  0.96067  0.24867  Biso   1.000  O
  O25      1.0000 0.42000  0.73200  0.35900  Biso   1.000  O
  O26      1.0000 0.26800  0.68800  0.35900  Biso   1.000  O
  O27      1.0000 0.31200  0.58000  0.35900  Biso   1.000  O
  O28      1.0000 0.08667  0.06533  0.69233  Biso   1.000  O
  O29      1.0000 0.93467  0.02133  0.69233  Biso   1.000  O
  O30      1.0000 0.97867  0.91333  0.69233  Biso   1.000  O
  O31      1.0000 0.75333  0.39867  0.02567  Biso   1.000  O
  O32      1.0000 0.60133  0.35467  0.02567  Biso   1.000  O
  O33      1.0000 0.64533  0.24667  0.02567  Biso   1.000  O
  O34      1.0000 0.58000  0.26800  0.64100  Biso   1.000  O
  O35      1.0000 0.73200  0.31200  0.64100  Biso   1.000  O
  O36      1.0000 0.68800  0.42000  0.64100  Biso   1.000  O
  O37      1.0000 0.24667  0.60133  0.97433  Biso   1.000  O
  O38      1.0000 0.39867  0.64533  0.97433  Biso   1.000  O
  O39      1.0000 0.35467  0.75333  0.97433  Biso   1.000  O
  O40      1.0000 0.91333  0.93467  0.30767  Biso   1.000  O
  O41      1.0000 0.06533  0.97867  0.30767  Biso   1.000  O
  O42      1.0000 0.02133  0.08667  0.30767  Biso   1.000  O
  O43      1.0000 0.54600  0.75300  0.32000  Biso   1.000  O
  O44      1.0000 0.24700  0.79300  0.32000  Biso   1.000  O
  O45      1.0000 0.20700  0.45400  0.32000  Biso   1.000  O
  O46      1.0000 0.21267  0.08633  0.65333  Biso   1.000  O
  O47      1.0000 0.91367  0.12633  0.65333  Biso   1.000  O
  O48      1.0000 0.87367  0.78733  0.65333  Biso   1.000  O
  O49      1.0000 0.87933  0.41967  0.98667  Biso   1.000  O
  O50      1.0000 0.58033  0.45967  0.98667  Biso   1.000  O
  O51      1.0000 0.54033  0.12067  0.98667  Biso   1.000  O
  O52      1.0000 0.45400  0.24700  0.68000  Biso   1.000  O
  O53      1.0000 0.75300  0.20700  0.68000  Biso   1.000  O
  O54      1.0000 0.79300  0.54600  0.68000  Biso   1.000  O
  O55      1.0000 0.12067  0.58033  0.01333  Biso   1.000  O
  O56      1.0000 0.41967  0.54033  0.01333  Biso   1.000  O
  O57      1.0000 0.45967  0.87933  0.01333  Biso   1.000  O
  O58      1.0000 0.78733  0.91367  0.34667  Biso   1.000  O
  O59      1.0000 0.08633  0.87367  0.34667  Biso   1.000  O
  O60      1.0000 0.12633  0.21267  0.34667  Biso   1.000  O
  O61      1.0000 0.50200  0.86900  0.32200  Biso   1.000  O
  O62      1.0000 0.13100  0.63300  0.32200  Biso   1.000  O
  O63      1.0000 0.36700  0.49800  0.32200  Biso   1.000  O
  O64      1.0000 0.16867  0.20233  0.65533  Biso   1.000  O
  O65      1.0000 0.79767  0.96633  0.65533  Biso   1.000  O
  O66      1.0000 0.03367  0.83133  0.65533  Biso   1.000  O
  O67      1.0000 0.83533  0.53567  0.98867  Biso   1.000  O
  O68      1.0000 0.46433  0.29967  0.98867  Biso   1.000  O
  O69      1.0000 0.70033  0.16467  0.98867  Biso   1.000  O
  O70      1.0000 0.49800  0.13100  0.67800  Biso   1.000  O
  O71      1.0000 0.86900  0.36700  0.67800  Biso   1.000  O
  O72      1.0000 0.63300  0.50200  0.67800  Biso   1.000  O
  O73      1.0000 0.16467  0.46433  0.01133  Biso   1.000  O
  O74      1.0000 0.53567  0.70033  0.01133  Biso   1.000  O
  O75      1.0000 0.29967  0.83533  0.01133  Biso   1.000  O
  O76      1.0000 0.83133  0.79767  0.34467  Biso   1.000  O
  O77      1.0000 0.20233  0.03367  0.34467  Biso   1.000  O
  O78      1.0000 0.96633  0.16867  0.34467  Biso   1.000  O
  O79      1.0000 0.57100  0.84300  0.37900  Biso   1.000  O
  O80      1.0000 0.15700  0.72800  0.37900  Biso   1.000  O
  O81      1.0000 0.27200  0.42900  0.37900  Biso   1.000  O
  O82      1.0000 0.23767  0.17633  0.71233  Biso   1.000  O
  O83      1.0000 0.82367  0.06133  0.71233  Biso   1.000  O
  O84      1.0000 0.93867  0.76233  0.71233  Biso   1.000  O
  O85      1.0000 0.90433  0.50967  0.04567  Biso   1.000  O
  O86      1.0000 0.49033  0.39467  0.04567  Biso   1.000  O
  O87      1.0000 0.60533  0.09567  0.04567  Biso   1.000  O
  O88      1.0000 0.42900  0.15700  0.62100  Biso   1.000  O
  O89      1.0000 0.84300  0.27200  0.62100  Biso   1.000  O
  O90      1.0000 0.72800  0.57100  0.62100  Biso   1.000  O
  O91      1.0000 0.09567  0.49033  0.95433  Biso   1.000  O
  O92      1.0000 0.50967  0.60533  0.95433  Biso   1.000  O
  O93      1.0000 0.39467  0.90433  0.95433  Biso   1.000  O
  O94      1.0000 0.76233  0.82367  0.28767  Biso   1.000  O
  O95      1.0000 0.17633  0.93867  0.28767  Biso   1.000  O
  O96      1.0000 0.06133  0.23767  0.28767  Biso   1.000  O
  O97      1.0000 0.38500  0.86900  0.36300  Biso   1.000  O
  O98      1.0000 0.13100  0.51600  0.36300  Biso   1.000  O
  O99      1.0000 0.48400  0.61500  0.36300  Biso   1.000  O
  O100     1.0000 0.05167  0.20233  0.69633  Biso   1.000  O
  O101     1.0000 0.79767  0.84933  0.69633  Biso   1.000  O
  O102     1.0000 0.15067  0.94833  0.69633  Biso   1.000  O
  O103     1.0000 0.71833  0.53567  0.02967  Biso   1.000  O
  O104     1.0000 0.46433  0.18267  0.02967  Biso   1.000  O
  O105     1.0000 0.81733  0.28167  0.02967  Biso   1.000  O
  O106     1.0000 0.61500  0.13100  0.63700  Biso   1.000  O
  O107     1.0000 0.86900  0.48400  0.63700  Biso   1.000  O
  O108     1.0000 0.51600  0.38500  0.63700  Biso   1.000  O
  O109     1.0000 0.28167  0.46433  0.97033  Biso   1.000  O
  O110     1.0000 0.53567  0.81733  0.97033  Biso   1.000  O
  O111     1.0000 0.18267  0.71833  0.97033  Biso   1.000  O
  O112     1.0000 0.94833  0.79767  0.30367  Biso   1.000  O
  O113     1.0000 0.20233  0.15067  0.30367  Biso   1.000  O
  O114     1.0000 0.84933  0.05167  0.30367  Biso   1.000  O
  O115     1.0000 0.26400  0.68700  0.47100  Biso   1.000  O
  O116     1.0000 0.31300  0.57700  0.47100  Biso   1.000  O
  O117     1.0000 0.42300  0.73600  0.47100  Biso   1.000  O
  O118     1.0000 0.93067  0.02033  0.80433  Biso   1.000  O
  O119     1.0000 0.97967  0.91033  0.80433  Biso   1.000  O
  O120     1.0000 0.08967  0.06933  0.80433  Biso   1.000  O
  O121     1.0000 0.59733  0.35367  0.13767  Biso   1.000  O
  O122     1.0000 0.64633  0.24367  0.13767  Biso   1.000  O
  O123     1.0000 0.75633  0.40267  0.13767  Biso   1.000  O
  O124     1.0000 0.73600  0.31300  0.52900  Biso   1.000  O
  O125     1.0000 0.68700  0.42300  0.52900  Biso   1.000  O
  O126     1.0000 0.57700  0.26400  0.52900  Biso   1.000  O
  O127     1.0000 0.40267  0.64633  0.86233  Biso   1.000  O
  O128     1.0000 0.35367  0.75633  0.86233  Biso   1.000  O
  O129     1.0000 0.24367  0.59733  0.86233  Biso   1.000  O
  O130     1.0000 0.06933  0.97967  0.19567  Biso   1.000  O
  O131     1.0000 0.02033  0.08967  0.19567  Biso   1.000  O
  O132     1.0000 0.91033  0.93067  0.19567  Biso   1.000  O
  O133     1.0000 0.45000  0.84300  0.42000  Biso   1.000  O
  O134     1.0000 0.15700  0.60700  0.42000  Biso   1.000  O
  O135     1.0000 0.39300  0.55000  0.42000  Biso   1.000  O
  O136     1.0000 0.11667  0.17633  0.75333  Biso   1.000  O
  O137     1.0000 0.82367  0.94033  0.75333  Biso   1.000  O
  O138     1.0000 0.05967  0.88333  0.75333  Biso   1.000  O
  O139     1.0000 0.78333  0.50967  0.08667  Biso   1.000  O
  O140     1.0000 0.49033  0.27367  0.08667  Biso   1.000  O
  O141     1.0000 0.72633  0.21667  0.08667  Biso   1.000  O
  O142     1.0000 0.55000  0.15700  0.58000  Biso   1.000  O
  O143     1.0000 0.84300  0.39300  0.58000  Biso   1.000  O
  O144     1.0000 0.60700  0.45000  0.58000  Biso   1.000  O
  O145     1.0000 0.21667  0.49033  0.91333  Biso   1.000  O
  O146     1.0000 0.50967  0.72633  0.91333  Biso   1.000  O
  O147     1.0000 0.27367  0.78333  0.91333  Biso   1.000  O
  O148     1.0000 0.88333  0.82367  0.24667  Biso   1.000  O
  O149     1.0000 0.17633  0.05967  0.24667  Biso   1.000  O
  O150     1.0000 0.94033  0.11667  0.24667  Biso   1.000  O
  O151     1.0000 0.35300  0.75500  0.29100  Biso   1.000  O
  O152     1.0000 0.24500  0.59800  0.29100  Biso   1.000  O
  O153     1.0000 0.40200  0.64700  0.29100  Biso   1.000  O
  O154     1.0000 0.01967  0.08833  0.62433  Biso   1.000  O
  O155     1.0000 0.91167  0.93133  0.62433  Biso   1.000  O
  O156     1.0000 0.06867  0.98033  0.62433  Biso   1.000  O
  O157     1.0000 0.68633  0.42167  0.95767  Biso   1.000  O
  O158     1.0000 0.57833  0.26467  0.95767  Biso   1.000  O
  O159     1.0000 0.73533  0.31367  0.95767  Biso   1.000  O
  O160     1.0000 0.64700  0.24500  0.70900  Biso   1.000  O
  O161     1.0000 0.75500  0.40200  0.70900  Biso   1.000  O
  O162     1.0000 0.59800  0.35300  0.70900  Biso   1.000  O
  O163     1.0000 0.31367  0.57833  0.04233  Biso   1.000  O
  O164     1.0000 0.42167  0.73533  0.04233  Biso   1.000  O
  O165     1.0000 0.26467  0.68633  0.04233  Biso   1.000  O
  O166     1.0000 0.98033  0.91167  0.37567  Biso   1.000  O
  O167     1.0000 0.08833  0.06867  0.37567  Biso   1.000  O
  O168     1.0000 0.93133  0.01967  0.37567  Biso   1.000  O
  O169     1.0000 0.50100  0.80200  0.25600  Biso   1.000  O
  O170     1.0000 0.19800  0.69900  0.25600  Biso   1.000  O
  O171     1.0000 0.30100  0.49900  0.25600  Biso   1.000  O
  O172     1.0000 0.16767  0.13533  0.58933  Biso   1.000  O
  O173     1.0000 0.86467  0.03233  0.58933  Biso   1.000  O
  O174     1.0000 0.96767  0.83233  0.58933  Biso   1.000  O
  O175     1.0000 0.83433  0.46867  0.92267  Biso   1.000  O
  O176     1.0000 0.53133  0.36567  0.92267  Biso   1.000  O
  O177     1.0000 0.63433  0.16567  0.92267  Biso   1.000  O
  O178     1.0000 0.49900  0.19800  0.74400  Biso   1.000  O
  O179     1.0000 0.80200  0.30100  0.74400  Biso   1.000  O
  O180     1.0000 0.69900  0.50100  0.74400  Biso   1.000  O
  O181     1.0000 0.16567  0.53133  0.07733  Biso   1.000  O
  O182     1.0000 0.46867  0.63433  0.07733  Biso   1.000  O
  O183     1.0000 0.36567  0.83433  0.07733  Biso   1.000  O
  O184     1.0000 0.83233  0.86467  0.41067  Biso   1.000  O
  O185     1.0000 0.13533  0.96767  0.41067  Biso   1.000  O
  O186     1.0000 0.03233  0.16767  0.41067  Biso   1.000  O
  O187     1.0000 0.64500  0.74400  0.37300  Biso   1.000  O
  O188     1.0000 0.25600  0.90100  0.37300  Biso   1.000  O
  O189     1.0000 0.09900  0.35500  0.37300  Biso   1.000  O
  O190     1.0000 0.31167  0.07733  0.70633  Biso   1.000  O
  O191     1.0000 0.92267  0.23433  0.70633  Biso   1.000  O
  O192     1.0000 0.76567  0.68833  0.70633  Biso   1.000  O
  O193     1.0000 0.97833  0.41067  0.03967  Biso   1.000  O
  O194     1.0000 0.58933  0.56767  0.03967  Biso   1.000  O
  O195     1.0000 0.43233  0.02167  0.03967  Biso   1.000  O
  O196     1.0000 0.35500  0.25600  0.62700  Biso   1.000  O
  O197     1.0000 0.74400  0.09900  0.62700  Biso   1.000  O
  O198     1.0000 0.90100  0.64500  0.62700  Biso   1.000  O
  O199     1.0000 0.02167  0.58933  0.96033  Biso   1.000  O
  O200     1.0000 0.41067  0.43233  0.96033  Biso   1.000  O
  O201     1.0000 0.56767  0.97833  0.96033  Biso   1.000  O
  O202     1.0000 0.68833  0.92267  0.29367  Biso   1.000  O
  O203     1.0000 0.07733  0.76567  0.29367  Biso   1.000  O
  O204     1.0000 0.23433  0.31167  0.29367  Biso   1.000  O
  O205     1.0000 0.55200  0.98300  0.37900  Biso   1.000  O
  O206     1.0000 0.01700  0.56900  0.37900  Biso   1.000  O
  O207     1.0000 0.43100  0.44800  0.37900  Biso   1.000  O
  O208     1.0000 0.21867  0.31633  0.71233  Biso   1.000  O
  O209     1.0000 0.68367  0.90233  0.71233  Biso   1.000  O
  O210     1.0000 0.09767  0.78133  0.71233  Biso   1.000  O
  O211     1.0000 0.88533  0.64967  0.04567  Biso   1.000  O
  O212     1.0000 0.35033  0.23567  0.04567  Biso   1.000  O
  O213     1.0000 0.76433  0.11467  0.04567  Biso   1.000  O
  O214     1.0000 0.44800  0.01700  0.62100  Biso   1.000  O
  O215     1.0000 0.98300  0.43100  0.62100  Biso   1.000  O
  O216     1.0000 0.56900  0.55200  0.62100  Biso   1.000  O
  O217     1.0000 0.11467  0.35033  0.95433  Biso   1.000  O
  O218     1.0000 0.64967  0.76433  0.95433  Biso   1.000  O
  O219     1.0000 0.23567  0.88533  0.95433  Biso   1.000  O
  O220     1.0000 0.78133  0.68367  0.28767  Biso   1.000  O
  O221     1.0000 0.31633  0.09767  0.28767  Biso   1.000  O
  O222     1.0000 0.90233  0.21867  0.28767  Biso   1.000  O
  O223     1.0000 0.37900  0.86200  0.48400  Biso   1.000  O
  O224     1.0000 0.13800  0.51700  0.48400  Biso   1.000  O
  O225     1.0000 0.48300  0.62100  0.48400  Biso   1.000  O
  O226     1.0000 0.04567  0.19533  0.81733  Biso   1.000  O
  O227     1.0000 0.80467  0.85033  0.81733  Biso   1.000  O
  O228     1.0000 0.14967  0.95433  0.81733  Biso   1.000  O
  O229     1.0000 0.71233  0.52867  0.15067  Biso   1.000  O
  O230     1.0000 0.47133  0.18367  0.15067  Biso   1.000  O
  O231     1.0000 0.81633  0.28767  0.15067  Biso   1.000  O
  O232     1.0000 0.62100  0.13800  0.51600  Biso   1.000  O
  O233     1.0000 0.86200  0.48300  0.51600  Biso   1.000  O
  O234     1.0000 0.51700  0.37900  0.51600  Biso   1.000  O
  O235     1.0000 0.28767  0.47133  0.84933  Biso   1.000  O
  O236     1.0000 0.52867  0.81633  0.84933  Biso   1.000  O
  O237     1.0000 0.18367  0.71233  0.84933  Biso   1.000  O
  O238     1.0000 0.95433  0.80467  0.18267  Biso   1.000  O
  O239     1.0000 0.19533  0.14967  0.18267  Biso   1.000  O
  O240     1.0000 0.85033  0.04567  0.18267  Biso   1.000  O
  Cu1      1.0000 0.50000  0.00000  0.50000  Biso   1.000  Cu
  Cu2      1.0000 0.00000  0.50000  0.50000  Biso   1.000  Cu
  Cu3      1.0000 0.50000  0.50000  0.50000  Biso   1.000  Cu
  Cu4      1.0000 0.16667  0.33333  0.83333  Biso   1.000  Cu
  Cu5      1.0000 0.66667  0.83333  0.83333  Biso   1.000  Cu
  Cu6      1.0000 0.16667  0.83333  0.83333  Biso   1.000  Cu
  Cu7      1.0000 0.83333  0.66667  0.16667  Biso   1.000  Cu
  Cu8      1.0000 0.33333  0.16667  0.16667  Biso   1.000  Cu
  Cu9      1.0000 0.83333  0.16667  0.16667  Biso   1.000  Cu
  C1       1.0000 0.85800  0.22300  0.39000  Biso   1.000  C
  C2       1.0000 0.77700  0.63500  0.39000  Biso   1.000  C
  C3       1.0000 0.36500  0.14200  0.39000  Biso   1.000  C
  C4       1.0000 0.52467  0.55633  0.72333  Biso   1.000  C
  C5       1.0000 0.44367  0.96833  0.72333  Biso   1.000  C
  C6       1.0000 0.03167  0.47533  0.72333  Biso   1.000  C
  C7       1.0000 0.19133  0.88967  0.05667  Biso   1.000  C
  C8       1.0000 0.11033  0.30167  0.05667  Biso   1.000  C
  C9       1.0000 0.69833  0.80867  0.05667  Biso   1.000  C
  C10      1.0000 0.14200  0.77700  0.61000  Biso   1.000  C
  C11      1.0000 0.22300  0.36500  0.61000  Biso   1.000  C
  C12      1.0000 0.63500  0.85800  0.61000  Biso   1.000  C
  C13      1.0000 0.80867  0.11033  0.94333  Biso   1.000  C
  C14      1.0000 0.88967  0.69833  0.94333  Biso   1.000  C
  C15      1.0000 0.30167  0.19133  0.94333  Biso   1.000  C
  C16      1.0000 0.47533  0.44367  0.27667  Biso   1.000  C
  C17      1.0000 0.55633  0.03167  0.27667  Biso   1.000  C
  C18      1.0000 0.96833  0.52467  0.27667  Biso   1.000  C
  C19      1.0000 0.79900  0.16000  0.36900  Biso   1.000  C
  C20      1.0000 0.84000  0.63900  0.36900  Biso   1.000  C
  C21      1.0000 0.36100  0.20100  0.36900  Biso   1.000  C
  C22      1.0000 0.46567  0.49333  0.70233  Biso   1.000  C
  C23      1.0000 0.50667  0.97233  0.70233  Biso   1.000  C
  C24      1.0000 0.02767  0.53433  0.70233  Biso   1.000  C
  C25      1.0000 0.13233  0.82667  0.03567  Biso   1.000  C
  C26      1.0000 0.17333  0.30567  0.03567  Biso   1.000  C
  C27      1.0000 0.69433  0.86767  0.03567  Biso   1.000  C
  C28      1.0000 0.20100  0.84000  0.63100  Biso   1.000  C
  C29      1.0000 0.16000  0.36100  0.63100  Biso   1.000  C
  C30      1.0000 0.63900  0.79900  0.63100  Biso   1.000  C
  C31      1.0000 0.86767  0.17333  0.96433  Biso   1.000  C
  C32      1.0000 0.82667  0.69433  0.96433  Biso   1.000  C
  C33      1.0000 0.30567  0.13233  0.96433  Biso   1.000  C
  C34      1.0000 0.53433  0.50667  0.29767  Biso   1.000  C
  C35      1.0000 0.49333  0.02767  0.29767  Biso   1.000  C
  C36      1.0000 0.97233  0.46567  0.29767  Biso   1.000  C
  H1       1.0000 0.78400  0.17340  0.34740  Biso   1.000  H
  H2       1.0000 0.82660  0.61060  0.34740  Biso   1.000  H
  H3       1.0000 0.38940  0.21600  0.34740  Biso   1.000  H
  H4       1.0000 0.45067  0.50673  0.68073  Biso   1.000  H
  H5       1.0000 0.49327  0.94393  0.68073  Biso   1.000  H
  H6       1.0000 0.05607  0.54933  0.68073  Biso   1.000  H
  H7       1.0000 0.11733  0.84007  0.01407  Biso   1.000  H
  H8       1.0000 0.15993  0.27727  0.01407  Biso   1.000  H
  H9       1.0000 0.72273  0.88267  0.01407  Biso   1.000  H
  H10      1.0000 0.21600  0.82660  0.65260  Biso   1.000  H
  H11      1.0000 0.17340  0.38940  0.65260  Biso   1.000  H
  H12      1.0000 0.61060  0.78400  0.65260  Biso   1.000  H
  H13      1.0000 0.88267  0.15993  0.98593  Biso   1.000  H
  H14      1.0000 0.84007  0.72273  0.98593  Biso   1.000  H
  H15      1.0000 0.27727  0.11733  0.98593  Biso   1.000  H
  H16      1.0000 0.54933  0.49327  0.31927  Biso   1.000  H
  H17      1.0000 0.50673  0.05607  0.31927  Biso   1.000  H
  H18      1.0000 0.94393  0.45067  0.31927  Biso   1.000  H
  C37      1.0000 0.76100  0.07800  0.38000  Biso   1.000  C
  C38      1.0000 0.92200  0.68300  0.38000  Biso   1.000  C
  C39      1.0000 0.31700  0.23900  0.38000  Biso   1.000  C
  C40      1.0000 0.42767  0.41133  0.71333  Biso   1.000  C
  C41      1.0000 0.58867  0.01633  0.71333  Biso   1.000  C
  C42      1.0000 0.98367  0.57233  0.71333  Biso   1.000  C
  C43      1.0000 0.09433  0.74467  0.04667  Biso   1.000  C
  C44      1.0000 0.25533  0.34967  0.04667  Biso   1.000  C
  C45      1.0000 0.65033  0.90567  0.04667  Biso   1.000  C
  C46      1.0000 0.23900  0.92200  0.62000  Biso   1.000  C
  C47      1.0000 0.07800  0.31700  0.62000  Biso   1.000  C
  C48      1.0000 0.68300  0.76100  0.62000  Biso   1.000  C
  C49      1.0000 0.90567  0.25533  0.95333  Biso   1.000  C
  C50      1.0000 0.74467  0.65033  0.95333  Biso   1.000  C
  C51      1.0000 0.34967  0.09433  0.95333  Biso   1.000  C
  C52      1.0000 0.57233  0.58867  0.28667  Biso   1.000  C
  C53      1.0000 0.41133  0.98367  0.28667  Biso   1.000  C
  C54      1.0000 0.01633  0.42767  0.28667  Biso   1.000  C
  H19      1.0000 0.72130  0.03680  0.36540  Biso   1.000  H
  H20      1.0000 0.96320  0.68450  0.36540  Biso   1.000  H
  H21      1.0000 0.31550  0.27870  0.36540  Biso   1.000  H
  H22      1.0000 0.38797  0.37013  0.69873  Biso   1.000  H
  H23      1.0000 0.62987  0.01783  0.69873  Biso   1.000  H
  H24      1.0000 0.98217  0.61203  0.69873  Biso   1.000  H
  H25      1.0000 0.05463  0.70347  0.03207  Biso   1.000  H
  H26      1.0000 0.29653  0.35117  0.03207  Biso   1.000  H
  H27      1.0000 0.64883  0.94537  0.03207  Biso   1.000  H
  H28      1.0000 0.27870  0.96320  0.63460  Biso   1.000  H
  H29      1.0000 0.03680  0.31550  0.63460  Biso   1.000  H
  H30      1.0000 0.68450  0.72130  0.63460  Biso   1.000  H
  H31      1.0000 0.94537  0.29653  0.96793  Biso   1.000  H
  H32      1.0000 0.70347  0.64883  0.96793  Biso   1.000  H
  H33      1.0000 0.35117  0.05463  0.96793  Biso   1.000  H
  H34      1.0000 0.61203  0.62987  0.30127  Biso   1.000  H
  H35      1.0000 0.37013  0.98217  0.30127  Biso   1.000  H
  H36      1.0000 0.01783  0.38797  0.30127  Biso   1.000  H
  C55      1.0000 0.78000  0.05800  0.41300  Biso   1.000  C
  C56      1.0000 0.94200  0.72200  0.41300  Biso   1.000  C
  C57      1.0000 0.27800  0.22000  0.41300  Biso   1.000  C
  C58      1.0000 0.44667  0.39133  0.74633  Biso   1.000  C
  C59      1.0000 0.60867  0.05533  0.74633  Biso   1.000  C
  C60      1.0000 0.94467  0.55333  0.74633  Biso   1.000  C
  C61      1.0000 0.11333  0.72467  0.07967  Biso   1.000  C
  C62      1.0000 0.27533  0.38867  0.07967  Biso   1.000  C
  C63      1.0000 0.61133  0.88667  0.07967  Biso   1.000  C
  C64      1.0000 0.22000  0.94200  0.58700  Biso   1.000  C
  C65      1.0000 0.05800  0.27800  0.58700  Biso   1.000  C
  C66      1.0000 0.72200  0.78000  0.58700  Biso   1.000  C
  C67      1.0000 0.88667  0.27533  0.92033  Biso   1.000  C
  C68      1.0000 0.72467  0.61133  0.92033  Biso   1.000  C
  C69      1.0000 0.38867  0.11333  0.92033  Biso   1.000  C
  C70      1.0000 0.55333  0.60867  0.25367  Biso   1.000  C
  C71      1.0000 0.39133  0.94467  0.25367  Biso   1.000  C
  C72      1.0000 0.05533  0.44667  0.25367  Biso   1.000  C
  C73      1.0000 0.83900  0.12100  0.43400  Biso   1.000  C
  C74      1.0000 0.87900  0.71800  0.43400  Biso   1.000  C
  C75      1.0000 0.28200  0.16100  0.43400  Biso   1.000  C
  C76      1.0000 0.50567  0.45433  0.76733  Biso   1.000  C
  C77      1.0000 0.54567  0.05133  0.76733  Biso   1.000  C
  C78      1.0000 0.94867  0.49433  0.76733  Biso   1.000  C
  C79      1.0000 0.17233  0.78767  0.10067  Biso   1.000  C
  C80      1.0000 0.21233  0.38467  0.10067  Biso   1.000  C
  C81      1.0000 0.61533  0.82767  0.10067  Biso   1.000  C
  C82      1.0000 0.16100  0.87900  0.56600  Biso   1.000  C
  C83      1.0000 0.12100  0.28200  0.56600  Biso   1.000  C
  C84      1.0000 0.71800  0.83900  0.56600  Biso   1.000  C
  C85      1.0000 0.82767  0.21233  0.89933  Biso   1.000  C
  C86      1.0000 0.78767  0.61533  0.89933  Biso   1.000  C
  C87      1.0000 0.38467  0.17233  0.89933  Biso   1.000  C
  C88      1.0000 0.49433  0.54567  0.23267  Biso   1.000  C
  C89      1.0000 0.45433  0.94867  0.23267  Biso   1.000  C
  C90      1.0000 0.05133  0.50567  0.23267  Biso   1.000  C
  H37      1.0000 0.85330  0.10790  0.45600  Biso   1.000  H
  H38      1.0000 0.89210  0.74540  0.45600  Biso   1.000  H
  H39      1.0000 0.25460  0.14670  0.45600  Biso   1.000  H
  H40      1.0000 0.51997  0.44123  0.78933  Biso   1.000  H
  H41      1.0000 0.55877  0.07873  0.78933  Biso   1.000  H
  H42      1.0000 0.92127  0.48003  0.78933  Biso   1.000  H
  H43      1.0000 0.18663  0.77457  0.12267  Biso   1.000  H
  H44      1.0000 0.22543  0.41207  0.12267  Biso   1.000  H
  H45      1.0000 0.58793  0.81337  0.12267  Biso   1.000  H
  H46      1.0000 0.14670  0.89210  0.54400  Biso   1.000  H
  H47      1.0000 0.10790  0.25460  0.54400  Biso   1.000  H
  H48      1.0000 0.74540  0.85330  0.54400  Biso   1.000  H
  H49      1.0000 0.81337  0.22543  0.87733  Biso   1.000  H
  H50      1.0000 0.77457  0.58793  0.87733  Biso   1.000  H
  H51      1.0000 0.41207  0.18663  0.87733  Biso   1.000  H
  H52      1.0000 0.48003  0.55877  0.21067  Biso   1.000  H
  H53      1.0000 0.44123  0.92127  0.21067  Biso   1.000  H
  H54      1.0000 0.07873  0.51997  0.21067  Biso   1.000  H
  C91      1.0000 0.87700  0.20200  0.42300  Biso   1.000  C
  C92      1.0000 0.79800  0.67500  0.42300  Biso   1.000  C
  C93      1.0000 0.32500  0.12300  0.42300  Biso   1.000  C
  C94      1.0000 0.54367  0.53533  0.75633  Biso   1.000  C
  C95      1.0000 0.46467  0.00833  0.75633  Biso   1.000  C
  C96      1.0000 0.99167  0.45633  0.75633  Biso   1.000  C
  C97      1.0000 0.21033  0.86867  0.08967  Biso   1.000  C
  C98      1.0000 0.13133  0.34167  0.08967  Biso   1.000  C
  C99      1.0000 0.65833  0.78967  0.08967  Biso   1.000  C
  C100     1.0000 0.12300  0.79800  0.57700  Biso   1.000  C
  C101     1.0000 0.20200  0.32500  0.57700  Biso   1.000  C
  C102     1.0000 0.67500  0.87700  0.57700  Biso   1.000  C
  C103     1.0000 0.78967  0.13133  0.91033  Biso   1.000  C
  C104     1.0000 0.86867  0.65833  0.91033  Biso   1.000  C
  C105     1.0000 0.34167  0.21033  0.91033  Biso   1.000  C
  C106     1.0000 0.45633  0.46467  0.24367  Biso   1.000  C
  C107     1.0000 0.53533  0.99167  0.24367  Biso   1.000  C
  C108     1.0000 0.00833  0.54367  0.24367  Biso   1.000  C
  H55      1.0000 0.91680  0.24310  0.43770  Biso   1.000  H
  H56      1.0000 0.75690  0.67370  0.43770  Biso   1.000  H
  H57      1.0000 0.32630  0.08320  0.43770  Biso   1.000  H
  H58      1.0000 0.58347  0.57643  0.77103  Biso   1.000  H
  H59      1.0000 0.42357  0.00703  0.77103  Biso   1.000  H
  H60      1.0000 0.99297  0.41653  0.77103  Biso   1.000  H
  H61      1.0000 0.25013  0.90977  0.10437  Biso   1.000  H
  H62      1.0000 0.09023  0.34037  0.10437  Biso   1.000  H
  H63      1.0000 0.65963  0.74987  0.10437  Biso   1.000  H
  H64      1.0000 0.08320  0.75690  0.56230  Biso   1.000  H
  H65      1.0000 0.24310  0.32630  0.56230  Biso   1.000  H
  H66      1.0000 0.67370  0.91680  0.56230  Biso   1.000  H
  H67      1.0000 0.74987  0.09023  0.89563  Biso   1.000  H
  H68      1.0000 0.90977  0.65963  0.89563  Biso   1.000  H
  H69      1.0000 0.34037  0.25013  0.89563  Biso   1.000  H
  H70      1.0000 0.41653  0.42357  0.22897  Biso   1.000  H
  H71      1.0000 0.57643  0.99297  0.22897  Biso   1.000  H
  H72      1.0000 0.00703  0.58347  0.22897  Biso   1.000  H
  C109     1.0000 0.90400  0.31200  0.37700  Biso   1.000  C
  C110     1.0000 0.68800  0.59200  0.37700  Biso   1.000  C
  C111     1.0000 0.40800  0.09600  0.37700  Biso   1.000  C
  C112     1.0000 0.57067  0.64533  0.71033  Biso   1.000  C
  C113     1.0000 0.35467  0.92533  0.71033  Biso   1.000  C
  C114     1.0000 0.07467  0.42933  0.71033  Biso   1.000  C
  C115     1.0000 0.23733  0.97867  0.04367  Biso   1.000  C
  C116     1.0000 0.02133  0.25867  0.04367  Biso   1.000  C
  C117     1.0000 0.74133  0.76267  0.04367  Biso   1.000  C
  C118     1.0000 0.09600  0.68800  0.62300  Biso   1.000  C
  C119     1.0000 0.31200  0.40800  0.62300  Biso   1.000  C
  C120     1.0000 0.59200  0.90400  0.62300  Biso   1.000  C
  C121     1.0000 0.76267  0.02133  0.95633  Biso   1.000  C
  C122     1.0000 0.97867  0.74133  0.95633  Biso   1.000  C
  C123     1.0000 0.25867  0.23733  0.95633  Biso   1.000  C
  C124     1.0000 0.42933  0.35467  0.28967  Biso   1.000  C
  C125     1.0000 0.64533  0.07467  0.28967  Biso   1.000  C
  C126     1.0000 0.92533  0.57067  0.28967  Biso   1.000  C
  H73      1.0000 0.95960  0.32620  0.36960  Biso   1.000  H
  H74      1.0000 0.67380  0.63340  0.36960  Biso   1.000  H
  H75      1.0000 0.36660  0.04040  0.36960  Biso   1.000  H
  H76      1.0000 0.62627  0.65953  0.70293  Biso   1.000  H
  H77      1.0000 0.34047  0.96673  0.70293  Biso   1.000  H
  H78      1.0000 0.03327  0.37373  0.70293  Biso   1.000  H
  H79      1.0000 0.29293  0.99287  0.03627  Biso   1.000  H
  H80      1.0000 0.00713  0.30007  0.03627  Biso   1.000  H
  H81      1.0000 0.69993  0.70707  0.03627  Biso   1.000  H
  H82      1.0000 0.04040  0.67380  0.63040  Biso   1.000  H
  H83      1.0000 0.32620  0.36660  0.63040  Biso   1.000  H
  H84      1.0000 0.63340  0.95960  0.63040  Biso   1.000  H
  H85      1.0000 0.70707  0.00713  0.96373  Biso   1.000  H
  H86      1.0000 0.99287  0.69993  0.96373  Biso   1.000  H
  H87      1.0000 0.30007  0.29293  0.96373  Biso   1.000  H
  H88      1.0000 0.37373  0.34047  0.29707  Biso   1.000  H
  H89      1.0000 0.65953  0.03327  0.29707  Biso   1.000  H
  H90      1.0000 0.96673  0.62627  0.29707  Biso   1.000  H
  H91      1.0000 0.87510  0.31780  0.35680  Biso   1.000  H
  H92      1.0000 0.68220  0.55730  0.35680  Biso   1.000  H
  H93      1.0000 0.44270  0.12490  0.35680  Biso   1.000  H
  H94      1.0000 0.54177  0.65113  0.69013  Biso   1.000  H
  H95      1.0000 0.34887  0.89063  0.69013  Biso   1.000  H
  H96      1.0000 0.10937  0.45823  0.69013  Biso   1.000  H
  H97      1.0000 0.20843  0.98447  0.02347  Biso   1.000  H
  H98      1.0000 0.01553  0.22397  0.02347  Biso   1.000  H
  H99      1.0000 0.77603  0.79157  0.02347  Biso   1.000  H
  H100     1.0000 0.12490  0.68220  0.64320  Biso   1.000  H
  H101     1.0000 0.31780  0.44270  0.64320  Biso   1.000  H
  H102     1.0000 0.55730  0.87510  0.64320  Biso   1.000  H
  H103     1.0000 0.79157  0.01553  0.97653  Biso   1.000  H
  H104     1.0000 0.98447  0.77603  0.97653  Biso   1.000  H
  H105     1.0000 0.22397  0.20843  0.97653  Biso   1.000  H
  H106     1.0000 0.45823  0.34887  0.30987  Biso   1.000  H
  H107     1.0000 0.65113  0.10937  0.30987  Biso   1.000  H
  H108     1.0000 0.89063  0.54177  0.30987  Biso   1.000  H
  C127     1.0000 0.73800  0.96900  0.42600  Biso   1.000  C
  C128     1.0000 0.03100  0.76900  0.42600  Biso   1.000  C
  C129     1.0000 0.23100  0.26200  0.42600  Biso   1.000  C
  C130     1.0000 0.40467  0.30233  0.75933  Biso   1.000  C
  C131     1.0000 0.69767  0.10233  0.75933  Biso   1.000  C
  C132     1.0000 0.89767  0.59533  0.75933  Biso   1.000  C
  C133     1.0000 0.07133  0.63567  0.09267  Biso   1.000  C
  C134     1.0000 0.36433  0.43567  0.09267  Biso   1.000  C
  C135     1.0000 0.56433  0.92867  0.09267  Biso   1.000  C
  C136     1.0000 0.26200  0.03100  0.57400  Biso   1.000  C
  C137     1.0000 0.96900  0.23100  0.57400  Biso   1.000  C
  C138     1.0000 0.76900  0.73800  0.57400  Biso   1.000  C
  C139     1.0000 0.92867  0.36433  0.90733  Biso   1.000  C
  C140     1.0000 0.63567  0.56433  0.90733  Biso   1.000  C
  C141     1.0000 0.43567  0.07133  0.90733  Biso   1.000  C
  C142     1.0000 0.59533  0.69767  0.24067  Biso   1.000  C
  C143     1.0000 0.30233  0.89767  0.24067  Biso   1.000  C
  C144     1.0000 0.10233  0.40467  0.24067  Biso   1.000  C
  H109     1.0000 0.71480  0.93120  0.40530  Biso   1.000  H
  H110     1.0000 0.06880  0.78360  0.40530  Biso   1.000  H
  H111     1.0000 0.21640  0.28520  0.40530  Biso   1.000  H
  H112     1.0000 0.38147  0.26453  0.73863  Biso   1.000  H
  H113     1.0000 0.73547  0.11693  0.73863  Biso   1.000  H
  H114     1.0000 0.88307  0.61853  0.73863  Biso   1.000  H
  H115     1.0000 0.04813  0.59787  0.07197  Biso   1.000  H
  H116     1.0000 0.40213  0.45027  0.07197  Biso   1.000  H
  H117     1.0000 0.54973  0.95187  0.07197  Biso   1.000  H
  H118     1.0000 0.28520  0.06880  0.59470  Biso   1.000  H
  H119     1.0000 0.93120  0.21640  0.59470  Biso   1.000  H
  H120     1.0000 0.78360  0.71480  0.59470  Biso   1.000  H
  H121     1.0000 0.95187  0.40213  0.92803  Biso   1.000  H
  H122     1.0000 0.59787  0.54973  0.92803  Biso   1.000  H
  H123     1.0000 0.45027  0.04813  0.92803  Biso   1.000  H
  H124     1.0000 0.61853  0.73547  0.26137  Biso   1.000  H
  H125     1.0000 0.26453  0.88307  0.26137  Biso   1.000  H
  H126     1.0000 0.11693  0.38147  0.26137  Biso   1.000  H
  H127     1.0000 0.77810  0.95800  0.43730  Biso   1.000  H
  H128     1.0000 0.04200  0.82010  0.43730  Biso   1.000  H
  H129     1.0000 0.17990  0.22190  0.43730  Biso   1.000  H
  H130     1.0000 0.44477  0.29133  0.77063  Biso   1.000  H
  H131     1.0000 0.70867  0.15343  0.77063  Biso   1.000  H
  H132     1.0000 0.84657  0.55523  0.77063  Biso   1.000  H
  H133     1.0000 0.11143  0.62467  0.10397  Biso   1.000  H
  H134     1.0000 0.37533  0.48677  0.10397  Biso   1.000  H
  H135     1.0000 0.51323  0.88857  0.10397  Biso   1.000  H
  H136     1.0000 0.22190  0.04200  0.56270  Biso   1.000  H
  H137     1.0000 0.95800  0.17990  0.56270  Biso   1.000  H
  H138     1.0000 0.82010  0.77810  0.56270  Biso   1.000  H
  H139     1.0000 0.88857  0.37533  0.89603  Biso   1.000  H
  H140     1.0000 0.62467  0.51323  0.89603  Biso   1.000  H
  H141     1.0000 0.48677  0.11143  0.89603  Biso   1.000  H
  H142     1.0000 0.55523  0.70867  0.22937  Biso   1.000  H
  H143     1.0000 0.29133  0.84657  0.22937  Biso   1.000  H
  H144     1.0000 0.15343  0.44477  0.22937  Biso   1.000  H
  C145     1.0000 0.96900  0.40900  0.43000  Biso   1.000  C
  C146     1.0000 0.59100  0.56000  0.43000  Biso   1.000  C
  C147     1.0000 0.44000  0.03100  0.43000  Biso   1.000  C
  C148     1.0000 0.63567  0.74233  0.76333  Biso   1.000  C
  C149     1.0000 0.25767  0.89333  0.76333  Biso   1.000  C
  C150     1.0000 0.10667  0.36433  0.76333  Biso   1.000  C
  C151     1.0000 0.30233  0.07567  0.09667  Biso   1.000  C
  C152     1.0000 0.92433  0.22667  0.09667  Biso   1.000  C
  C153     1.0000 0.77333  0.69767  0.09667  Biso   1.000  C
  C154     1.0000 0.03100  0.59100  0.57000  Biso   1.000  C
  C155     1.0000 0.40900  0.44000  0.57000  Biso   1.000  C
  C156     1.0000 0.56000  0.96900  0.57000  Biso   1.000  C
  C157     1.0000 0.69767  0.92433  0.90333  Biso   1.000  C
  C158     1.0000 0.07567  0.77333  0.90333  Biso   1.000  C
  C159     1.0000 0.22667  0.30233  0.90333  Biso   1.000  C
  C160     1.0000 0.36433  0.25767  0.23667  Biso   1.000  C
  C161     1.0000 0.74233  0.10667  0.23667  Biso   1.000  C
  C162     1.0000 0.89333  0.63567  0.23667  Biso   1.000  C
  H145     1.0000 0.01840  0.40870  0.43070  Biso   1.000  H
  H146     1.0000 0.59130  0.60970  0.43070  Biso   1.000  H
  H147     1.0000 0.39030  0.98160  0.43070  Biso   1.000  H
  H148     1.0000 0.68507  0.74203  0.76403  Biso   1.000  H
  H149     1.0000 0.25797  0.94303  0.76403  Biso   1.000  H
  H150     1.0000 0.05697  0.31493  0.76403  Biso   1.000  H
  H151     1.0000 0.35173  0.07537  0.09737  Biso   1.000  H
  H152     1.0000 0.92463  0.27637  0.09737  Biso   1.000  H
  H153     1.0000 0.72363  0.64827  0.09737  Biso   1.000  H
  H154     1.0000 0.98160  0.59130  0.56930  Biso   1.000  H
  H155     1.0000 0.40870  0.39030  0.56930  Biso   1.000  H
  H156     1.0000 0.60970  0.01840  0.56930  Biso   1.000  H
  H157     1.0000 0.64827  0.92463  0.90263  Biso   1.000  H
  H158     1.0000 0.07537  0.72363  0.90263  Biso   1.000  H
  H159     1.0000 0.27637  0.35173  0.90263  Biso   1.000  H
  H160     1.0000 0.31493  0.25797  0.23597  Biso   1.000  H
  H161     1.0000 0.74203  0.05697  0.23597  Biso   1.000  H
  H162     1.0000 0.94303  0.68507  0.23597  Biso   1.000  H
  C163     1.0000 0.87100  0.43300  0.44000  Biso   1.000  C
  C164     1.0000 0.56700  0.43800  0.44000  Biso   1.000  C
  C165     1.0000 0.56200  0.12900  0.44000  Biso   1.000  C
  C166     1.0000 0.53767  0.76633  0.77333  Biso   1.000  C
  C167     1.0000 0.23367  0.77133  0.77333  Biso   1.000  C
  C168     1.0000 0.22867  0.46233  0.77333  Biso   1.000  C
  C169     1.0000 0.20433  0.09967  0.10667  Biso   1.000  C
  C170     1.0000 0.90033  0.10467  0.10667  Biso   1.000  C
  C171     1.0000 0.89533  0.79567  0.10667  Biso   1.000  C
  C172     1.0000 0.12900  0.56700  0.56000  Biso   1.000  C
  C173     1.0000 0.43300  0.56200  0.56000  Biso   1.000  C
  C174     1.0000 0.43800  0.87100  0.56000  Biso   1.000  C
  C175     1.0000 0.79567  0.90033  0.89333  Biso   1.000  C
  C176     1.0000 0.09967  0.89533  0.89333  Biso   1.000  C
  C177     1.0000 0.10467  0.20433  0.89333  Biso   1.000  C
  C178     1.0000 0.46233  0.23367  0.22667  Biso   1.000  C
  C179     1.0000 0.76633  0.22867  0.22667  Biso   1.000  C
  C180     1.0000 0.77133  0.53767  0.22667  Biso   1.000  C
  H163     1.0000 0.84010  0.45410  0.45040  Biso   1.000  H
  H164     1.0000 0.54590  0.38600  0.45040  Biso   1.000  H
  H165     1.0000 0.61400  0.15990  0.45040  Biso   1.000  H
  H166     1.0000 0.50677  0.78743  0.78373  Biso   1.000  H
  H167     1.0000 0.21257  0.71933  0.78373  Biso   1.000  H
  H168     1.0000 0.28067  0.49323  0.78373  Biso   1.000  H
  H169     1.0000 0.17343  0.12077  0.11707  Biso   1.000  H
  H170     1.0000 0.87923  0.05267  0.11707  Biso   1.000  H
  H171     1.0000 0.94733  0.82657  0.11707  Biso   1.000  H
  H172     1.0000 0.15990  0.54590  0.54960  Biso   1.000  H
  H173     1.0000 0.45410  0.61400  0.54960  Biso   1.000  H
  H174     1.0000 0.38600  0.84010  0.54960  Biso   1.000  H
  H175     1.0000 0.82657  0.87923  0.88293  Biso   1.000  H
  H176     1.0000 0.12077  0.94733  0.88293  Biso   1.000  H
  H177     1.0000 0.05267  0.17343  0.88293  Biso   1.000  H
  H178     1.0000 0.49323  0.21257  0.21627  Biso   1.000  H
  H179     1.0000 0.78743  0.28067  0.21627  Biso   1.000  H
  H180     1.0000 0.71933  0.50677  0.21627  Biso   1.000  H
  C181     1.0000 0.58000  0.89300  0.49100  Biso   1.000  C
  C182     1.0000 0.10700  0.68700  0.49100  Biso   1.000  C
  C183     1.0000 0.31300  0.42000  0.49100  Biso   1.000  C
  C184     1.0000 0.24667  0.22633  0.82433  Biso   1.000  C
  C185     1.0000 0.77367  0.02033  0.82433  Biso   1.000  C
  C186     1.0000 0.97967  0.75333  0.82433  Biso   1.000  C
  C187     1.0000 0.91333  0.55967  0.15767  Biso   1.000  C
  C188     1.0000 0.44033  0.35367  0.15767  Biso   1.000  C
  C189     1.0000 0.64633  0.08667  0.15767  Biso   1.000  C
  C190     1.0000 0.42000  0.10700  0.50900  Biso   1.000  C
  C191     1.0000 0.89300  0.31300  0.50900  Biso   1.000  C
  C192     1.0000 0.68700  0.58000  0.50900  Biso   1.000  C
  C193     1.0000 0.08667  0.44033  0.84233  Biso   1.000  C
  C194     1.0000 0.55967  0.64633  0.84233  Biso   1.000  C
  C195     1.0000 0.35367  0.91333  0.84233  Biso   1.000  C
  C196     1.0000 0.75333  0.77367  0.17567  Biso   1.000  C
  C197     1.0000 0.22633  0.97967  0.17567  Biso   1.000  C
  C198     1.0000 0.02033  0.24667  0.17567  Biso   1.000  C
  H181     1.0000 0.54620  0.85460  0.50820  Biso   1.000  H
  H182     1.0000 0.14540  0.69160  0.50820  Biso   1.000  H
  H183     1.0000 0.30840  0.45380  0.50820  Biso   1.000  H
  H184     1.0000 0.21287  0.18793  0.84153  Biso   1.000  H
  H185     1.0000 0.81207  0.02493  0.84153  Biso   1.000  H
  H186     1.0000 0.97507  0.78713  0.84153  Biso   1.000  H
  H187     1.0000 0.87953  0.52127  0.17487  Biso   1.000  H
  H188     1.0000 0.47873  0.35827  0.17487  Biso   1.000  H
  H189     1.0000 0.64173  0.12047  0.17487  Biso   1.000  H
  H190     1.0000 0.45380  0.14540  0.49180  Biso   1.000  H
  H191     1.0000 0.85460  0.30840  0.49180  Biso   1.000  H
  H192     1.0000 0.69160  0.54620  0.49180  Biso   1.000  H
  H193     1.0000 0.12047  0.47873  0.82513  Biso   1.000  H
  H194     1.0000 0.52127  0.64173  0.82513  Biso   1.000  H
  H195     1.0000 0.35827  0.87953  0.82513  Biso   1.000  H
  H196     1.0000 0.78713  0.81207  0.15847  Biso   1.000  H
  H197     1.0000 0.18793  0.97507  0.15847  Biso   1.000  H
  H198     1.0000 0.02493  0.21287  0.15847  Biso   1.000  H
  C199     1.0000 0.63400  0.99800  0.45600  Biso   1.000  C
  C200     1.0000 0.00200  0.63600  0.45600  Biso   1.000  C
  C201     1.0000 0.36400  0.36600  0.45600  Biso   1.000  C
  C202     1.0000 0.30067  0.33133  0.78933  Biso   1.000  C
  C203     1.0000 0.66867  0.96933  0.78933  Biso   1.000  C
  C204     1.0000 0.03067  0.69933  0.78933  Biso   1.000  C
  C205     1.0000 0.96733  0.66467  0.12267  Biso   1.000  C
  C206     1.0000 0.33533  0.30267  0.12267  Biso   1.000  C
  C207     1.0000 0.69733  0.03267  0.12267  Biso   1.000  C
  C208     1.0000 0.36600  0.00200  0.54400  Biso   1.000  C
  C209     1.0000 0.99800  0.36400  0.54400  Biso   1.000  C
  C210     1.0000 0.63600  0.63400  0.54400  Biso   1.000  C
  C211     1.0000 0.03267  0.33533  0.87733  Biso   1.000  C
  C212     1.0000 0.66467  0.69733  0.87733  Biso   1.000  C
  C213     1.0000 0.30267  0.96733  0.87733  Biso   1.000  C
  C214     1.0000 0.69933  0.66867  0.21067  Biso   1.000  C
  C215     1.0000 0.33133  0.03067  0.21067  Biso   1.000  C
  C216     1.0000 0.96933  0.30067  0.21067  Biso   1.000  C
  H199     1.0000 0.64730  0.04690  0.44450  Biso   1.000  H
  H200     1.0000 0.95310  0.60040  0.44450  Biso   1.000  H
  H201     1.0000 0.39960  0.35270  0.44450  Biso   1.000  H
  H202     1.0000 0.31397  0.38023  0.77783  Biso   1.000  H
  H203     1.0000 0.61977  0.93373  0.77783  Biso   1.000  H
  H204     1.0000 0.06627  0.68603  0.77783  Biso   1.000  H
  H205     1.0000 0.98063  0.71357  0.11117  Biso   1.000  H
  H206     1.0000 0.28643  0.26707  0.11117  Biso   1.000  H
  H207     1.0000 0.73293  0.01937  0.11117  Biso   1.000  H
  H208     1.0000 0.35270  0.95310  0.55550  Biso   1.000  H
  H209     1.0000 0.04690  0.39960  0.55550  Biso   1.000  H
  H210     1.0000 0.60040  0.64730  0.55550  Biso   1.000  H
  H211     1.0000 0.01937  0.28643  0.88883  Biso   1.000  H
  H212     1.0000 0.71357  0.73293  0.88883  Biso   1.000  H
  H213     1.0000 0.26707  0.98063  0.88883  Biso   1.000  H
  H214     1.0000 0.68603  0.61977  0.22217  Biso   1.000  H
  H215     1.0000 0.38023  0.06627  0.22217  Biso   1.000  H
  H216     1.0000 0.93373  0.31397  0.22217  Biso   1.000  H
  N1       1.0000 0.94600  0.44900  0.45200  Biso   1.000  N
  N2       1.0000 0.55100  0.49700  0.45200  Biso   1.000  N
  N3       1.0000 0.50300  0.05400  0.45200  Biso   1.000  N
  N4       1.0000 0.61267  0.78233  0.78533  Biso   1.000  N
  N5       1.0000 0.21767  0.83033  0.78533  Biso   1.000  N
  N6       1.0000 0.16967  0.38733  0.78533  Biso   1.000  N
  N7       1.0000 0.27933  0.11567  0.11867  Biso   1.000  N
  N8       1.0000 0.88433  0.16367  0.11867  Biso   1.000  N
  N9       1.0000 0.83633  0.72067  0.11867  Biso   1.000  N
  N10      1.0000 0.05400  0.55100  0.54800  Biso   1.000  N
  N11      1.0000 0.44900  0.50300  0.54800  Biso   1.000  N
  N12      1.0000 0.49700  0.94600  0.54800  Biso   1.000  N
  N13      1.0000 0.72067  0.88433  0.88133  Biso   1.000  N
  N14      1.0000 0.11567  0.83633  0.88133  Biso   1.000  N
  N15      1.0000 0.16367  0.27933  0.88133  Biso   1.000  N
  N16      1.0000 0.38733  0.21767  0.21467  Biso   1.000  N
  N17      1.0000 0.78233  0.16967  0.21467  Biso   1.000  N
  N18      1.0000 0.83033  0.61267  0.21467  Biso   1.000  N
  N19      1.0000 0.84700  0.38400  0.41200  Biso   1.000  N
  N20      1.0000 0.61600  0.46300  0.41200  Biso   1.000  N
  N21      1.0000 0.53700  0.15300  0.41200  Biso   1.000  N
  N22      1.0000 0.51367  0.71733  0.74533  Biso   1.000  N
  N23      1.0000 0.28267  0.79633  0.74533  Biso   1.000  N
  N24      1.0000 0.20367  0.48633  0.74533  Biso   1.000  N
  N25      1.0000 0.18033  0.05067  0.07867  Biso   1.000  N
  N26      1.0000 0.94933  0.12967  0.07867  Biso   1.000  N
  N27      1.0000 0.87033  0.81967  0.07867  Biso   1.000  N
  N28      1.0000 0.15300  0.61600  0.58800  Biso   1.000  N
  N29      1.0000 0.38400  0.53700  0.58800  Biso   1.000  N
  N30      1.0000 0.46300  0.84700  0.58800  Biso   1.000  N
  N31      1.0000 0.81967  0.94933  0.92133  Biso   1.000  N
  N32      1.0000 0.05067  0.87033  0.92133  Biso   1.000  N
  N33      1.0000 0.12967  0.18033  0.92133  Biso   1.000  N
  N34      1.0000 0.48633  0.28267  0.25467  Biso   1.000  N
  N35      1.0000 0.71733  0.20367  0.25467  Biso   1.000  N
  N36      1.0000 0.79633  0.51367  0.25467  Biso   1.000  N
  N37      1.0000 0.91100  0.37100  0.40500  Biso   1.000  N
  N38      1.0000 0.62900  0.54000  0.40500  Biso   1.000  N
  N39      1.0000 0.46000  0.08900  0.40500  Biso   1.000  N
  N40      1.0000 0.57767  0.70433  0.73833  Biso   1.000  N
  N41      1.0000 0.29567  0.87333  0.73833  Biso   1.000  N
  N42      1.0000 0.12667  0.42233  0.73833  Biso   1.000  N
  N43      1.0000 0.24433  0.03767  0.07167  Biso   1.000  N
  N44      1.0000 0.96233  0.20667  0.07167  Biso   1.000  N
  N45      1.0000 0.79333  0.75567  0.07167  Biso   1.000  N
  N46      1.0000 0.08900  0.62900  0.59500  Biso   1.000  N
  N47      1.0000 0.37100  0.46000  0.59500  Biso   1.000  N
  N48      1.0000 0.54000  0.91100  0.59500  Biso   1.000  N
  N49      1.0000 0.75567  0.96233  0.92833  Biso   1.000  N
  N50      1.0000 0.03767  0.79333  0.92833  Biso   1.000  N
  N51      1.0000 0.20667  0.24433  0.92833  Biso   1.000  N
  N52      1.0000 0.42233  0.29567  0.26167  Biso   1.000  N
  N53      1.0000 0.70433  0.12667  0.26167  Biso   1.000  N
  N54      1.0000 0.87333  0.57767  0.26167  Biso   1.000  N
  N55      1.0000 0.57600  0.96200  0.48200  Biso   1.000  N
  N56      1.0000 0.03800  0.61400  0.48200  Biso   1.000  N
  N57      1.0000 0.38600  0.42400  0.48200  Biso   1.000  N
  N58      1.0000 0.24267  0.29533  0.81533  Biso   1.000  N
  N59      1.0000 0.70467  0.94733  0.81533  Biso   1.000  N
  N60      1.0000 0.05267  0.75733  0.81533  Biso   1.000  N
  N61      1.0000 0.90933  0.62867  0.14867  Biso   1.000  N
  N62      1.0000 0.37133  0.28067  0.14867  Biso   1.000  N
  N63      1.0000 0.71933  0.09067  0.14867  Biso   1.000  N
  N64      1.0000 0.42400  0.03800  0.51800  Biso   1.000  N
  N65      1.0000 0.96200  0.38600  0.51800  Biso   1.000  N
  N66      1.0000 0.61400  0.57600  0.51800  Biso   1.000  N
  N67      1.0000 0.09067  0.37133  0.85133  Biso   1.000  N
  N68      1.0000 0.62867  0.71933  0.85133  Biso   1.000  N
  N69      1.0000 0.28067  0.90933  0.85133  Biso   1.000  N
  N70      1.0000 0.75733  0.70467  0.18467  Biso   1.000  N
  N71      1.0000 0.29533  0.05267  0.18467  Biso   1.000  N
  N72      1.0000 0.94733  0.24267  0.18467  Biso   1.000  N
  N73      1.0000 0.63700  0.88500  0.47300  Biso   1.000  N
  N74      1.0000 0.11500  0.75200  0.47300  Biso   1.000  N
  N75      1.0000 0.24800  0.36300  0.47300  Biso   1.000  N
  N76      1.0000 0.30367  0.21833  0.80633  Biso   1.000  N
  N77      1.0000 0.78167  0.08533  0.80633  Biso   1.000  N
  N78      1.0000 0.91467  0.69633  0.80633  Biso   1.000  N
  N79      1.0000 0.97033  0.55167  0.13967  Biso   1.000  N
  N80      1.0000 0.44833  0.41867  0.13967  Biso   1.000  N
  N81      1.0000 0.58133  0.02967  0.13967  Biso   1.000  N
  N82      1.0000 0.36300  0.11500  0.52700  Biso   1.000  N
  N83      1.0000 0.88500  0.24800  0.52700  Biso   1.000  N
  N84      1.0000 0.75200  0.63700  0.52700  Biso   1.000  N
  N85      1.0000 0.02967  0.44833  0.86033  Biso   1.000  N
  N86      1.0000 0.55167  0.58133  0.86033  Biso   1.000  N
  N87      1.0000 0.41867  0.97033  0.86033  Biso   1.000  N
  N88      1.0000 0.69633  0.78167  0.19367  Biso   1.000  N
  N89      1.0000 0.21833  0.91467  0.19367  Biso   1.000  N
  N90      1.0000 0.08533  0.30367  0.19367  Biso   1.000  N
  N91      1.0000 0.67100  0.95300  0.45100  Biso   1.000  N
  N92      1.0000 0.04700  0.71800  0.45100  Biso   1.000  N
  N93      1.0000 0.28200  0.32900  0.45100  Biso   1.000  N
  N94      1.0000 0.33767  0.28633  0.78433  Biso   1.000  N
  N95      1.0000 0.71367  0.05133  0.78433  Biso   1.000  N
  N96      1.0000 0.94867  0.66233  0.78433  Biso   1.000  N
  N97      1.0000 0.00433  0.61967  0.11767  Biso   1.000  N
  N98      1.0000 0.38033  0.38467  0.11767  Biso   1.000  N
  N99      1.0000 0.61533  0.99567  0.11767  Biso   1.000  N
  N100     1.0000 0.32900  0.04700  0.54900  Biso   1.000  N
  N101     1.0000 0.95300  0.28200  0.54900  Biso   1.000  N
  N102     1.0000 0.71800  0.67100  0.54900  Biso   1.000  N
  N103     1.0000 0.99567  0.38033  0.88233  Biso   1.000  N
  N104     1.0000 0.61967  0.61533  0.88233  Biso   1.000  N
  N105     1.0000 0.38467  0.00433  0.88233  Biso   1.000  N
  N106     1.0000 0.66233  0.71367  0.21567  Biso   1.000  N
  N107     1.0000 0.28633  0.94867  0.21567  Biso   1.000  N
  N108     1.0000 0.05133  0.33767  0.21567  Biso   1.000  N
  O241     1.0000 0.68600  0.75400  0.46300  Biso   1.000  O
  O242     1.0000 0.24600  0.93200  0.46300  Biso   1.000  O
  O243     1.0000 0.06800  0.31400  0.46300  Biso   1.000  O
  O244     1.0000 0.35267  0.08733  0.79633  Biso   1.000  O
  O245     1.0000 0.91267  0.26533  0.79633  Biso   1.000  O
  O246     1.0000 0.73467  0.64733  0.79633  Biso   1.000  O
  O247     1.0000 0.01933  0.42067  0.12967  Biso   1.000  O
  O248     1.0000 0.57933  0.59867  0.12967  Biso   1.000  O
  O249     1.0000 0.40133  0.98067  0.12967  Biso   1.000  O
  O250     1.0000 0.31400  0.24600  0.53700  Biso   1.000  O
  O251     1.0000 0.75400  0.06800  0.53700  Biso   1.000  O
  O252     1.0000 0.93200  0.68600  0.53700  Biso   1.000  O
  O253     1.0000 0.98067  0.57933  0.87033  Biso   1.000  O
  O254     1.0000 0.42067  0.40133  0.87033  Biso   1.000  O
  O255     1.0000 0.59867  0.01933  0.87033  Biso   1.000  O
  O256     1.0000 0.64733  0.91267  0.20367  Biso   1.000  O
  O257     1.0000 0.08733  0.73467  0.20367  Biso   1.000  O
  O258     1.0000 0.26533  0.35267  0.20367  Biso   1.000  O
  O259     1.0000 0.48100  0.80400  0.17300  Biso   1.000  O
  O260     1.0000 0.19600  0.67700  0.17300  Biso   1.000  O
  O261     1.0000 0.32300  0.51900  0.17300  Biso   1.000  O
  O262     1.0000 0.14767  0.13733  0.50633  Biso   1.000  O
  O263     1.0000 0.86267  0.01033  0.50633  Biso   1.000  O
  O264     1.0000 0.98967  0.85233  0.50633  Biso   1.000  O
  O265     1.0000 0.81433  0.47067  0.83967  Biso   1.000  O
  O266     1.0000 0.52933  0.34367  0.83967  Biso   1.000  O
  O267     1.0000 0.65633  0.18567  0.83967  Biso   1.000  O
  O268     1.0000 0.51900  0.19600  0.82700  Biso   1.000  O
  O269     1.0000 0.80400  0.32300  0.82700  Biso   1.000  O
  O270     1.0000 0.67700  0.48100  0.82700  Biso   1.000  O
  O271     1.0000 0.18567  0.52933  0.16033  Biso   1.000  O
  O272     1.0000 0.47067  0.65633  0.16033  Biso   1.000  O
  O273     1.0000 0.34367  0.81433  0.16033  Biso   1.000  O
  O274     1.0000 0.85233  0.86267  0.49367  Biso   1.000  O
  O275     1.0000 0.13733  0.98967  0.49367  Biso   1.000  O
  O276     1.0000 0.01033  0.14767  0.49367  Biso   1.000  O
