data_image0
_cell_length_a       18.674
_cell_length_b       18.674
_cell_length_c       37.262
_cell_angle_alpha    90
_cell_angle_beta     90
_cell_angle_gamma    120

_symmetry_space_group_name_H-M    "P 1"
_symmetry_int_tables_number       1

loop_
  _symmetry_equiv_pos_as_xyz
  'x, y, z'

loop_
  _atom_site_label
  _atom_site_occupancy
  _atom_site_fract_x
  _atom_site_fract_y
  _atom_site_fract_z
  _atom_site_thermal_displace_type
  _atom_site_B_iso_or_equiv
  _atom_site_type_symbol
  P1       1.0000 0.00000  0.00000  0.20611  Biso   1.000  P
  P2       1.0000 0.66667  0.33333  0.53944  Biso   1.000  P
  P3       1.0000 0.33333  0.66667  0.87278  Biso   1.000  P
  P4       1.0000 0.00000  0.00000  0.79389  Biso   1.000  P
  P5       1.0000 0.66667  0.33333  0.12722  Biso   1.000  P
  P6       1.0000 0.33333  0.66667  0.46056  Biso   1.000  P
  W1       1.0000 0.02703  0.91030  0.28524  Biso   1.000  W
  W2       1.0000 0.08970  0.11673  0.28524  Biso   1.000  W
  W3       1.0000 0.88327  0.97297  0.28524  Biso   1.000  W
  W4       1.0000 0.69370  0.24363  0.61858  Biso   1.000  W
  W5       1.0000 0.75637  0.45006  0.61858  Biso   1.000  W
  W6       1.0000 0.54994  0.30630  0.61858  Biso   1.000  W
  W7       1.0000 0.36036  0.57697  0.95191  Biso   1.000  W
  W8       1.0000 0.42303  0.78340  0.95191  Biso   1.000  W
  W9       1.0000 0.21660  0.63964  0.95191  Biso   1.000  W
  W10      1.0000 0.97297  0.08970  0.71476  Biso   1.000  W
  W11      1.0000 0.91030  0.88327  0.71476  Biso   1.000  W
  W12      1.0000 0.11673  0.02703  0.71476  Biso   1.000  W
  W13      1.0000 0.63964  0.42303  0.04809  Biso   1.000  W
  W14      1.0000 0.57697  0.21660  0.04809  Biso   1.000  W
  W15      1.0000 0.78340  0.36036  0.04809  Biso   1.000  W
  W16      1.0000 0.30630  0.75637  0.38142  Biso   1.000  W
  W17      1.0000 0.24363  0.54994  0.38142  Biso   1.000  W
  W18      1.0000 0.45006  0.69370  0.38142  Biso   1.000  W
  W19      1.0000 0.93252  0.78457  0.20372  Biso   1.000  W
  W20      1.0000 0.21543  0.14795  0.20372  Biso   1.000  W
  W21      1.0000 0.85205  0.06748  0.20372  Biso   1.000  W
  W22      1.0000 0.59919  0.11790  0.53705  Biso   1.000  W
  W23      1.0000 0.88210  0.48128  0.53705  Biso   1.000  W
  W24      1.0000 0.51872  0.40081  0.53705  Biso   1.000  W
  W25      1.0000 0.26585  0.45124  0.87039  Biso   1.000  W
  W26      1.0000 0.54876  0.81462  0.87039  Biso   1.000  W
  W27      1.0000 0.18538  0.73415  0.87039  Biso   1.000  W
  W28      1.0000 0.06748  0.21543  0.79628  Biso   1.000  W
  W29      1.0000 0.78457  0.85205  0.79628  Biso   1.000  W
  W30      1.0000 0.14795  0.93252  0.79628  Biso   1.000  W
  W31      1.0000 0.73415  0.54876  0.12961  Biso   1.000  W
  W32      1.0000 0.45124  0.18538  0.12961  Biso   1.000  W
  W33      1.0000 0.81462  0.26585  0.12961  Biso   1.000  W
  W34      1.0000 0.40081  0.88210  0.46295  Biso   1.000  W
  W35      1.0000 0.11790  0.51872  0.46295  Biso   1.000  W
  W36      1.0000 0.48128  0.59919  0.46295  Biso   1.000  W
  W37      1.0000 0.15526  0.94236  0.20488  Biso   1.000  W
  W38      1.0000 0.05764  0.21290  0.20488  Biso   1.000  W
  W39      1.0000 0.78710  0.84474  0.20488  Biso   1.000  W
  W40      1.0000 0.82193  0.27569  0.53821  Biso   1.000  W
  W41      1.0000 0.72431  0.54623  0.53821  Biso   1.000  W
  W42      1.0000 0.45377  0.17807  0.53821  Biso   1.000  W
  W43      1.0000 0.48859  0.60903  0.87154  Biso   1.000  W
  W44      1.0000 0.39097  0.87957  0.87154  Biso   1.000  W
  W45      1.0000 0.12043  0.51141  0.87154  Biso   1.000  W
  W46      1.0000 0.84474  0.05764  0.79512  Biso   1.000  W
  W47      1.0000 0.94236  0.78710  0.79512  Biso   1.000  W
  W48      1.0000 0.21290  0.15526  0.79512  Biso   1.000  W
  W49      1.0000 0.51141  0.39097  0.12846  Biso   1.000  W
  W50      1.0000 0.60903  0.12043  0.12846  Biso   1.000  W
  W51      1.0000 0.87957  0.48859  0.12846  Biso   1.000  W
  W52      1.0000 0.17807  0.72431  0.46179  Biso   1.000  W
  W53      1.0000 0.27569  0.45377  0.46179  Biso   1.000  W
  W54      1.0000 0.54623  0.82193  0.46179  Biso   1.000  W
  W55      1.0000 0.90285  0.87419  0.12960  Biso   1.000  W
  W56      1.0000 0.12581  0.02866  0.12960  Biso   1.000  W
  W57      1.0000 0.97134  0.09715  0.12960  Biso   1.000  W
  W58      1.0000 0.56952  0.20752  0.46293  Biso   1.000  W
  W59      1.0000 0.79248  0.36199  0.46293  Biso   1.000  W
  W60      1.0000 0.63801  0.43048  0.46293  Biso   1.000  W
  W61      1.0000 0.23618  0.54086  0.79627  Biso   1.000  W
  W62      1.0000 0.45914  0.69533  0.79627  Biso   1.000  W
  W63      1.0000 0.30467  0.76382  0.79627  Biso   1.000  W
  W64      1.0000 0.09715  0.12581  0.87040  Biso   1.000  W
  W65      1.0000 0.87419  0.97134  0.87040  Biso   1.000  W
  W66      1.0000 0.02866  0.90285  0.87040  Biso   1.000  W
  W67      1.0000 0.76382  0.45914  0.20373  Biso   1.000  W
  W68      1.0000 0.54086  0.30467  0.20373  Biso   1.000  W
  W69      1.0000 0.69533  0.23618  0.20373  Biso   1.000  W
  W70      1.0000 0.43048  0.79248  0.53707  Biso   1.000  W
  W71      1.0000 0.20752  0.63801  0.53707  Biso   1.000  W
  W72      1.0000 0.36199  0.56952  0.53707  Biso   1.000  W
  O1       1.0000 0.05030  0.85560  0.31710  Biso   1.000  O
  O2       1.0000 0.14440  0.19470  0.31710  Biso   1.000  O
  O3       1.0000 0.80530  0.94970  0.31710  Biso   1.000  O
  O4       1.0000 0.71697  0.18893  0.65043  Biso   1.000  O
  O5       1.0000 0.81107  0.52803  0.65043  Biso   1.000  O
  O6       1.0000 0.47197  0.28303  0.65043  Biso   1.000  O
  O7       1.0000 0.38363  0.52227  0.98377  Biso   1.000  O
  O8       1.0000 0.47773  0.86137  0.98377  Biso   1.000  O
  O9       1.0000 0.13863  0.61637  0.98377  Biso   1.000  O
  O10      1.0000 0.94970  0.14440  0.68290  Biso   1.000  O
  O11      1.0000 0.85560  0.80530  0.68290  Biso   1.000  O
  O12      1.0000 0.19470  0.05030  0.68290  Biso   1.000  O
  O13      1.0000 0.61637  0.47773  0.01623  Biso   1.000  O
  O14      1.0000 0.52227  0.13863  0.01623  Biso   1.000  O
  O15      1.0000 0.86137  0.38363  0.01623  Biso   1.000  O
  O16      1.0000 0.28303  0.81107  0.34957  Biso   1.000  O
  O17      1.0000 0.18893  0.47197  0.34957  Biso   1.000  O
  O18      1.0000 0.52803  0.71697  0.34957  Biso   1.000  O
  O19      1.0000 0.87070  0.83220  0.08820  Biso   1.000  O
  O20      1.0000 0.16780  0.03850  0.08820  Biso   1.000  O
  O21      1.0000 0.96150  0.12930  0.08820  Biso   1.000  O
  O22      1.0000 0.53737  0.16553  0.42153  Biso   1.000  O
  O23      1.0000 0.83447  0.37183  0.42153  Biso   1.000  O
  O24      1.0000 0.62817  0.46263  0.42153  Biso   1.000  O
  O25      1.0000 0.20403  0.49887  0.75487  Biso   1.000  O
  O26      1.0000 0.50113  0.70517  0.75487  Biso   1.000  O
  O27      1.0000 0.29483  0.79597  0.75487  Biso   1.000  O
  O28      1.0000 0.12930  0.16780  0.91180  Biso   1.000  O
  O29      1.0000 0.83220  0.96150  0.91180  Biso   1.000  O
  O30      1.0000 0.03850  0.87070  0.91180  Biso   1.000  O
  O31      1.0000 0.79597  0.50113  0.24513  Biso   1.000  O
  O32      1.0000 0.49887  0.29483  0.24513  Biso   1.000  O
  O33      1.0000 0.70517  0.20403  0.24513  Biso   1.000  O
  O34      1.0000 0.46263  0.83447  0.57847  Biso   1.000  O
  O35      1.0000 0.16553  0.62817  0.57847  Biso   1.000  O
  O36      1.0000 0.37183  0.53737  0.57847  Biso   1.000  O
  O37      1.0000 0.21550  0.89960  0.20990  Biso   1.000  O
  O38      1.0000 0.10040  0.31590  0.20990  Biso   1.000  O
  O39      1.0000 0.68410  0.78450  0.20990  Biso   1.000  O
  O40      1.0000 0.88217  0.23293  0.54323  Biso   1.000  O
  O41      1.0000 0.76707  0.64923  0.54323  Biso   1.000  O
  O42      1.0000 0.35077  0.11783  0.54323  Biso   1.000  O
  O43      1.0000 0.54883  0.56627  0.87657  Biso   1.000  O
  O44      1.0000 0.43373  0.98257  0.87657  Biso   1.000  O
  O45      1.0000 0.01743  0.45117  0.87657  Biso   1.000  O
  O46      1.0000 0.78450  0.10040  0.79010  Biso   1.000  O
  O47      1.0000 0.89960  0.68410  0.79010  Biso   1.000  O
  O48      1.0000 0.31590  0.21550  0.79010  Biso   1.000  O
  O49      1.0000 0.45117  0.43373  0.12343  Biso   1.000  O
  O50      1.0000 0.56627  0.01743  0.12343  Biso   1.000  O
  O51      1.0000 0.98257  0.54883  0.12343  Biso   1.000  O
  O52      1.0000 0.11783  0.76707  0.45677  Biso   1.000  O
  O53      1.0000 0.23293  0.35077  0.45677  Biso   1.000  O
  O54      1.0000 0.64923  0.88217  0.45677  Biso   1.000  O
  O55      1.0000 0.00000  0.00000  0.24730  Biso   1.000  O
  O56      1.0000 0.66667  0.33333  0.58063  Biso   1.000  O
  O57      1.0000 0.33333  0.66667  0.91397  Biso   1.000  O
  O58      1.0000 0.00000  0.00000  0.75270  Biso   1.000  O
  O59      1.0000 0.66667  0.33333  0.08603  Biso   1.000  O
  O60      1.0000 0.33333  0.66667  0.41937  Biso   1.000  O
  O61      1.0000 0.96110  0.82860  0.25190  Biso   1.000  O
  O62      1.0000 0.17140  0.13250  0.25190  Biso   1.000  O
  O63      1.0000 0.86750  0.03890  0.25190  Biso   1.000  O
  O64      1.0000 0.62777  0.16193  0.58523  Biso   1.000  O
  O65      1.0000 0.83807  0.46583  0.58523  Biso   1.000  O
  O66      1.0000 0.53417  0.37223  0.58523  Biso   1.000  O
  O67      1.0000 0.29443  0.49527  0.91857  Biso   1.000  O
  O68      1.0000 0.50473  0.79917  0.91857  Biso   1.000  O
  O69      1.0000 0.20083  0.70557  0.91857  Biso   1.000  O
  O70      1.0000 0.03890  0.17140  0.74810  Biso   1.000  O
  O71      1.0000 0.82860  0.86750  0.74810  Biso   1.000  O
  O72      1.0000 0.13250  0.96110  0.74810  Biso   1.000  O
  O73      1.0000 0.70557  0.50473  0.08143  Biso   1.000  O
  O74      1.0000 0.49527  0.20083  0.08143  Biso   1.000  O
  O75      1.0000 0.79917  0.29443  0.08143  Biso   1.000  O
  O76      1.0000 0.37223  0.83807  0.41477  Biso   1.000  O
  O77      1.0000 0.16193  0.53417  0.41477  Biso   1.000  O
  O78      1.0000 0.46583  0.62777  0.41477  Biso   1.000  O
  O79      1.0000 0.82390  0.76710  0.21240  Biso   1.000  O
  O80      1.0000 0.23290  0.05680  0.21240  Biso   1.000  O
  O81      1.0000 0.94320  0.17610  0.21240  Biso   1.000  O
  O82      1.0000 0.49057  0.10043  0.54573  Biso   1.000  O
  O83      1.0000 0.89957  0.39013  0.54573  Biso   1.000  O
  O84      1.0000 0.60987  0.50943  0.54573  Biso   1.000  O
  O85      1.0000 0.15723  0.43377  0.87907  Biso   1.000  O
  O86      1.0000 0.56623  0.72347  0.87907  Biso   1.000  O
  O87      1.0000 0.27653  0.84277  0.87907  Biso   1.000  O
  O88      1.0000 0.17610  0.23290  0.78760  Biso   1.000  O
  O89      1.0000 0.76710  0.94320  0.78760  Biso   1.000  O
  O90      1.0000 0.05680  0.82390  0.78760  Biso   1.000  O
  O91      1.0000 0.84277  0.56623  0.12093  Biso   1.000  O
  O92      1.0000 0.43377  0.27653  0.12093  Biso   1.000  O
  O93      1.0000 0.72347  0.15723  0.12093  Biso   1.000  O
  O94      1.0000 0.50943  0.89957  0.45427  Biso   1.000  O
  O95      1.0000 0.10043  0.60987  0.45427  Biso   1.000  O
  O96      1.0000 0.39013  0.49057  0.45427  Biso   1.000  O
  O97      1.0000 0.91180  0.97890  0.12500  Biso   1.000  O
  O98      1.0000 0.02110  0.93290  0.12500  Biso   1.000  O
  O99      1.0000 0.06710  0.08820  0.12500  Biso   1.000  O
  O100     1.0000 0.57847  0.31223  0.45833  Biso   1.000  O
  O101     1.0000 0.68777  0.26623  0.45833  Biso   1.000  O
  O102     1.0000 0.73377  0.42153  0.45833  Biso   1.000  O
  O103     1.0000 0.24513  0.64557  0.79167  Biso   1.000  O
  O104     1.0000 0.35443  0.59957  0.79167  Biso   1.000  O
  O105     1.0000 0.40043  0.75487  0.79167  Biso   1.000  O
  O106     1.0000 0.08820  0.02110  0.87500  Biso   1.000  O
  O107     1.0000 0.97890  0.06710  0.87500  Biso   1.000  O
  O108     1.0000 0.93290  0.91180  0.87500  Biso   1.000  O
  O109     1.0000 0.75487  0.35443  0.20833  Biso   1.000  O
  O110     1.0000 0.64557  0.40043  0.20833  Biso   1.000  O
  O111     1.0000 0.59957  0.24513  0.20833  Biso   1.000  O
  O112     1.0000 0.42153  0.68777  0.54167  Biso   1.000  O
  O113     1.0000 0.31223  0.73377  0.54167  Biso   1.000  O
  O114     1.0000 0.26623  0.57847  0.54167  Biso   1.000  O
  O115     1.0000 0.91840  0.68730  0.20910  Biso   1.000  O
  O116     1.0000 0.31270  0.23110  0.20910  Biso   1.000  O
  O117     1.0000 0.76890  0.08160  0.20910  Biso   1.000  O
  O118     1.0000 0.58507  0.02063  0.54243  Biso   1.000  O
  O119     1.0000 0.97937  0.56443  0.54243  Biso   1.000  O
  O120     1.0000 0.43557  0.41493  0.54243  Biso   1.000  O
  O121     1.0000 0.25173  0.35397  0.87577  Biso   1.000  O
  O122     1.0000 0.64603  0.89777  0.87577  Biso   1.000  O
  O123     1.0000 0.10223  0.74827  0.87577  Biso   1.000  O
  O124     1.0000 0.08160  0.31270  0.79090  Biso   1.000  O
  O125     1.0000 0.68730  0.76890  0.79090  Biso   1.000  O
  O126     1.0000 0.23110  0.91840  0.79090  Biso   1.000  O
  O127     1.0000 0.74827  0.64603  0.12423  Biso   1.000  O
  O128     1.0000 0.35397  0.10223  0.12423  Biso   1.000  O
  O129     1.0000 0.89777  0.25173  0.12423  Biso   1.000  O
  O130     1.0000 0.41493  0.97937  0.45757  Biso   1.000  O
  O131     1.0000 0.02063  0.43557  0.45757  Biso   1.000  O
  O132     1.0000 0.56443  0.58507  0.45757  Biso   1.000  O
  O133     1.0000 0.80150  0.83470  0.15465  Biso   1.000  O
  O134     1.0000 0.16530  0.96680  0.15465  Biso   1.000  O
  O135     1.0000 0.03320  0.19850  0.15465  Biso   1.000  O
  O136     1.0000 0.46817  0.16803  0.48798  Biso   1.000  O
  O137     1.0000 0.83197  0.30013  0.48798  Biso   1.000  O
  O138     1.0000 0.69987  0.53183  0.48798  Biso   1.000  O
  O139     1.0000 0.13483  0.50137  0.82132  Biso   1.000  O
  O140     1.0000 0.49863  0.63347  0.82132  Biso   1.000  O
  O141     1.0000 0.36653  0.86517  0.82132  Biso   1.000  O
  O142     1.0000 0.19850  0.16530  0.84535  Biso   1.000  O
  O143     1.0000 0.83470  0.03320  0.84535  Biso   1.000  O
  O144     1.0000 0.96680  0.80150  0.84535  Biso   1.000  O
  O145     1.0000 0.86517  0.49863  0.17868  Biso   1.000  O
  O146     1.0000 0.50137  0.36653  0.17868  Biso   1.000  O
  O147     1.0000 0.63347  0.13483  0.17868  Biso   1.000  O
  O148     1.0000 0.53183  0.83197  0.51202  Biso   1.000  O
  O149     1.0000 0.16803  0.69987  0.51202  Biso   1.000  O
  O150     1.0000 0.30013  0.46817  0.51202  Biso   1.000  O
  O151     1.0000 0.91420  0.78860  0.15410  Biso   1.000  O
  O152     1.0000 0.21140  0.12560  0.15410  Biso   1.000  O
  O153     1.0000 0.87440  0.08580  0.15410  Biso   1.000  O
  O154     1.0000 0.58087  0.12193  0.48743  Biso   1.000  O
  O155     1.0000 0.87807  0.45893  0.48743  Biso   1.000  O
  O156     1.0000 0.54107  0.41913  0.48743  Biso   1.000  O
  O157     1.0000 0.24753  0.45527  0.82077  Biso   1.000  O
  O158     1.0000 0.54473  0.79227  0.82077  Biso   1.000  O
  O159     1.0000 0.20773  0.75247  0.82077  Biso   1.000  O
  O160     1.0000 0.08580  0.21140  0.84590  Biso   1.000  O
  O161     1.0000 0.78860  0.87440  0.84590  Biso   1.000  O
  O162     1.0000 0.12560  0.91420  0.84590  Biso   1.000  O
  O163     1.0000 0.75247  0.54473  0.17923  Biso   1.000  O
  O164     1.0000 0.45527  0.20773  0.17923  Biso   1.000  O
  O165     1.0000 0.79227  0.24753  0.17923  Biso   1.000  O
  O166     1.0000 0.41913  0.87807  0.51257  Biso   1.000  O
  O167     1.0000 0.12193  0.54107  0.51257  Biso   1.000  O
  O168     1.0000 0.45893  0.58087  0.51257  Biso   1.000  O
  O169     1.0000 0.11540  0.93920  0.25222  Biso   1.000  O
  O170     1.0000 0.06080  0.17620  0.25222  Biso   1.000  O
  O171     1.0000 0.82380  0.88460  0.25222  Biso   1.000  O
  O172     1.0000 0.78207  0.27253  0.58555  Biso   1.000  O
  O173     1.0000 0.72747  0.50953  0.58555  Biso   1.000  O
  O174     1.0000 0.49047  0.21793  0.58555  Biso   1.000  O
  O175     1.0000 0.44873  0.60587  0.91889  Biso   1.000  O
  O176     1.0000 0.39413  0.84287  0.91889  Biso   1.000  O
  O177     1.0000 0.15713  0.55127  0.91889  Biso   1.000  O
  O178     1.0000 0.88460  0.06080  0.74778  Biso   1.000  O
  O179     1.0000 0.93920  0.82380  0.74778  Biso   1.000  O
  O180     1.0000 0.17620  0.11540  0.74778  Biso   1.000  O
  O181     1.0000 0.55127  0.39413  0.08111  Biso   1.000  O
  O182     1.0000 0.60587  0.15713  0.08111  Biso   1.000  O
  O183     1.0000 0.84287  0.44873  0.08111  Biso   1.000  O
  O184     1.0000 0.21793  0.72747  0.41445  Biso   1.000  O
  O185     1.0000 0.27253  0.49047  0.41445  Biso   1.000  O
  O186     1.0000 0.50953  0.78207  0.41445  Biso   1.000  O
  O187     1.0000 0.93230  0.91070  0.30370  Biso   1.000  O
  O188     1.0000 0.08930  0.02160  0.30370  Biso   1.000  O
  O189     1.0000 0.97840  0.06770  0.30370  Biso   1.000  O
  O190     1.0000 0.59897  0.24403  0.63703  Biso   1.000  O
  O191     1.0000 0.75597  0.35493  0.63703  Biso   1.000  O
  O192     1.0000 0.64507  0.40103  0.63703  Biso   1.000  O
  O193     1.0000 0.26563  0.57737  0.97037  Biso   1.000  O
  O194     1.0000 0.42263  0.68827  0.97037  Biso   1.000  O
  O195     1.0000 0.31173  0.73437  0.97037  Biso   1.000  O
  O196     1.0000 0.06770  0.08930  0.69630  Biso   1.000  O
  O197     1.0000 0.91070  0.97840  0.69630  Biso   1.000  O
  O198     1.0000 0.02160  0.93230  0.69630  Biso   1.000  O
  O199     1.0000 0.73437  0.42263  0.02963  Biso   1.000  O
  O200     1.0000 0.57737  0.31173  0.02963  Biso   1.000  O
  O201     1.0000 0.68827  0.26563  0.02963  Biso   1.000  O
  O202     1.0000 0.40103  0.75597  0.36297  Biso   1.000  O
  O203     1.0000 0.24403  0.64507  0.36297  Biso   1.000  O
  O204     1.0000 0.35493  0.59897  0.36297  Biso   1.000  O
  O205     1.0000 0.93560  0.91450  0.19233  Biso   1.000  O
  O206     1.0000 0.08550  0.02110  0.19233  Biso   1.000  O
  O207     1.0000 0.97890  0.06440  0.19233  Biso   1.000  O
  O208     1.0000 0.60227  0.24783  0.52566  Biso   1.000  O
  O209     1.0000 0.75217  0.35443  0.52566  Biso   1.000  O
  O210     1.0000 0.64557  0.39773  0.52566  Biso   1.000  O
  O211     1.0000 0.26893  0.58117  0.85900  Biso   1.000  O
  O212     1.0000 0.41883  0.68777  0.85900  Biso   1.000  O
  O213     1.0000 0.31223  0.73107  0.85900  Biso   1.000  O
  O214     1.0000 0.06440  0.08550  0.80767  Biso   1.000  O
  O215     1.0000 0.91450  0.97890  0.80767  Biso   1.000  O
  O216     1.0000 0.02110  0.93560  0.80767  Biso   1.000  O
  O217     1.0000 0.73107  0.41883  0.14100  Biso   1.000  O
  O218     1.0000 0.58117  0.31223  0.14100  Biso   1.000  O
  O219     1.0000 0.68777  0.26893  0.14100  Biso   1.000  O
  O220     1.0000 0.39773  0.75217  0.47434  Biso   1.000  O
  O221     1.0000 0.24783  0.64557  0.47434  Biso   1.000  O
  O222     1.0000 0.35443  0.60227  0.47434  Biso   1.000  O
  O223     1.0000 0.04890  0.84960  0.19580  Biso   1.000  O
  O224     1.0000 0.15040  0.19930  0.19580  Biso   1.000  O
  O225     1.0000 0.80070  0.95110  0.19580  Biso   1.000  O
  O226     1.0000 0.71557  0.18293  0.52913  Biso   1.000  O
  O227     1.0000 0.81707  0.53263  0.52913  Biso   1.000  O
  O228     1.0000 0.46737  0.28443  0.52913  Biso   1.000  O
  O229     1.0000 0.38223  0.51627  0.86247  Biso   1.000  O
  O230     1.0000 0.48373  0.86597  0.86247  Biso   1.000  O
  O231     1.0000 0.13403  0.61777  0.86247  Biso   1.000  O
  O232     1.0000 0.95110  0.15040  0.80420  Biso   1.000  O
  O233     1.0000 0.84960  0.80070  0.80420  Biso   1.000  O
  O234     1.0000 0.19930  0.04890  0.80420  Biso   1.000  O
  O235     1.0000 0.61777  0.48373  0.13753  Biso   1.000  O
  O236     1.0000 0.51627  0.13403  0.13753  Biso   1.000  O
  O237     1.0000 0.86597  0.38223  0.13753  Biso   1.000  O
  O238     1.0000 0.28443  0.81707  0.47087  Biso   1.000  O
  O239     1.0000 0.18293  0.46737  0.47087  Biso   1.000  O
  O240     1.0000 0.53263  0.71557  0.47087  Biso   1.000  O
  Cu1      1.0000 0.16670  0.83330  0.33330  Biso   1.000  Cu
  Cu2      1.0000 0.16670  0.33340  0.33330  Biso   1.000  Cu
  Cu3      1.0000 0.66660  0.83330  0.33330  Biso   1.000  Cu
  Cu4      1.0000 0.83337  0.16663  0.66663  Biso   1.000  Cu
  Cu5      1.0000 0.83337  0.66673  0.66663  Biso   1.000  Cu
  Cu6      1.0000 0.33327  0.16663  0.66663  Biso   1.000  Cu
  Cu7      1.0000 0.50003  0.49997  0.99997  Biso   1.000  Cu
  Cu8      1.0000 0.50003  0.00007  0.99997  Biso   1.000  Cu
  Cu9      1.0000 0.99993  0.49997  0.99997  Biso   1.000  Cu
  C1       1.0000 0.98100  0.22850  0.32400  Biso   1.000  C
  C2       1.0000 0.77150  0.75250  0.32400  Biso   1.000  C
  C3       1.0000 0.24750  0.01900  0.32400  Biso   1.000  C
  C4       1.0000 0.64767  0.56183  0.65733  Biso   1.000  C
  C5       1.0000 0.43817  0.08583  0.65733  Biso   1.000  C
  C6       1.0000 0.91417  0.35233  0.65733  Biso   1.000  C
  C7       1.0000 0.31433  0.89517  0.99067  Biso   1.000  C
  C8       1.0000 0.10483  0.41917  0.99067  Biso   1.000  C
  C9       1.0000 0.58083  0.68567  0.99067  Biso   1.000  C
  C10      1.0000 0.01900  0.77150  0.67600  Biso   1.000  C
  C11      1.0000 0.22850  0.24750  0.67600  Biso   1.000  C
  C12      1.0000 0.75250  0.98100  0.67600  Biso   1.000  C
  C13      1.0000 0.68567  0.10483  0.00933  Biso   1.000  C
  C14      1.0000 0.89517  0.58083  0.00933  Biso   1.000  C
  C15      1.0000 0.41917  0.31433  0.00933  Biso   1.000  C
  C16      1.0000 0.35233  0.43817  0.34267  Biso   1.000  C
  C17      1.0000 0.56183  0.91417  0.34267  Biso   1.000  C
  C18      1.0000 0.08583  0.64767  0.34267  Biso   1.000  C
  H1       1.0000 0.97630  0.19150  0.34180  Biso   1.000  H
  H2       1.0000 0.80850  0.78480  0.34180  Biso   1.000  H
  H3       1.0000 0.21520  0.02370  0.34180  Biso   1.000  H
  H4       1.0000 0.64297  0.52483  0.67513  Biso   1.000  H
  H5       1.0000 0.47517  0.11813  0.67513  Biso   1.000  H
  H6       1.0000 0.88187  0.35703  0.67513  Biso   1.000  H
  H7       1.0000 0.30963  0.85817  0.00847  Biso   1.000  H
  H8       1.0000 0.14183  0.45147  0.00847  Biso   1.000  H
  H9       1.0000 0.54853  0.69037  0.00847  Biso   1.000  H
  H10      1.0000 0.02370  0.80850  0.65820  Biso   1.000  H
  H11      1.0000 0.19150  0.21520  0.65820  Biso   1.000  H
  H12      1.0000 0.78480  0.97630  0.65820  Biso   1.000  H
  H13      1.0000 0.69037  0.14183  0.99153  Biso   1.000  H
  H14      1.0000 0.85817  0.54853  0.99153  Biso   1.000  H
  H15      1.0000 0.45147  0.30963  0.99153  Biso   1.000  H
  H16      1.0000 0.35703  0.47517  0.32487  Biso   1.000  H
  H17      1.0000 0.52483  0.88187  0.32487  Biso   1.000  H
  H18      1.0000 0.11813  0.64297  0.32487  Biso   1.000  H
  C19      1.0000 0.03290  0.33210  0.28920  Biso   1.000  C
  C20      1.0000 0.66790  0.70080  0.28920  Biso   1.000  C
  C21      1.0000 0.29920  0.96710  0.28920  Biso   1.000  C
  C22      1.0000 0.69957  0.66543  0.62253  Biso   1.000  C
  C23      1.0000 0.33457  0.03413  0.62253  Biso   1.000  C
  C24      1.0000 0.96587  0.30043  0.62253  Biso   1.000  C
  C25      1.0000 0.36623  0.99877  0.95587  Biso   1.000  C
  C26      1.0000 0.00123  0.36747  0.95587  Biso   1.000  C
  C27      1.0000 0.63253  0.63377  0.95587  Biso   1.000  C
  C28      1.0000 0.96710  0.66790  0.71080  Biso   1.000  C
  C29      1.0000 0.33210  0.29920  0.71080  Biso   1.000  C
  C30      1.0000 0.70080  0.03290  0.71080  Biso   1.000  C
  C31      1.0000 0.63377  0.00123  0.04413  Biso   1.000  C
  C32      1.0000 0.99877  0.63253  0.04413  Biso   1.000  C
  C33      1.0000 0.36747  0.36623  0.04413  Biso   1.000  C
  C34      1.0000 0.30043  0.33457  0.37747  Biso   1.000  C
  C35      1.0000 0.66543  0.96587  0.37747  Biso   1.000  C
  C36      1.0000 0.03413  0.69957  0.37747  Biso   1.000  C
  H19      1.0000 0.06960  0.38080  0.27740  Biso   1.000  H
  H20      1.0000 0.61920  0.68880  0.27740  Biso   1.000  H
  H21      1.0000 0.31120  0.93040  0.27740  Biso   1.000  H
  H22      1.0000 0.73627  0.71413  0.61073  Biso   1.000  H
  H23      1.0000 0.28587  0.02213  0.61073  Biso   1.000  H
  H24      1.0000 0.97787  0.26373  0.61073  Biso   1.000  H
  H25      1.0000 0.40293  0.04747  0.94407  Biso   1.000  H
  H26      1.0000 0.95253  0.35547  0.94407  Biso   1.000  H
  H27      1.0000 0.64453  0.59707  0.94407  Biso   1.000  H
  H28      1.0000 0.93040  0.61920  0.72260  Biso   1.000  H
  H29      1.0000 0.38080  0.31120  0.72260  Biso   1.000  H
  H30      1.0000 0.68880  0.06960  0.72260  Biso   1.000  H
  H31      1.0000 0.59707  0.95253  0.05593  Biso   1.000  H
  H32      1.0000 0.04747  0.64453  0.05593  Biso   1.000  H
  H33      1.0000 0.35547  0.40293  0.05593  Biso   1.000  H
  H34      1.0000 0.26373  0.28587  0.38927  Biso   1.000  H
  H35      1.0000 0.71413  0.97787  0.38927  Biso   1.000  H
  H36      1.0000 0.02213  0.73627  0.38927  Biso   1.000  H
  C37      1.0000 0.10360  0.74090  0.26330  Biso   1.000  C
  C38      1.0000 0.25910  0.36270  0.26330  Biso   1.000  C
  C39      1.0000 0.63730  0.89640  0.26330  Biso   1.000  C
  C40      1.0000 0.77027  0.07423  0.59663  Biso   1.000  C
  C41      1.0000 0.92577  0.69603  0.59663  Biso   1.000  C
  C42      1.0000 0.30397  0.22973  0.59663  Biso   1.000  C
  C43      1.0000 0.43693  0.40757  0.92997  Biso   1.000  C
  C44      1.0000 0.59243  0.02937  0.92997  Biso   1.000  C
  C45      1.0000 0.97063  0.56307  0.92997  Biso   1.000  C
  C46      1.0000 0.89640  0.25910  0.73670  Biso   1.000  C
  C47      1.0000 0.74090  0.63730  0.73670  Biso   1.000  C
  C48      1.0000 0.36270  0.10360  0.73670  Biso   1.000  C
  C49      1.0000 0.56307  0.59243  0.07003  Biso   1.000  C
  C50      1.0000 0.40757  0.97063  0.07003  Biso   1.000  C
  C51      1.0000 0.02937  0.43693  0.07003  Biso   1.000  C
  C52      1.0000 0.22973  0.92577  0.40337  Biso   1.000  C
  C53      1.0000 0.07423  0.30397  0.40337  Biso   1.000  C
  C54      1.0000 0.69603  0.77027  0.40337  Biso   1.000  C
  H37      1.0000 0.05340  0.73970  0.26500  Biso   1.000  H
  H38      1.0000 0.26030  0.31370  0.26500  Biso   1.000  H
  H39      1.0000 0.68630  0.94660  0.26500  Biso   1.000  H
  H40      1.0000 0.72007  0.07303  0.59833  Biso   1.000  H
  H41      1.0000 0.92697  0.64703  0.59833  Biso   1.000  H
  H42      1.0000 0.35297  0.27993  0.59833  Biso   1.000  H
  H43      1.0000 0.38673  0.40637  0.93167  Biso   1.000  H
  H44      1.0000 0.59363  0.98037  0.93167  Biso   1.000  H
  H45      1.0000 0.01963  0.61327  0.93167  Biso   1.000  H
  H46      1.0000 0.94660  0.26030  0.73500  Biso   1.000  H
  H47      1.0000 0.73970  0.68630  0.73500  Biso   1.000  H
  H48      1.0000 0.31370  0.05340  0.73500  Biso   1.000  H
  H49      1.0000 0.61327  0.59363  0.06833  Biso   1.000  H
  H50      1.0000 0.40637  0.01963  0.06833  Biso   1.000  H
  H51      1.0000 0.98037  0.38673  0.06833  Biso   1.000  H
  H52      1.0000 0.27993  0.92697  0.40167  Biso   1.000  H
  H53      1.0000 0.07303  0.35297  0.40167  Biso   1.000  H
  H54      1.0000 0.64703  0.72007  0.40167  Biso   1.000  H
  C55      1.0000 0.22440  0.76760  0.27240  Biso   1.000  C
  C56      1.0000 0.23240  0.45680  0.27240  Biso   1.000  C
  C57      1.0000 0.54320  0.77560  0.27240  Biso   1.000  C
  C58      1.0000 0.89107  0.10093  0.60573  Biso   1.000  C
  C59      1.0000 0.89907  0.79013  0.60573  Biso   1.000  C
  C60      1.0000 0.20987  0.10893  0.60573  Biso   1.000  C
  C61      1.0000 0.55773  0.43427  0.93907  Biso   1.000  C
  C62      1.0000 0.56573  0.12347  0.93907  Biso   1.000  C
  C63      1.0000 0.87653  0.44227  0.93907  Biso   1.000  C
  C64      1.0000 0.77560  0.23240  0.72760  Biso   1.000  C
  C65      1.0000 0.76760  0.54320  0.72760  Biso   1.000  C
  C66      1.0000 0.45680  0.22440  0.72760  Biso   1.000  C
  C67      1.0000 0.44227  0.56573  0.06093  Biso   1.000  C
  C68      1.0000 0.43427  0.87653  0.06093  Biso   1.000  C
  C69      1.0000 0.12347  0.55773  0.06093  Biso   1.000  C
  C70      1.0000 0.10893  0.89907  0.39427  Biso   1.000  C
  C71      1.0000 0.10093  0.20987  0.39427  Biso   1.000  C
  C72      1.0000 0.79013  0.89107  0.39427  Biso   1.000  C
  H55      1.0000 0.27690  0.78980  0.28240  Biso   1.000  H
  H56      1.0000 0.21020  0.48710  0.28240  Biso   1.000  H
  H57      1.0000 0.51290  0.72310  0.28240  Biso   1.000  H
  H58      1.0000 0.94357  0.12313  0.61573  Biso   1.000  H
  H59      1.0000 0.87687  0.82043  0.61573  Biso   1.000  H
  H60      1.0000 0.17957  0.05643  0.61573  Biso   1.000  H
  H61      1.0000 0.61023  0.45647  0.94907  Biso   1.000  H
  H62      1.0000 0.54353  0.15377  0.94907  Biso   1.000  H
  H63      1.0000 0.84623  0.38977  0.94907  Biso   1.000  H
  H64      1.0000 0.72310  0.21020  0.71760  Biso   1.000  H
  H65      1.0000 0.78980  0.51290  0.71760  Biso   1.000  H
  H66      1.0000 0.48710  0.27690  0.71760  Biso   1.000  H
  H67      1.0000 0.38977  0.54353  0.05093  Biso   1.000  H
  H68      1.0000 0.45647  0.84623  0.05093  Biso   1.000  H
  H69      1.0000 0.15377  0.61023  0.05093  Biso   1.000  H
  H70      1.0000 0.05643  0.87687  0.38427  Biso   1.000  H
  H71      1.0000 0.12313  0.17957  0.38427  Biso   1.000  H
  H72      1.0000 0.82043  0.94357  0.38427  Biso   1.000  H
  C73      1.0000 0.06900  0.64450  0.21080  Biso   1.000  C
  C74      1.0000 0.35550  0.42450  0.21080  Biso   1.000  C
  C75      1.0000 0.57550  0.93100  0.21080  Biso   1.000  C
  C76      1.0000 0.73567  0.97783  0.54413  Biso   1.000  C
  C77      1.0000 0.02217  0.75783  0.54413  Biso   1.000  C
  C78      1.0000 0.24217  0.26433  0.54413  Biso   1.000  C
  C79      1.0000 0.40233  0.31117  0.87747  Biso   1.000  C
  C80      1.0000 0.68883  0.09117  0.87747  Biso   1.000  C
  C81      1.0000 0.90883  0.59767  0.87747  Biso   1.000  C
  C82      1.0000 0.93100  0.35550  0.78920  Biso   1.000  C
  C83      1.0000 0.64450  0.57550  0.78920  Biso   1.000  C
  C84      1.0000 0.42450  0.06900  0.78920  Biso   1.000  C
  C85      1.0000 0.59767  0.68883  0.12253  Biso   1.000  C
  C86      1.0000 0.31117  0.90883  0.12253  Biso   1.000  C
  C87      1.0000 0.09117  0.40233  0.12253  Biso   1.000  C
  C88      1.0000 0.26433  0.02217  0.45587  Biso   1.000  C
  C89      1.0000 0.97783  0.24217  0.45587  Biso   1.000  C
  C90      1.0000 0.75783  0.73567  0.45587  Biso   1.000  C
  H73      1.0000 0.10200  0.65060  0.18980  Biso   1.000  H
  H74      1.0000 0.34940  0.45140  0.18980  Biso   1.000  H
  H75      1.0000 0.54860  0.89800  0.18980  Biso   1.000  H
  H76      1.0000 0.76867  0.98393  0.52313  Biso   1.000  H
  H77      1.0000 0.01607  0.78473  0.52313  Biso   1.000  H
  H78      1.0000 0.21527  0.23133  0.52313  Biso   1.000  H
  H79      1.0000 0.43533  0.31727  0.85647  Biso   1.000  H
  H80      1.0000 0.68273  0.11807  0.85647  Biso   1.000  H
  H81      1.0000 0.88193  0.56467  0.85647  Biso   1.000  H
  H82      1.0000 0.89800  0.34940  0.81020  Biso   1.000  H
  H83      1.0000 0.65060  0.54860  0.81020  Biso   1.000  H
  H84      1.0000 0.45140  0.10200  0.81020  Biso   1.000  H
  H85      1.0000 0.56467  0.68273  0.14353  Biso   1.000  H
  H86      1.0000 0.31727  0.88193  0.14353  Biso   1.000  H
  H87      1.0000 0.11807  0.43533  0.14353  Biso   1.000  H
  H88      1.0000 0.23133  0.01607  0.47687  Biso   1.000  H
  H89      1.0000 0.98393  0.21527  0.47687  Biso   1.000  H
  H90      1.0000 0.78473  0.76867  0.47687  Biso   1.000  H
  H91      1.0000 0.02610  0.65680  0.20390  Biso   1.000  H
  H92      1.0000 0.34320  0.36930  0.20390  Biso   1.000  H
  H93      1.0000 0.63070  0.97390  0.20390  Biso   1.000  H
  H94      1.0000 0.69277  0.99013  0.53723  Biso   1.000  H
  H95      1.0000 0.00987  0.70263  0.53723  Biso   1.000  H
  H96      1.0000 0.29737  0.30723  0.53723  Biso   1.000  H
  H97      1.0000 0.35943  0.32347  0.87057  Biso   1.000  H
  H98      1.0000 0.67653  0.03597  0.87057  Biso   1.000  H
  H99      1.0000 0.96403  0.64057  0.87057  Biso   1.000  H
  H100     1.0000 0.97390  0.34320  0.79610  Biso   1.000  H
  H101     1.0000 0.65680  0.63070  0.79610  Biso   1.000  H
  H102     1.0000 0.36930  0.02610  0.79610  Biso   1.000  H
  H103     1.0000 0.64057  0.67653  0.12943  Biso   1.000  H
  H104     1.0000 0.32347  0.96403  0.12943  Biso   1.000  H
  H105     1.0000 0.03597  0.35943  0.12943  Biso   1.000  H
  H106     1.0000 0.30723  0.00987  0.46277  Biso   1.000  H
  H107     1.0000 0.99013  0.29737  0.46277  Biso   1.000  H
  H108     1.0000 0.70263  0.69277  0.46277  Biso   1.000  H
  C91      1.0000 0.03010  0.55820  0.22400  Biso   1.000  C
  C92      1.0000 0.44180  0.47190  0.22400  Biso   1.000  C
  C93      1.0000 0.52810  0.96990  0.22400  Biso   1.000  C
  C94      1.0000 0.69677  0.89153  0.55733  Biso   1.000  C
  C95      1.0000 0.10847  0.80523  0.55733  Biso   1.000  C
  C96      1.0000 0.19477  0.30323  0.55733  Biso   1.000  C
  C97      1.0000 0.36343  0.22487  0.89067  Biso   1.000  C
  C98      1.0000 0.77513  0.13857  0.89067  Biso   1.000  C
  C99      1.0000 0.86143  0.63657  0.89067  Biso   1.000  C
  C100     1.0000 0.96990  0.44180  0.77600  Biso   1.000  C
  C101     1.0000 0.55820  0.52810  0.77600  Biso   1.000  C
  C102     1.0000 0.47190  0.03010  0.77600  Biso   1.000  C
  C103     1.0000 0.63657  0.77513  0.10933  Biso   1.000  C
  C104     1.0000 0.22487  0.86143  0.10933  Biso   1.000  C
  C105     1.0000 0.13857  0.36343  0.10933  Biso   1.000  C
  C106     1.0000 0.30323  0.10847  0.44267  Biso   1.000  C
  C107     1.0000 0.89153  0.19477  0.44267  Biso   1.000  C
  C108     1.0000 0.80523  0.69677  0.44267  Biso   1.000  C
  C109     1.0000 0.03160  0.49690  0.20320  Biso   1.000  C
  C110     1.0000 0.50310  0.53470  0.20320  Biso   1.000  C
  C111     1.0000 0.46530  0.96840  0.20320  Biso   1.000  C
  C112     1.0000 0.69827  0.83023  0.53653  Biso   1.000  C
  C113     1.0000 0.16977  0.86803  0.53653  Biso   1.000  C
  C114     1.0000 0.13197  0.30173  0.53653  Biso   1.000  C
  C115     1.0000 0.36493  0.16357  0.86987  Biso   1.000  C
  C116     1.0000 0.83643  0.20137  0.86987  Biso   1.000  C
  C117     1.0000 0.79863  0.63507  0.86987  Biso   1.000  C
  C118     1.0000 0.96840  0.50310  0.79680  Biso   1.000  C
  C119     1.0000 0.49690  0.46530  0.79680  Biso   1.000  C
  C120     1.0000 0.53470  0.03160  0.79680  Biso   1.000  C
  C121     1.0000 0.63507  0.83643  0.13013  Biso   1.000  C
  C122     1.0000 0.16357  0.79863  0.13013  Biso   1.000  C
  C123     1.0000 0.20137  0.36493  0.13013  Biso   1.000  C
  C124     1.0000 0.30173  0.16977  0.46347  Biso   1.000  C
  C125     1.0000 0.83023  0.13197  0.46347  Biso   1.000  C
  C126     1.0000 0.86803  0.69827  0.46347  Biso   1.000  C
  H109     1.0000 0.06130  0.51140  0.18190  Biso   1.000  H
  H110     1.0000 0.48860  0.54990  0.18190  Biso   1.000  H
  H111     1.0000 0.45010  0.93870  0.18190  Biso   1.000  H
  H112     1.0000 0.72797  0.84473  0.51523  Biso   1.000  H
  H113     1.0000 0.15527  0.88323  0.51523  Biso   1.000  H
  H114     1.0000 0.11677  0.27203  0.51523  Biso   1.000  H
  H115     1.0000 0.39463  0.17807  0.84857  Biso   1.000  H
  H116     1.0000 0.82193  0.21657  0.84857  Biso   1.000  H
  H117     1.0000 0.78343  0.60537  0.84857  Biso   1.000  H
  H118     1.0000 0.93870  0.48860  0.81810  Biso   1.000  H
  H119     1.0000 0.51140  0.45010  0.81810  Biso   1.000  H
  H120     1.0000 0.54990  0.06130  0.81810  Biso   1.000  H
  H121     1.0000 0.60537  0.82193  0.15143  Biso   1.000  H
  H122     1.0000 0.17807  0.78343  0.15143  Biso   1.000  H
  H123     1.0000 0.21657  0.39463  0.15143  Biso   1.000  H
  H124     1.0000 0.27203  0.15527  0.48477  Biso   1.000  H
  H125     1.0000 0.84473  0.11677  0.48477  Biso   1.000  H
  H126     1.0000 0.88323  0.72797  0.48477  Biso   1.000  H
  C127     1.0000 0.98960  0.41480  0.21380  Biso   1.000  C
  C128     1.0000 0.58520  0.57480  0.21380  Biso   1.000  C
  C129     1.0000 0.42520  0.01040  0.21380  Biso   1.000  C
  C130     1.0000 0.65627  0.74813  0.54713  Biso   1.000  C
  C131     1.0000 0.25187  0.90813  0.54713  Biso   1.000  C
  C132     1.0000 0.09187  0.34373  0.54713  Biso   1.000  C
  C133     1.0000 0.32293  0.08147  0.88047  Biso   1.000  C
  C134     1.0000 0.91853  0.24147  0.88047  Biso   1.000  C
  C135     1.0000 0.75853  0.67707  0.88047  Biso   1.000  C
  C136     1.0000 0.01040  0.58520  0.78620  Biso   1.000  C
  C137     1.0000 0.41480  0.42520  0.78620  Biso   1.000  C
  C138     1.0000 0.57480  0.98960  0.78620  Biso   1.000  C
  C139     1.0000 0.67707  0.91853  0.11953  Biso   1.000  C
  C140     1.0000 0.08147  0.75853  0.11953  Biso   1.000  C
  C141     1.0000 0.24147  0.32293  0.11953  Biso   1.000  C
  C142     1.0000 0.34373  0.25187  0.45287  Biso   1.000  C
  C143     1.0000 0.74813  0.09187  0.45287  Biso   1.000  C
  C144     1.0000 0.90813  0.65627  0.45287  Biso   1.000  C
  H127     1.0000 0.99130  0.37500  0.19950  Biso   1.000  H
  H128     1.0000 0.62500  0.61630  0.19950  Biso   1.000  H
  H129     1.0000 0.38370  0.00870  0.19950  Biso   1.000  H
  H130     1.0000 0.65797  0.70833  0.53283  Biso   1.000  H
  H131     1.0000 0.29167  0.94963  0.53283  Biso   1.000  H
  H132     1.0000 0.05037  0.34203  0.53283  Biso   1.000  H
  H133     1.0000 0.32463  0.04167  0.86617  Biso   1.000  H
  H134     1.0000 0.95833  0.28297  0.86617  Biso   1.000  H
  H135     1.0000 0.71703  0.67537  0.86617  Biso   1.000  H
  H136     1.0000 0.00870  0.62500  0.80050  Biso   1.000  H
  H137     1.0000 0.37500  0.38370  0.80050  Biso   1.000  H
  H138     1.0000 0.61630  0.99130  0.80050  Biso   1.000  H
  H139     1.0000 0.67537  0.95833  0.13383  Biso   1.000  H
  H140     1.0000 0.04167  0.71703  0.13383  Biso   1.000  H
  H141     1.0000 0.28297  0.32463  0.13383  Biso   1.000  H
  H142     1.0000 0.34203  0.29167  0.46717  Biso   1.000  H
  H143     1.0000 0.70833  0.05037  0.46717  Biso   1.000  H
  H144     1.0000 0.94963  0.65797  0.46717  Biso   1.000  H
  C145     1.0000 0.94570  0.39190  0.24510  Biso   1.000  C
  C146     1.0000 0.60810  0.55380  0.24510  Biso   1.000  C
  C147     1.0000 0.44620  0.05430  0.24510  Biso   1.000  C
  C148     1.0000 0.61237  0.72523  0.57843  Biso   1.000  C
  C149     1.0000 0.27477  0.88713  0.57843  Biso   1.000  C
  C150     1.0000 0.11287  0.38763  0.57843  Biso   1.000  C
  C151     1.0000 0.27903  0.05857  0.91177  Biso   1.000  C
  C152     1.0000 0.94143  0.22047  0.91177  Biso   1.000  C
  C153     1.0000 0.77953  0.72097  0.91177  Biso   1.000  C
  C154     1.0000 0.05430  0.60810  0.75490  Biso   1.000  C
  C155     1.0000 0.39190  0.44620  0.75490  Biso   1.000  C
  C156     1.0000 0.55380  0.94570  0.75490  Biso   1.000  C
  C157     1.0000 0.72097  0.94143  0.08823  Biso   1.000  C
  C158     1.0000 0.05857  0.77953  0.08823  Biso   1.000  C
  C159     1.0000 0.22047  0.27903  0.08823  Biso   1.000  C
  C160     1.0000 0.38763  0.27477  0.42157  Biso   1.000  C
  C161     1.0000 0.72523  0.11287  0.42157  Biso   1.000  C
  C162     1.0000 0.88713  0.61237  0.42157  Biso   1.000  C
  C163     1.0000 0.94620  0.45220  0.26570  Biso   1.000  C
  C164     1.0000 0.54780  0.49400  0.26570  Biso   1.000  C
  C165     1.0000 0.50600  0.05380  0.26570  Biso   1.000  C
  C166     1.0000 0.61287  0.78553  0.59903  Biso   1.000  C
  C167     1.0000 0.21447  0.82733  0.59903  Biso   1.000  C
  C168     1.0000 0.17267  0.38713  0.59903  Biso   1.000  C
  C169     1.0000 0.27953  0.11887  0.93237  Biso   1.000  C
  C170     1.0000 0.88113  0.16067  0.93237  Biso   1.000  C
  C171     1.0000 0.83933  0.72047  0.93237  Biso   1.000  C
  C172     1.0000 0.05380  0.54780  0.73430  Biso   1.000  C
  C173     1.0000 0.45220  0.50600  0.73430  Biso   1.000  C
  C174     1.0000 0.49400  0.94620  0.73430  Biso   1.000  C
  C175     1.0000 0.72047  0.88113  0.06763  Biso   1.000  C
  C176     1.0000 0.11887  0.83933  0.06763  Biso   1.000  C
  C177     1.0000 0.16067  0.27953  0.06763  Biso   1.000  C
  C178     1.0000 0.38713  0.21447  0.40097  Biso   1.000  C
  C179     1.0000 0.78553  0.17267  0.40097  Biso   1.000  C
  C180     1.0000 0.82733  0.61287  0.40097  Biso   1.000  C
  H145     1.0000 0.91890  0.43790  0.28770  Biso   1.000  H
  H146     1.0000 0.56210  0.48100  0.28770  Biso   1.000  H
  H147     1.0000 0.51900  0.08110  0.28770  Biso   1.000  H
  H148     1.0000 0.58557  0.77123  0.62103  Biso   1.000  H
  H149     1.0000 0.22877  0.81433  0.62103  Biso   1.000  H
  H150     1.0000 0.18567  0.41443  0.62103  Biso   1.000  H
  H151     1.0000 0.25223  0.10457  0.95437  Biso   1.000  H
  H152     1.0000 0.89543  0.14767  0.95437  Biso   1.000  H
  H153     1.0000 0.85233  0.74777  0.95437  Biso   1.000  H
  H154     1.0000 0.08110  0.56210  0.71230  Biso   1.000  H
  H155     1.0000 0.43790  0.51900  0.71230  Biso   1.000  H
  H156     1.0000 0.48100  0.91890  0.71230  Biso   1.000  H
  H157     1.0000 0.74777  0.89543  0.04563  Biso   1.000  H
  H158     1.0000 0.10457  0.85233  0.04563  Biso   1.000  H
  H159     1.0000 0.14767  0.25223  0.04563  Biso   1.000  H
  H160     1.0000 0.41443  0.22877  0.37897  Biso   1.000  H
  H161     1.0000 0.77123  0.18567  0.37897  Biso   1.000  H
  H162     1.0000 0.81433  0.58557  0.37897  Biso   1.000  H
  C181     1.0000 0.98610  0.53380  0.25510  Biso   1.000  C
  C182     1.0000 0.46620  0.45230  0.25510  Biso   1.000  C
  C183     1.0000 0.54770  0.01390  0.25510  Biso   1.000  C
  C184     1.0000 0.65277  0.86713  0.58843  Biso   1.000  C
  C185     1.0000 0.13287  0.78563  0.58843  Biso   1.000  C
  C186     1.0000 0.21437  0.34723  0.58843  Biso   1.000  C
  C187     1.0000 0.31943  0.20047  0.92177  Biso   1.000  C
  C188     1.0000 0.79953  0.11897  0.92177  Biso   1.000  C
  C189     1.0000 0.88103  0.68057  0.92177  Biso   1.000  C
  C190     1.0000 0.01390  0.46620  0.74490  Biso   1.000  C
  C191     1.0000 0.53380  0.54770  0.74490  Biso   1.000  C
  C192     1.0000 0.45230  0.98610  0.74490  Biso   1.000  C
  C193     1.0000 0.68057  0.79953  0.07823  Biso   1.000  C
  C194     1.0000 0.20047  0.88103  0.07823  Biso   1.000  C
  C195     1.0000 0.11897  0.31943  0.07823  Biso   1.000  C
  C196     1.0000 0.34723  0.13287  0.41157  Biso   1.000  C
  C197     1.0000 0.86713  0.21437  0.41157  Biso   1.000  C
  C198     1.0000 0.78563  0.65277  0.41157  Biso   1.000  C
  H163     1.0000 0.98290  0.57280  0.26940  Biso   1.000  H
  H164     1.0000 0.42720  0.41010  0.26940  Biso   1.000  H
  H165     1.0000 0.58990  0.01710  0.26940  Biso   1.000  H
  H166     1.0000 0.64957  0.90613  0.60273  Biso   1.000  H
  H167     1.0000 0.09387  0.74343  0.60273  Biso   1.000  H
  H168     1.0000 0.25657  0.35043  0.60273  Biso   1.000  H
  H169     1.0000 0.31623  0.23947  0.93607  Biso   1.000  H
  H170     1.0000 0.76053  0.07677  0.93607  Biso   1.000  H
  H171     1.0000 0.92323  0.68377  0.93607  Biso   1.000  H
  H172     1.0000 0.01710  0.42720  0.73060  Biso   1.000  H
  H173     1.0000 0.57280  0.58990  0.73060  Biso   1.000  H
  H174     1.0000 0.41010  0.98290  0.73060  Biso   1.000  H
  H175     1.0000 0.68377  0.76053  0.06393  Biso   1.000  H
  H176     1.0000 0.23947  0.92323  0.06393  Biso   1.000  H
  H177     1.0000 0.07677  0.31623  0.06393  Biso   1.000  H
  H178     1.0000 0.35043  0.09387  0.39727  Biso   1.000  H
  H179     1.0000 0.90613  0.25657  0.39727  Biso   1.000  H
  H180     1.0000 0.74343  0.64957  0.39727  Biso   1.000  H
  C199     1.0000 0.90200  0.30340  0.25740  Biso   1.000  C
  C200     1.0000 0.69660  0.59860  0.25740  Biso   1.000  C
  C201     1.0000 0.40140  0.09800  0.25740  Biso   1.000  C
  C202     1.0000 0.56867  0.63673  0.59073  Biso   1.000  C
  C203     1.0000 0.36327  0.93193  0.59073  Biso   1.000  C
  C204     1.0000 0.06807  0.43133  0.59073  Biso   1.000  C
  C205     1.0000 0.23533  0.97007  0.92407  Biso   1.000  C
  C206     1.0000 0.02993  0.26527  0.92407  Biso   1.000  C
  C207     1.0000 0.73473  0.76467  0.92407  Biso   1.000  C
  C208     1.0000 0.09800  0.69660  0.74260  Biso   1.000  C
  C209     1.0000 0.30340  0.40140  0.74260  Biso   1.000  C
  C210     1.0000 0.59860  0.90200  0.74260  Biso   1.000  C
  C211     1.0000 0.76467  0.02993  0.07593  Biso   1.000  C
  C212     1.0000 0.97007  0.73473  0.07593  Biso   1.000  C
  C213     1.0000 0.26527  0.23533  0.07593  Biso   1.000  C
  C214     1.0000 0.43133  0.36327  0.40927  Biso   1.000  C
  C215     1.0000 0.63673  0.06807  0.40927  Biso   1.000  C
  C216     1.0000 0.93193  0.56867  0.40927  Biso   1.000  C
  H181     1.0000 0.84980  0.29020  0.26840  Biso   1.000  H
  H182     1.0000 0.70980  0.55960  0.26840  Biso   1.000  H
  H183     1.0000 0.44040  0.15020  0.26840  Biso   1.000  H
  H184     1.0000 0.51647  0.62353  0.60173  Biso   1.000  H
  H185     1.0000 0.37647  0.89293  0.60173  Biso   1.000  H
  H186     1.0000 0.10707  0.48353  0.60173  Biso   1.000  H
  H187     1.0000 0.18313  0.95687  0.93507  Biso   1.000  H
  H188     1.0000 0.04313  0.22627  0.93507  Biso   1.000  H
  H189     1.0000 0.77373  0.81687  0.93507  Biso   1.000  H
  H190     1.0000 0.15020  0.70980  0.73160  Biso   1.000  H
  H191     1.0000 0.29020  0.44040  0.73160  Biso   1.000  H
  H192     1.0000 0.55960  0.84980  0.73160  Biso   1.000  H
  H193     1.0000 0.81687  0.04313  0.06493  Biso   1.000  H
  H194     1.0000 0.95687  0.77373  0.06493  Biso   1.000  H
  H195     1.0000 0.22627  0.18313  0.06493  Biso   1.000  H
  H196     1.0000 0.48353  0.37647  0.39827  Biso   1.000  H
  H197     1.0000 0.62353  0.10707  0.39827  Biso   1.000  H
  H198     1.0000 0.89293  0.51647  0.39827  Biso   1.000  H
  H199     1.0000 0.89040  0.26730  0.23680  Biso   1.000  H
  H200     1.0000 0.73270  0.62310  0.23680  Biso   1.000  H
  H201     1.0000 0.37690  0.10960  0.23680  Biso   1.000  H
  H202     1.0000 0.55707  0.60063  0.57013  Biso   1.000  H
  H203     1.0000 0.39937  0.95643  0.57013  Biso   1.000  H
  H204     1.0000 0.04357  0.44293  0.57013  Biso   1.000  H
  H205     1.0000 0.22373  0.93397  0.90347  Biso   1.000  H
  H206     1.0000 0.06603  0.28977  0.90347  Biso   1.000  H
  H207     1.0000 0.71023  0.77627  0.90347  Biso   1.000  H
  H208     1.0000 0.10960  0.73270  0.76320  Biso   1.000  H
  H209     1.0000 0.26730  0.37690  0.76320  Biso   1.000  H
  H210     1.0000 0.62310  0.89040  0.76320  Biso   1.000  H
  H211     1.0000 0.77627  0.06603  0.09653  Biso   1.000  H
  H212     1.0000 0.93397  0.71023  0.09653  Biso   1.000  H
  H213     1.0000 0.28977  0.22373  0.09653  Biso   1.000  H
  H214     1.0000 0.44293  0.39937  0.42987  Biso   1.000  H
  H215     1.0000 0.60063  0.04357  0.42987  Biso   1.000  H
  H216     1.0000 0.95643  0.55707  0.42987  Biso   1.000  H
  N1       1.0000 0.16510  0.78060  0.28550  Biso   1.000  N
  N2       1.0000 0.21940  0.38450  0.28550  Biso   1.000  N
  N3       1.0000 0.61550  0.83490  0.28550  Biso   1.000  N
  N4       1.0000 0.83177  0.11393  0.61883  Biso   1.000  N
  N5       1.0000 0.88607  0.71783  0.61883  Biso   1.000  N
  N6       1.0000 0.28217  0.16823  0.61883  Biso   1.000  N
  N7       1.0000 0.49843  0.44727  0.95217  Biso   1.000  N
  N8       1.0000 0.55273  0.05117  0.95217  Biso   1.000  N
  N9       1.0000 0.94883  0.50157  0.95217  Biso   1.000  N
  N10      1.0000 0.83490  0.21940  0.71450  Biso   1.000  N
  N11      1.0000 0.78060  0.61550  0.71450  Biso   1.000  N
  N12      1.0000 0.38450  0.16510  0.71450  Biso   1.000  N
  N13      1.0000 0.50157  0.55273  0.04783  Biso   1.000  N
  N14      1.0000 0.44727  0.94883  0.04783  Biso   1.000  N
  N15      1.0000 0.05117  0.49843  0.04783  Biso   1.000  N
  N16      1.0000 0.16823  0.88607  0.38117  Biso   1.000  N
  N17      1.0000 0.11393  0.28217  0.38117  Biso   1.000  N
  N18      1.0000 0.71783  0.83177  0.38117  Biso   1.000  N
  N19      1.0000 0.20050  0.71940  0.24330  Biso   1.000  N
  N20      1.0000 0.28060  0.48110  0.24330  Biso   1.000  N
  N21      1.0000 0.51890  0.79950  0.24330  Biso   1.000  N
  N22      1.0000 0.86717  0.05273  0.57663  Biso   1.000  N
  N23      1.0000 0.94727  0.81443  0.57663  Biso   1.000  N
  N24      1.0000 0.18557  0.13283  0.57663  Biso   1.000  N
  N25      1.0000 0.53383  0.38607  0.90997  Biso   1.000  N
  N26      1.0000 0.61393  0.14777  0.90997  Biso   1.000  N
  N27      1.0000 0.85223  0.46617  0.90997  Biso   1.000  N
  N28      1.0000 0.79950  0.28060  0.75670  Biso   1.000  N
  N29      1.0000 0.71940  0.51890  0.75670  Biso   1.000  N
  N30      1.0000 0.48110  0.20050  0.75670  Biso   1.000  N
  N31      1.0000 0.46617  0.61393  0.09003  Biso   1.000  N
  N32      1.0000 0.38607  0.85223  0.09003  Biso   1.000  N
  N33      1.0000 0.14777  0.53383  0.09003  Biso   1.000  N
  N34      1.0000 0.13283  0.94727  0.42337  Biso   1.000  N
  N35      1.0000 0.05273  0.18557  0.42337  Biso   1.000  N
  N36      1.0000 0.81443  0.86717  0.42337  Biso   1.000  N
  N37      1.0000 0.12130  0.70320  0.23840  Biso   1.000  N
  N38      1.0000 0.29680  0.41810  0.23840  Biso   1.000  N
  N39      1.0000 0.58190  0.87870  0.23840  Biso   1.000  N
  N40      1.0000 0.78797  0.03653  0.57173  Biso   1.000  N
  N41      1.0000 0.96347  0.75143  0.57173  Biso   1.000  N
  N42      1.0000 0.24857  0.21203  0.57173  Biso   1.000  N
  N43      1.0000 0.45463  0.36987  0.90507  Biso   1.000  N
  N44      1.0000 0.63013  0.08477  0.90507  Biso   1.000  N
  N45      1.0000 0.91523  0.54537  0.90507  Biso   1.000  N
  N46      1.0000 0.87870  0.29680  0.76160  Biso   1.000  N
  N47      1.0000 0.70320  0.58190  0.76160  Biso   1.000  N
  N48      1.0000 0.41810  0.12130  0.76160  Biso   1.000  N
  N49      1.0000 0.54537  0.63013  0.09493  Biso   1.000  N
  N50      1.0000 0.36987  0.91523  0.09493  Biso   1.000  N
  N51      1.0000 0.08477  0.45463  0.09493  Biso   1.000  N
  N52      1.0000 0.21203  0.96347  0.42827  Biso   1.000  N
  N53      1.0000 0.03653  0.24857  0.42827  Biso   1.000  N
  N54      1.0000 0.75143  0.78797  0.42827  Biso   1.000  N
  N55      1.0000 0.05350  0.29620  0.31440  Biso   1.000  N
  N56      1.0000 0.70380  0.75730  0.31440  Biso   1.000  N
  N57      1.0000 0.24270  0.94650  0.31440  Biso   1.000  N
  N58      1.0000 0.72017  0.62953  0.64773  Biso   1.000  N
  N59      1.0000 0.37047  0.09063  0.64773  Biso   1.000  N
  N60      1.0000 0.90937  0.27983  0.64773  Biso   1.000  N
  N61      1.0000 0.38683  0.96287  0.98107  Biso   1.000  N
  N62      1.0000 0.03713  0.42397  0.98107  Biso   1.000  N
  N63      1.0000 0.57603  0.61317  0.98107  Biso   1.000  N
  N64      1.0000 0.94650  0.70380  0.68560  Biso   1.000  N
  N65      1.0000 0.29620  0.24270  0.68560  Biso   1.000  N
  N66      1.0000 0.75730  0.05350  0.68560  Biso   1.000  N
  N67      1.0000 0.61317  0.03713  0.01893  Biso   1.000  N
  N68      1.0000 0.96287  0.57603  0.01893  Biso   1.000  N
  N69      1.0000 0.42397  0.38683  0.01893  Biso   1.000  N
  N70      1.0000 0.27983  0.37047  0.35227  Biso   1.000  N
  N71      1.0000 0.62953  0.90937  0.35227  Biso   1.000  N
  N72      1.0000 0.09063  0.72017  0.35227  Biso   1.000  N
  N73      1.0000 0.91750  0.22170  0.30500  Biso   1.000  N
  N74      1.0000 0.77830  0.69580  0.30500  Biso   1.000  N
  N75      1.0000 0.30420  0.08250  0.30500  Biso   1.000  N
  N76      1.0000 0.58417  0.55503  0.63833  Biso   1.000  N
  N77      1.0000 0.44497  0.02913  0.63833  Biso   1.000  N
  N78      1.0000 0.97087  0.41583  0.63833  Biso   1.000  N
  N79      1.0000 0.25083  0.88837  0.97167  Biso   1.000  N
  N80      1.0000 0.11163  0.36247  0.97167  Biso   1.000  N
  N81      1.0000 0.63753  0.74917  0.97167  Biso   1.000  N
  N82      1.0000 0.08250  0.77830  0.69500  Biso   1.000  N
  N83      1.0000 0.22170  0.30420  0.69500  Biso   1.000  N
  N84      1.0000 0.69580  0.91750  0.69500  Biso   1.000  N
  N85      1.0000 0.74917  0.11163  0.02833  Biso   1.000  N
  N86      1.0000 0.88837  0.63753  0.02833  Biso   1.000  N
  N87      1.0000 0.36247  0.25083  0.02833  Biso   1.000  N
  N88      1.0000 0.41583  0.44497  0.36167  Biso   1.000  N
  N89      1.0000 0.55503  0.97087  0.36167  Biso   1.000  N
  N90      1.0000 0.02913  0.58417  0.36167  Biso   1.000  N
  N91      1.0000 0.95240  0.28880  0.28320  Biso   1.000  N
  N92      1.0000 0.71120  0.66360  0.28320  Biso   1.000  N
  N93      1.0000 0.33640  0.04760  0.28320  Biso   1.000  N
  N94      1.0000 0.61907  0.62213  0.61653  Biso   1.000  N
  N95      1.0000 0.37787  0.99693  0.61653  Biso   1.000  N
  N96      1.0000 0.00307  0.38093  0.61653  Biso   1.000  N
  N97      1.0000 0.28573  0.95547  0.94987  Biso   1.000  N
  N98      1.0000 0.04453  0.33027  0.94987  Biso   1.000  N
  N99      1.0000 0.66973  0.71427  0.94987  Biso   1.000  N
  N100     1.0000 0.04760  0.71120  0.71680  Biso   1.000  N
  N101     1.0000 0.28880  0.33640  0.71680  Biso   1.000  N
  N102     1.0000 0.66360  0.95240  0.71680  Biso   1.000  N
  N103     1.0000 0.71427  0.04453  0.05013  Biso   1.000  N
  N104     1.0000 0.95547  0.66973  0.05013  Biso   1.000  N
  N105     1.0000 0.33027  0.28573  0.05013  Biso   1.000  N
  N106     1.0000 0.38093  0.37787  0.38347  Biso   1.000  N
  N107     1.0000 0.62213  0.00307  0.38347  Biso   1.000  N
  N108     1.0000 0.99693  0.61907  0.38347  Biso   1.000  N
  O241     1.0000 0.91150  0.64980  0.29780  Biso   1.000  O
  O242     1.0000 0.35020  0.26170  0.29780  Biso   1.000  O
  O243     1.0000 0.73830  0.08850  0.29780  Biso   1.000  O
  O244     1.0000 0.57817  0.98313  0.63113  Biso   1.000  O
  O245     1.0000 0.01687  0.59503  0.63113  Biso   1.000  O
  O246     1.0000 0.40497  0.42183  0.63113  Biso   1.000  O
  O247     1.0000 0.24483  0.31647  0.96447  Biso   1.000  O
  O248     1.0000 0.68353  0.92837  0.96447  Biso   1.000  O
  O249     1.0000 0.07163  0.75517  0.96447  Biso   1.000  O
  O250     1.0000 0.08850  0.35020  0.70220  Biso   1.000  O
  O251     1.0000 0.64980  0.73830  0.70220  Biso   1.000  O
  O252     1.0000 0.26170  0.91150  0.70220  Biso   1.000  O
  O253     1.0000 0.75517  0.68353  0.03553  Biso   1.000  O
  O254     1.0000 0.31647  0.07163  0.03553  Biso   1.000  O
  O255     1.0000 0.92837  0.24483  0.03553  Biso   1.000  O
  O256     1.0000 0.42183  0.01687  0.36887  Biso   1.000  O
  O257     1.0000 0.98313  0.40497  0.36887  Biso   1.000  O
  O258     1.0000 0.59503  0.57817  0.36887  Biso   1.000  O
  O259     1.0000 0.80300  0.48480  0.32570  Biso   1.000  O
  O260     1.0000 0.51520  0.31820  0.32570  Biso   1.000  O
  O261     1.0000 0.68180  0.19700  0.32570  Biso   1.000  O
  O262     1.0000 0.46967  0.81813  0.65903  Biso   1.000  O
  O263     1.0000 0.18187  0.65153  0.65903  Biso   1.000  O
  O264     1.0000 0.34847  0.53033  0.65903  Biso   1.000  O
  O265     1.0000 0.13633  0.15147  0.99237  Biso   1.000  O
  O266     1.0000 0.84853  0.98487  0.99237  Biso   1.000  O
  O267     1.0000 0.01513  0.86367  0.99237  Biso   1.000  O
  O268     1.0000 0.19700  0.51520  0.67430  Biso   1.000  O
  O269     1.0000 0.48480  0.68180  0.67430  Biso   1.000  O
  O270     1.0000 0.31820  0.80300  0.67430  Biso   1.000  O
  O271     1.0000 0.86367  0.84853  0.00763  Biso   1.000  O
  O272     1.0000 0.15147  0.01513  0.00763  Biso   1.000  O
  O273     1.0000 0.98487  0.13633  0.00763  Biso   1.000  O
  O274     1.0000 0.53033  0.18187  0.34097  Biso   1.000  O
  O275     1.0000 0.81813  0.34847  0.34097  Biso   1.000  O
  O276     1.0000 0.65153  0.46967  0.34097  Biso   1.000  O
