data_image0
_cell_length_a       42.335
_cell_length_b       52.105
_cell_length_c       32.3426
_cell_angle_alpha    90
_cell_angle_beta     90
_cell_angle_gamma    90

_symmetry_space_group_name_H-M    "P 1"
_symmetry_int_tables_number       1

loop_
  _symmetry_equiv_pos_as_xyz
  'x, y, z'

loop_
  _atom_site_label
  _atom_site_occupancy
  _atom_site_fract_x
  _atom_site_fract_y
  _atom_site_fract_z
  _atom_site_thermal_displace_type
  _atom_site_B_iso_or_equiv
  _atom_site_type_symbol
  Cu1      1.0000 0.67078  0.85127  0.50000  Biso   1.000  Cu
  Cu2      1.0000 0.32922  0.14873  0.50000  Biso   1.000  Cu
  Cu3      1.0000 0.32922  0.85127  0.50000  Biso   1.000  Cu
  Cu4      1.0000 0.67078  0.14873  0.50000  Biso   1.000  Cu
  Cu5      1.0000 0.67078  0.35127  0.00000  Biso   1.000  Cu
  Cu6      1.0000 0.32922  0.64873  0.00000  Biso   1.000  Cu
  Cu7      1.0000 0.32922  0.35127  0.00000  Biso   1.000  Cu
  Cu8      1.0000 0.67078  0.64873  0.00000  Biso   1.000  Cu
  Cu9      1.0000 0.17078  0.85127  0.00000  Biso   1.000  Cu
  Cu10     1.0000 0.82922  0.14873  0.00000  Biso   1.000  Cu
  Cu11     1.0000 0.82922  0.85127  0.00000  Biso   1.000  Cu
  Cu12     1.0000 0.17078  0.14873  0.00000  Biso   1.000  Cu
  Cu13     1.0000 0.17078  0.35127  0.50000  Biso   1.000  Cu
  Cu14     1.0000 0.82922  0.64873  0.50000  Biso   1.000  Cu
  Cu15     1.0000 0.82922  0.35127  0.50000  Biso   1.000  Cu
  Cu16     1.0000 0.17078  0.64873  0.50000  Biso   1.000  Cu
  Cu17     1.0000 0.50000  0.86190  0.26097  Biso   1.000  Cu
  Cu18     1.0000 0.50000  0.13810  0.26097  Biso   1.000  Cu
  Cu19     1.0000 0.50000  0.86190  0.73903  Biso   1.000  Cu
  Cu20     1.0000 0.50000  0.13810  0.73903  Biso   1.000  Cu
  Cu21     1.0000 0.50000  0.36190  0.76097  Biso   1.000  Cu
  Cu22     1.0000 0.50000  0.63810  0.76097  Biso   1.000  Cu
  Cu23     1.0000 0.50000  0.36190  0.23903  Biso   1.000  Cu
  Cu24     1.0000 0.50000  0.63810  0.23903  Biso   1.000  Cu
  Cu25     1.0000 0.00000  0.86190  0.76097  Biso   1.000  Cu
  Cu26     1.0000 0.00000  0.13810  0.76097  Biso   1.000  Cu
  Cu27     1.0000 0.00000  0.86190  0.23903  Biso   1.000  Cu
  Cu28     1.0000 0.00000  0.13810  0.23903  Biso   1.000  Cu
  Cu29     1.0000 0.00000  0.36190  0.26097  Biso   1.000  Cu
  Cu30     1.0000 0.00000  0.63810  0.26097  Biso   1.000  Cu
  Cu31     1.0000 0.00000  0.36190  0.73903  Biso   1.000  Cu
  Cu32     1.0000 0.00000  0.63810  0.73903  Biso   1.000  Cu
  Cu33     1.0000 0.50000  0.89700  0.32044  Biso   1.000  Cu
  Cu34     1.0000 0.50000  0.10300  0.32044  Biso   1.000  Cu
  Cu35     1.0000 0.50000  0.89700  0.67956  Biso   1.000  Cu
  Cu36     1.0000 0.50000  0.10300  0.67956  Biso   1.000  Cu
  Cu37     1.0000 0.50000  0.39700  0.82044  Biso   1.000  Cu
  Cu38     1.0000 0.50000  0.60300  0.82044  Biso   1.000  Cu
  Cu39     1.0000 0.50000  0.39700  0.17956  Biso   1.000  Cu
  Cu40     1.0000 0.50000  0.60300  0.17956  Biso   1.000  Cu
  Cu41     1.0000 0.00000  0.89700  0.82044  Biso   1.000  Cu
  Cu42     1.0000 0.00000  0.10300  0.82044  Biso   1.000  Cu
  Cu43     1.0000 0.00000  0.89700  0.17956  Biso   1.000  Cu
  Cu44     1.0000 0.00000  0.10300  0.17956  Biso   1.000  Cu
  Cu45     1.0000 0.00000  0.39700  0.32044  Biso   1.000  Cu
  Cu46     1.0000 0.00000  0.60300  0.32044  Biso   1.000  Cu
  Cu47     1.0000 0.00000  0.39700  0.67956  Biso   1.000  Cu
  Cu48     1.0000 0.00000  0.60300  0.67956  Biso   1.000  Cu
  Cu49     1.0000 0.62875  0.88888  0.50000  Biso   1.000  Cu
  Cu50     1.0000 0.37125  0.11112  0.50000  Biso   1.000  Cu
  Cu51     1.0000 0.37125  0.88888  0.50000  Biso   1.000  Cu
  Cu52     1.0000 0.62875  0.11112  0.50000  Biso   1.000  Cu
  Cu53     1.0000 0.62875  0.38888  0.00000  Biso   1.000  Cu
  Cu54     1.0000 0.37125  0.61112  0.00000  Biso   1.000  Cu
  Cu55     1.0000 0.37125  0.38888  0.00000  Biso   1.000  Cu
  Cu56     1.0000 0.62875  0.61112  0.00000  Biso   1.000  Cu
  Cu57     1.0000 0.12875  0.88888  0.00000  Biso   1.000  Cu
  Cu58     1.0000 0.87125  0.11112  0.00000  Biso   1.000  Cu
  Cu59     1.0000 0.87125  0.88888  0.00000  Biso   1.000  Cu
  Cu60     1.0000 0.12875  0.11112  0.00000  Biso   1.000  Cu
  Cu61     1.0000 0.12875  0.38888  0.50000  Biso   1.000  Cu
  Cu62     1.0000 0.87125  0.61112  0.50000  Biso   1.000  Cu
  Cu63     1.0000 0.87125  0.38888  0.50000  Biso   1.000  Cu
  Cu64     1.0000 0.12875  0.61112  0.50000  Biso   1.000  Cu
  Cu65     1.0000 0.81750  0.50000  0.27692  Biso   1.000  Cu
  Cu66     1.0000 0.18250  0.50000  0.27692  Biso   1.000  Cu
  Cu67     1.0000 0.18250  0.50000  0.72308  Biso   1.000  Cu
  Cu68     1.0000 0.81750  0.50000  0.72308  Biso   1.000  Cu
  Cu69     1.0000 0.81750  0.00000  0.77692  Biso   1.000  Cu
  Cu70     1.0000 0.18250  0.00000  0.77692  Biso   1.000  Cu
  Cu71     1.0000 0.18250  0.00000  0.22308  Biso   1.000  Cu
  Cu72     1.0000 0.81750  0.00000  0.22308  Biso   1.000  Cu
  Cu73     1.0000 0.31750  0.50000  0.77692  Biso   1.000  Cu
  Cu74     1.0000 0.68250  0.50000  0.77692  Biso   1.000  Cu
  Cu75     1.0000 0.68250  0.50000  0.22308  Biso   1.000  Cu
  Cu76     1.0000 0.31750  0.50000  0.22308  Biso   1.000  Cu
  Cu77     1.0000 0.31750  0.00000  0.27692  Biso   1.000  Cu
  Cu78     1.0000 0.68250  0.00000  0.27692  Biso   1.000  Cu
  Cu79     1.0000 0.68250  0.00000  0.72308  Biso   1.000  Cu
  Cu80     1.0000 0.31750  0.00000  0.72308  Biso   1.000  Cu
  Cu81     1.0000 0.86306  0.50000  0.33305  Biso   1.000  Cu
  Cu82     1.0000 0.13694  0.50000  0.33305  Biso   1.000  Cu
  Cu83     1.0000 0.13694  0.50000  0.66695  Biso   1.000  Cu
  Cu84     1.0000 0.86306  0.50000  0.66695  Biso   1.000  Cu
  Cu85     1.0000 0.86306  0.00000  0.83305  Biso   1.000  Cu
  Cu86     1.0000 0.13694  0.00000  0.83305  Biso   1.000  Cu
  Cu87     1.0000 0.13694  0.00000  0.16695  Biso   1.000  Cu
  Cu88     1.0000 0.86306  0.00000  0.16695  Biso   1.000  Cu
  Cu89     1.0000 0.36306  0.50000  0.83305  Biso   1.000  Cu
  Cu90     1.0000 0.63694  0.50000  0.83305  Biso   1.000  Cu
  Cu91     1.0000 0.63694  0.50000  0.16695  Biso   1.000  Cu
  Cu92     1.0000 0.36306  0.50000  0.16695  Biso   1.000  Cu
  Cu93     1.0000 0.36306  0.00000  0.33305  Biso   1.000  Cu
  Cu94     1.0000 0.63694  0.00000  0.33305  Biso   1.000  Cu
  Cu95     1.0000 0.63694  0.00000  0.66695  Biso   1.000  Cu
  Cu96     1.0000 0.36306  0.00000  0.66695  Biso   1.000  Cu
  O1       1.0000 0.67600  0.92890  0.13960  Biso   1.000  O
  O2       1.0000 0.32400  0.07110  0.13960  Biso   1.000  O
  O3       1.0000 0.32400  0.92890  0.86040  Biso   1.000  O
  O4       1.0000 0.67600  0.07110  0.86040  Biso   1.000  O
  O5       1.0000 0.67600  0.42890  0.63960  Biso   1.000  O
  O6       1.0000 0.32400  0.57110  0.63960  Biso   1.000  O
  O7       1.0000 0.32400  0.42890  0.36040  Biso   1.000  O
  O8       1.0000 0.67600  0.57110  0.36040  Biso   1.000  O
  O9       1.0000 0.17600  0.92890  0.63960  Biso   1.000  O
  O10      1.0000 0.82400  0.07110  0.63960  Biso   1.000  O
  O11      1.0000 0.82400  0.92890  0.36040  Biso   1.000  O
  O12      1.0000 0.17600  0.07110  0.36040  Biso   1.000  O
  O13      1.0000 0.17600  0.42890  0.13960  Biso   1.000  O
  O14      1.0000 0.82400  0.57110  0.13960  Biso   1.000  O
  O15      1.0000 0.82400  0.42890  0.86040  Biso   1.000  O
  O16      1.0000 0.17600  0.57110  0.86040  Biso   1.000  O
  O17      1.0000 0.32400  0.07110  0.86040  Biso   1.000  O
  O18      1.0000 0.67600  0.92890  0.86040  Biso   1.000  O
  O19      1.0000 0.67600  0.07110  0.13960  Biso   1.000  O
  O20      1.0000 0.32400  0.92890  0.13960  Biso   1.000  O
  O21      1.0000 0.32400  0.57110  0.36040  Biso   1.000  O
  O22      1.0000 0.67600  0.42890  0.36040  Biso   1.000  O
  O23      1.0000 0.67600  0.57110  0.63960  Biso   1.000  O
  O24      1.0000 0.32400  0.42890  0.63960  Biso   1.000  O
  O25      1.0000 0.82400  0.07110  0.36040  Biso   1.000  O
  O26      1.0000 0.17600  0.92890  0.36040  Biso   1.000  O
  O27      1.0000 0.17600  0.07110  0.63960  Biso   1.000  O
  O28      1.0000 0.82400  0.92890  0.63960  Biso   1.000  O
  O29      1.0000 0.82400  0.57110  0.86040  Biso   1.000  O
  O30      1.0000 0.17600  0.42890  0.86040  Biso   1.000  O
  O31      1.0000 0.17600  0.57110  0.13960  Biso   1.000  O
  O32      1.0000 0.82400  0.42890  0.13960  Biso   1.000  O
  C1       1.0000 0.65520  0.91470  0.13080  Biso   1.000  C
  C2       1.0000 0.34480  0.08530  0.13080  Biso   1.000  C
  C3       1.0000 0.34480  0.91470  0.86920  Biso   1.000  C
  C4       1.0000 0.65520  0.08530  0.86920  Biso   1.000  C
  C5       1.0000 0.65520  0.41470  0.63080  Biso   1.000  C
  C6       1.0000 0.34480  0.58530  0.63080  Biso   1.000  C
  C7       1.0000 0.34480  0.41470  0.36920  Biso   1.000  C
  C8       1.0000 0.65520  0.58530  0.36920  Biso   1.000  C
  C9       1.0000 0.15520  0.91470  0.63080  Biso   1.000  C
  C10      1.0000 0.84480  0.08530  0.63080  Biso   1.000  C
  C11      1.0000 0.84480  0.91470  0.36920  Biso   1.000  C
  C12      1.0000 0.15520  0.08530  0.36920  Biso   1.000  C
  C13      1.0000 0.15520  0.41470  0.13080  Biso   1.000  C
  C14      1.0000 0.84480  0.58530  0.13080  Biso   1.000  C
  C15      1.0000 0.84480  0.41470  0.86920  Biso   1.000  C
  C16      1.0000 0.15520  0.58530  0.86920  Biso   1.000  C
  C17      1.0000 0.34480  0.08530  0.86920  Biso   1.000  C
  C18      1.0000 0.65520  0.91470  0.86920  Biso   1.000  C
  C19      1.0000 0.65520  0.08530  0.13080  Biso   1.000  C
  C20      1.0000 0.34480  0.91470  0.13080  Biso   1.000  C
  C21      1.0000 0.34480  0.58530  0.36920  Biso   1.000  C
  C22      1.0000 0.65520  0.41470  0.36920  Biso   1.000  C
  C23      1.0000 0.65520  0.58530  0.63080  Biso   1.000  C
  C24      1.0000 0.34480  0.41470  0.63080  Biso   1.000  C
  C25      1.0000 0.84480  0.08530  0.36920  Biso   1.000  C
  C26      1.0000 0.15520  0.91470  0.36920  Biso   1.000  C
  C27      1.0000 0.15520  0.08530  0.63080  Biso   1.000  C
  C28      1.0000 0.84480  0.91470  0.63080  Biso   1.000  C
  C29      1.0000 0.84480  0.58530  0.86920  Biso   1.000  C
  C30      1.0000 0.15520  0.41470  0.86920  Biso   1.000  C
  C31      1.0000 0.15520  0.58530  0.13080  Biso   1.000  C
  C32      1.0000 0.84480  0.41470  0.13080  Biso   1.000  C
  O33      1.0000 0.61887  0.97364  0.29751  Biso   1.000  O
  O34      1.0000 0.38113  0.02636  0.29751  Biso   1.000  O
  O35      1.0000 0.38113  0.97364  0.70249  Biso   1.000  O
  O36      1.0000 0.61887  0.02636  0.70249  Biso   1.000  O
  O37      1.0000 0.61887  0.47364  0.79751  Biso   1.000  O
  O38      1.0000 0.38113  0.52636  0.79751  Biso   1.000  O
  O39      1.0000 0.38113  0.47364  0.20249  Biso   1.000  O
  O40      1.0000 0.61887  0.52636  0.20249  Biso   1.000  O
  O41      1.0000 0.11887  0.97364  0.79751  Biso   1.000  O
  O42      1.0000 0.88113  0.02636  0.79751  Biso   1.000  O
  O43      1.0000 0.88113  0.97364  0.20249  Biso   1.000  O
  O44      1.0000 0.11887  0.02636  0.20249  Biso   1.000  O
  O45      1.0000 0.11887  0.47364  0.29751  Biso   1.000  O
  O46      1.0000 0.88113  0.52636  0.29751  Biso   1.000  O
  O47      1.0000 0.88113  0.47364  0.70249  Biso   1.000  O
  O48      1.0000 0.11887  0.52636  0.70249  Biso   1.000  O
  O49      1.0000 0.38113  0.02636  0.70249  Biso   1.000  O
  O50      1.0000 0.61887  0.97364  0.70249  Biso   1.000  O
  O51      1.0000 0.61887  0.02636  0.29751  Biso   1.000  O
  O52      1.0000 0.38113  0.97364  0.29751  Biso   1.000  O
  O53      1.0000 0.38113  0.52636  0.20249  Biso   1.000  O
  O54      1.0000 0.61887  0.47364  0.20249  Biso   1.000  O
  O55      1.0000 0.61887  0.52636  0.79751  Biso   1.000  O
  O56      1.0000 0.38113  0.47364  0.79751  Biso   1.000  O
  O57      1.0000 0.88113  0.02636  0.20249  Biso   1.000  O
  O58      1.0000 0.11887  0.97364  0.20249  Biso   1.000  O
  O59      1.0000 0.11887  0.02636  0.79751  Biso   1.000  O
  O60      1.0000 0.88113  0.97364  0.79751  Biso   1.000  O
  O61      1.0000 0.88113  0.52636  0.70249  Biso   1.000  O
  O62      1.0000 0.11887  0.47364  0.70249  Biso   1.000  O
  O63      1.0000 0.11887  0.52636  0.29751  Biso   1.000  O
  O64      1.0000 0.88113  0.47364  0.29751  Biso   1.000  O
  O65      1.0000 0.65672  0.97390  0.24863  Biso   1.000  O
  O66      1.0000 0.34328  0.02610  0.24863  Biso   1.000  O
  O67      1.0000 0.34328  0.97390  0.75137  Biso   1.000  O
  O68      1.0000 0.65672  0.02610  0.75137  Biso   1.000  O
  O69      1.0000 0.65672  0.47390  0.74863  Biso   1.000  O
  O70      1.0000 0.34328  0.52610  0.74863  Biso   1.000  O
  O71      1.0000 0.34328  0.47390  0.25137  Biso   1.000  O
  O72      1.0000 0.65672  0.52610  0.25137  Biso   1.000  O
  O73      1.0000 0.15672  0.97390  0.74863  Biso   1.000  O
  O74      1.0000 0.84328  0.02610  0.74863  Biso   1.000  O
  O75      1.0000 0.84328  0.97390  0.25137  Biso   1.000  O
  O76      1.0000 0.15672  0.02610  0.25137  Biso   1.000  O
  O77      1.0000 0.15672  0.47390  0.24863  Biso   1.000  O
  O78      1.0000 0.84328  0.52610  0.24863  Biso   1.000  O
  O79      1.0000 0.84328  0.47390  0.75137  Biso   1.000  O
  O80      1.0000 0.15672  0.52610  0.75137  Biso   1.000  O
  O81      1.0000 0.34328  0.02610  0.75137  Biso   1.000  O
  O82      1.0000 0.65672  0.97390  0.75137  Biso   1.000  O
  O83      1.0000 0.65672  0.02610  0.24863  Biso   1.000  O
  O84      1.0000 0.34328  0.97390  0.24863  Biso   1.000  O
  O85      1.0000 0.34328  0.52610  0.25137  Biso   1.000  O
  O86      1.0000 0.65672  0.47390  0.25137  Biso   1.000  O
  O87      1.0000 0.65672  0.52610  0.74863  Biso   1.000  O
  O88      1.0000 0.34328  0.47390  0.74863  Biso   1.000  O
  O89      1.0000 0.84328  0.02610  0.25137  Biso   1.000  O
  O90      1.0000 0.15672  0.97390  0.25137  Biso   1.000  O
  O91      1.0000 0.15672  0.02610  0.74863  Biso   1.000  O
  O92      1.0000 0.84328  0.97390  0.74863  Biso   1.000  O
  O93      1.0000 0.84328  0.52610  0.75137  Biso   1.000  O
  O94      1.0000 0.15672  0.47390  0.75137  Biso   1.000  O
  O95      1.0000 0.15672  0.52610  0.24863  Biso   1.000  O
  O96      1.0000 0.84328  0.47390  0.24863  Biso   1.000  O
  O97      1.0000 0.53240  0.91283  0.28689  Biso   1.000  O
  O98      1.0000 0.46760  0.08717  0.28689  Biso   1.000  O
  O99      1.0000 0.46760  0.91283  0.71311  Biso   1.000  O
  O100     1.0000 0.53240  0.08717  0.71311  Biso   1.000  O
  O101     1.0000 0.53240  0.41283  0.78689  Biso   1.000  O
  O102     1.0000 0.46760  0.58717  0.78689  Biso   1.000  O
  O103     1.0000 0.46760  0.41283  0.21311  Biso   1.000  O
  O104     1.0000 0.53240  0.58717  0.21311  Biso   1.000  O
  O105     1.0000 0.03240  0.91283  0.78689  Biso   1.000  O
  O106     1.0000 0.96760  0.08717  0.78689  Biso   1.000  O
  O107     1.0000 0.96760  0.91283  0.21311  Biso   1.000  O
  O108     1.0000 0.03240  0.08717  0.21311  Biso   1.000  O
  O109     1.0000 0.03240  0.41283  0.28689  Biso   1.000  O
  O110     1.0000 0.96760  0.58717  0.28689  Biso   1.000  O
  O111     1.0000 0.96760  0.41283  0.71311  Biso   1.000  O
  O112     1.0000 0.03240  0.58717  0.71311  Biso   1.000  O
  O113     1.0000 0.46760  0.08717  0.71311  Biso   1.000  O
  O114     1.0000 0.53240  0.91283  0.71311  Biso   1.000  O
  O115     1.0000 0.53240  0.08717  0.28689  Biso   1.000  O
  O116     1.0000 0.46760  0.91283  0.28689  Biso   1.000  O
  O117     1.0000 0.46760  0.58717  0.21311  Biso   1.000  O
  O118     1.0000 0.53240  0.41283  0.21311  Biso   1.000  O
  O119     1.0000 0.53240  0.58717  0.78689  Biso   1.000  O
  O120     1.0000 0.46760  0.41283  0.78689  Biso   1.000  O
  O121     1.0000 0.96760  0.08717  0.21311  Biso   1.000  O
  O122     1.0000 0.03240  0.91283  0.21311  Biso   1.000  O
  O123     1.0000 0.03240  0.08717  0.78689  Biso   1.000  O
  O124     1.0000 0.96760  0.91283  0.78689  Biso   1.000  O
  O125     1.0000 0.96760  0.58717  0.71311  Biso   1.000  O
  O126     1.0000 0.03240  0.41283  0.71311  Biso   1.000  O
  O127     1.0000 0.03240  0.58717  0.28689  Biso   1.000  O
  O128     1.0000 0.96760  0.41283  0.28689  Biso   1.000  O
  O129     1.0000 0.53280  0.88405  0.23653  Biso   1.000  O
  O130     1.0000 0.46720  0.11595  0.23653  Biso   1.000  O
  O131     1.0000 0.46720  0.88405  0.76347  Biso   1.000  O
  O132     1.0000 0.53280  0.11595  0.76347  Biso   1.000  O
  O133     1.0000 0.53280  0.38405  0.73653  Biso   1.000  O
  O134     1.0000 0.46720  0.61595  0.73653  Biso   1.000  O
  O135     1.0000 0.46720  0.38405  0.26347  Biso   1.000  O
  O136     1.0000 0.53280  0.61595  0.26347  Biso   1.000  O
  O137     1.0000 0.03280  0.88405  0.73653  Biso   1.000  O
  O138     1.0000 0.96720  0.11595  0.73653  Biso   1.000  O
  O139     1.0000 0.96720  0.88405  0.26347  Biso   1.000  O
  O140     1.0000 0.03280  0.11595  0.26347  Biso   1.000  O
  O141     1.0000 0.03280  0.38405  0.23653  Biso   1.000  O
  O142     1.0000 0.96720  0.61595  0.23653  Biso   1.000  O
  O143     1.0000 0.96720  0.38405  0.76347  Biso   1.000  O
  O144     1.0000 0.03280  0.61595  0.76347  Biso   1.000  O
  O145     1.0000 0.46720  0.11595  0.76347  Biso   1.000  O
  O146     1.0000 0.53280  0.88405  0.76347  Biso   1.000  O
  O147     1.0000 0.53280  0.11595  0.23653  Biso   1.000  O
  O148     1.0000 0.46720  0.88405  0.23653  Biso   1.000  O
  O149     1.0000 0.46720  0.61595  0.26347  Biso   1.000  O
  O150     1.0000 0.53280  0.38405  0.26347  Biso   1.000  O
  O151     1.0000 0.53280  0.61595  0.73653  Biso   1.000  O
  O152     1.0000 0.46720  0.38405  0.73653  Biso   1.000  O
  O153     1.0000 0.96720  0.11595  0.26347  Biso   1.000  O
  O154     1.0000 0.03280  0.88405  0.26347  Biso   1.000  O
  O155     1.0000 0.03280  0.11595  0.73653  Biso   1.000  O
  O156     1.0000 0.96720  0.88405  0.73653  Biso   1.000  O
  O157     1.0000 0.96720  0.61595  0.76347  Biso   1.000  O
  O158     1.0000 0.03280  0.38405  0.76347  Biso   1.000  O
  O159     1.0000 0.03280  0.61595  0.23653  Biso   1.000  O
  O160     1.0000 0.96720  0.38405  0.23653  Biso   1.000  O
  N1       1.0000 0.62163  0.91101  0.14169  Biso   1.000  N
  N2       1.0000 0.37837  0.08899  0.14169  Biso   1.000  N
  N3       1.0000 0.37837  0.91101  0.85831  Biso   1.000  N
  N4       1.0000 0.62163  0.08899  0.85831  Biso   1.000  N
  N5       1.0000 0.62163  0.41101  0.64169  Biso   1.000  N
  N6       1.0000 0.37837  0.58899  0.64169  Biso   1.000  N
  N7       1.0000 0.37837  0.41101  0.35831  Biso   1.000  N
  N8       1.0000 0.62163  0.58899  0.35831  Biso   1.000  N
  N9       1.0000 0.12163  0.91101  0.64169  Biso   1.000  N
  N10      1.0000 0.87837  0.08899  0.64169  Biso   1.000  N
  N11      1.0000 0.87837  0.91101  0.35831  Biso   1.000  N
  N12      1.0000 0.12163  0.08899  0.35831  Biso   1.000  N
  N13      1.0000 0.12163  0.41101  0.14169  Biso   1.000  N
  N14      1.0000 0.87837  0.58899  0.14169  Biso   1.000  N
  N15      1.0000 0.87837  0.41101  0.85831  Biso   1.000  N
  N16      1.0000 0.12163  0.58899  0.85831  Biso   1.000  N
  N17      1.0000 0.37837  0.08899  0.85831  Biso   1.000  N
  N18      1.0000 0.62163  0.91101  0.85831  Biso   1.000  N
  N19      1.0000 0.62163  0.08899  0.14169  Biso   1.000  N
  N20      1.0000 0.37837  0.91101  0.14169  Biso   1.000  N
  N21      1.0000 0.37837  0.58899  0.35831  Biso   1.000  N
  N22      1.0000 0.62163  0.41101  0.35831  Biso   1.000  N
  N23      1.0000 0.62163  0.58899  0.64169  Biso   1.000  N
  N24      1.0000 0.37837  0.41101  0.64169  Biso   1.000  N
  N25      1.0000 0.87837  0.08899  0.35831  Biso   1.000  N
  N26      1.0000 0.12163  0.91101  0.35831  Biso   1.000  N
  N27      1.0000 0.12163  0.08899  0.64169  Biso   1.000  N
  N28      1.0000 0.87837  0.91101  0.64169  Biso   1.000  N
  N29      1.0000 0.87837  0.58899  0.85831  Biso   1.000  N
  N30      1.0000 0.12163  0.41101  0.85831  Biso   1.000  N
  N31      1.0000 0.12163  0.58899  0.14169  Biso   1.000  N
  N32      1.0000 0.87837  0.41101  0.14169  Biso   1.000  N
  C33      1.0000 0.61401  0.94621  0.24000  Biso   1.000  C
  C34      1.0000 0.38599  0.05379  0.24000  Biso   1.000  C
  C35      1.0000 0.38599  0.94621  0.76000  Biso   1.000  C
  C36      1.0000 0.61401  0.05379  0.76000  Biso   1.000  C
  C37      1.0000 0.61401  0.44621  0.74000  Biso   1.000  C
  C38      1.0000 0.38599  0.55379  0.74000  Biso   1.000  C
  C39      1.0000 0.38599  0.44621  0.26000  Biso   1.000  C
  C40      1.0000 0.61401  0.55379  0.26000  Biso   1.000  C
  C41      1.0000 0.11401  0.94621  0.74000  Biso   1.000  C
  C42      1.0000 0.88599  0.05379  0.74000  Biso   1.000  C
  C43      1.0000 0.88599  0.94621  0.26000  Biso   1.000  C
  C44      1.0000 0.11401  0.05379  0.26000  Biso   1.000  C
  C45      1.0000 0.11401  0.44621  0.24000  Biso   1.000  C
  C46      1.0000 0.88599  0.55379  0.24000  Biso   1.000  C
  C47      1.0000 0.88599  0.44621  0.76000  Biso   1.000  C
  C48      1.0000 0.11401  0.55379  0.76000  Biso   1.000  C
  C49      1.0000 0.38599  0.05379  0.76000  Biso   1.000  C
  C50      1.0000 0.61401  0.94621  0.76000  Biso   1.000  C
  C51      1.0000 0.61401  0.05379  0.24000  Biso   1.000  C
  C52      1.0000 0.38599  0.94621  0.24000  Biso   1.000  C
  C53      1.0000 0.38599  0.55379  0.26000  Biso   1.000  C
  C54      1.0000 0.61401  0.44621  0.26000  Biso   1.000  C
  C55      1.0000 0.61401  0.55379  0.74000  Biso   1.000  C
  C56      1.0000 0.38599  0.44621  0.74000  Biso   1.000  C
  C57      1.0000 0.88599  0.05379  0.26000  Biso   1.000  C
  C58      1.0000 0.11401  0.94621  0.26000  Biso   1.000  C
  C59      1.0000 0.11401  0.05379  0.74000  Biso   1.000  C
  C60      1.0000 0.88599  0.94621  0.74000  Biso   1.000  C
  C61      1.0000 0.88599  0.55379  0.76000  Biso   1.000  C
  C62      1.0000 0.11401  0.44621  0.76000  Biso   1.000  C
  C63      1.0000 0.11401  0.55379  0.24000  Biso   1.000  C
  C64      1.0000 0.88599  0.44621  0.24000  Biso   1.000  C
  C65      1.0000 0.58621  0.93511  0.25690  Biso   1.000  C
  C66      1.0000 0.41379  0.06489  0.25690  Biso   1.000  C
  C67      1.0000 0.41379  0.93511  0.74310  Biso   1.000  C
  C68      1.0000 0.58621  0.06489  0.74310  Biso   1.000  C
  C69      1.0000 0.58621  0.43511  0.75690  Biso   1.000  C
  C70      1.0000 0.41379  0.56489  0.75690  Biso   1.000  C
  C71      1.0000 0.41379  0.43511  0.24310  Biso   1.000  C
  C72      1.0000 0.58621  0.56489  0.24310  Biso   1.000  C
  C73      1.0000 0.08621  0.93511  0.75690  Biso   1.000  C
  C74      1.0000 0.91379  0.06489  0.75690  Biso   1.000  C
  C75      1.0000 0.91379  0.93511  0.24310  Biso   1.000  C
  C76      1.0000 0.08621  0.06489  0.24310  Biso   1.000  C
  C77      1.0000 0.08621  0.43511  0.25690  Biso   1.000  C
  C78      1.0000 0.91379  0.56489  0.25690  Biso   1.000  C
  C79      1.0000 0.91379  0.43511  0.74310  Biso   1.000  C
  C80      1.0000 0.08621  0.56489  0.74310  Biso   1.000  C
  C81      1.0000 0.41379  0.06489  0.74310  Biso   1.000  C
  C82      1.0000 0.58621  0.93511  0.74310  Biso   1.000  C
  C83      1.0000 0.58621  0.06489  0.25690  Biso   1.000  C
  C84      1.0000 0.41379  0.93511  0.25690  Biso   1.000  C
  C85      1.0000 0.41379  0.56489  0.24310  Biso   1.000  C
  C86      1.0000 0.58621  0.43511  0.24310  Biso   1.000  C
  C87      1.0000 0.58621  0.56489  0.75690  Biso   1.000  C
  C88      1.0000 0.41379  0.43511  0.75690  Biso   1.000  C
  C89      1.0000 0.91379  0.06489  0.24310  Biso   1.000  C
  C90      1.0000 0.08621  0.93511  0.24310  Biso   1.000  C
  C91      1.0000 0.08621  0.06489  0.75690  Biso   1.000  C
  C92      1.0000 0.91379  0.93511  0.75690  Biso   1.000  C
  C93      1.0000 0.91379  0.56489  0.74310  Biso   1.000  C
  C94      1.0000 0.08621  0.43511  0.74310  Biso   1.000  C
  C95      1.0000 0.08621  0.56489  0.25690  Biso   1.000  C
  C96      1.0000 0.91379  0.43511  0.25690  Biso   1.000  C
  H1       1.0000 0.57850  0.94050  0.28310  Biso   1.000  H
  H2       1.0000 0.42150  0.05950  0.28310  Biso   1.000  H
  H3       1.0000 0.42150  0.94050  0.71690  Biso   1.000  H
  H4       1.0000 0.57850  0.05950  0.71690  Biso   1.000  H
  H5       1.0000 0.57850  0.44050  0.78310  Biso   1.000  H
  H6       1.0000 0.42150  0.55950  0.78310  Biso   1.000  H
  H7       1.0000 0.42150  0.44050  0.21690  Biso   1.000  H
  H8       1.0000 0.57850  0.55950  0.21690  Biso   1.000  H
  H9       1.0000 0.07850  0.94050  0.78310  Biso   1.000  H
  H10      1.0000 0.92150  0.05950  0.78310  Biso   1.000  H
  H11      1.0000 0.92150  0.94050  0.21690  Biso   1.000  H
  H12      1.0000 0.07850  0.05950  0.21690  Biso   1.000  H
  H13      1.0000 0.07850  0.44050  0.28310  Biso   1.000  H
  H14      1.0000 0.92150  0.55950  0.28310  Biso   1.000  H
  H15      1.0000 0.92150  0.44050  0.71690  Biso   1.000  H
  H16      1.0000 0.07850  0.55950  0.71690  Biso   1.000  H
  H17      1.0000 0.42150  0.05950  0.71690  Biso   1.000  H
  H18      1.0000 0.57850  0.94050  0.71690  Biso   1.000  H
  H19      1.0000 0.57850  0.05950  0.28310  Biso   1.000  H
  H20      1.0000 0.42150  0.94050  0.28310  Biso   1.000  H
  H21      1.0000 0.42150  0.55950  0.21690  Biso   1.000  H
  H22      1.0000 0.57850  0.44050  0.21690  Biso   1.000  H
  H23      1.0000 0.57850  0.55950  0.78310  Biso   1.000  H
  H24      1.0000 0.42150  0.44050  0.78310  Biso   1.000  H
  H25      1.0000 0.92150  0.05950  0.21690  Biso   1.000  H
  H26      1.0000 0.07850  0.94050  0.21690  Biso   1.000  H
  H27      1.0000 0.07850  0.05950  0.78310  Biso   1.000  H
  H28      1.0000 0.92150  0.94050  0.78310  Biso   1.000  H
  H29      1.0000 0.92150  0.55950  0.71690  Biso   1.000  H
  H30      1.0000 0.07850  0.44050  0.71690  Biso   1.000  H
  H31      1.0000 0.07850  0.55950  0.28310  Biso   1.000  H
  H32      1.0000 0.92150  0.44050  0.28310  Biso   1.000  H
  C97      1.0000 0.57058  0.91647  0.23472  Biso   1.000  C
  C98      1.0000 0.42942  0.08353  0.23472  Biso   1.000  C
  C99      1.0000 0.42942  0.91647  0.76528  Biso   1.000  C
  C100     1.0000 0.57058  0.08353  0.76528  Biso   1.000  C
  C101     1.0000 0.57058  0.41647  0.73472  Biso   1.000  C
  C102     1.0000 0.42942  0.58353  0.73472  Biso   1.000  C
  C103     1.0000 0.42942  0.41647  0.26528  Biso   1.000  C
  C104     1.0000 0.57058  0.58353  0.26528  Biso   1.000  C
  C105     1.0000 0.07058  0.91647  0.73472  Biso   1.000  C
  C106     1.0000 0.92942  0.08353  0.73472  Biso   1.000  C
  C107     1.0000 0.92942  0.91647  0.26528  Biso   1.000  C
  C108     1.0000 0.07058  0.08353  0.26528  Biso   1.000  C
  C109     1.0000 0.07058  0.41647  0.23472  Biso   1.000  C
  C110     1.0000 0.92942  0.58353  0.23472  Biso   1.000  C
  C111     1.0000 0.92942  0.41647  0.76528  Biso   1.000  C
  C112     1.0000 0.07058  0.58353  0.76528  Biso   1.000  C
  C113     1.0000 0.42942  0.08353  0.76528  Biso   1.000  C
  C114     1.0000 0.57058  0.91647  0.76528  Biso   1.000  C
  C115     1.0000 0.57058  0.08353  0.23472  Biso   1.000  C
  C116     1.0000 0.42942  0.91647  0.23472  Biso   1.000  C
  C117     1.0000 0.42942  0.58353  0.26528  Biso   1.000  C
  C118     1.0000 0.57058  0.41647  0.26528  Biso   1.000  C
  C119     1.0000 0.57058  0.58353  0.73472  Biso   1.000  C
  C120     1.0000 0.42942  0.41647  0.73472  Biso   1.000  C
  C121     1.0000 0.92942  0.08353  0.26528  Biso   1.000  C
  C122     1.0000 0.07058  0.91647  0.26528  Biso   1.000  C
  C123     1.0000 0.07058  0.08353  0.73472  Biso   1.000  C
  C124     1.0000 0.92942  0.91647  0.73472  Biso   1.000  C
  C125     1.0000 0.92942  0.58353  0.76528  Biso   1.000  C
  C126     1.0000 0.07058  0.41647  0.76528  Biso   1.000  C
  C127     1.0000 0.07058  0.58353  0.23472  Biso   1.000  C
  C128     1.0000 0.92942  0.41647  0.23472  Biso   1.000  C
  C129     1.0000 0.58230  0.90798  0.19687  Biso   1.000  C
  C130     1.0000 0.41770  0.09202  0.19687  Biso   1.000  C
  C131     1.0000 0.41770  0.90798  0.80313  Biso   1.000  C
  C132     1.0000 0.58230  0.09202  0.80313  Biso   1.000  C
  C133     1.0000 0.58230  0.40798  0.69687  Biso   1.000  C
  C134     1.0000 0.41770  0.59202  0.69687  Biso   1.000  C
  C135     1.0000 0.41770  0.40798  0.30313  Biso   1.000  C
  C136     1.0000 0.58230  0.59202  0.30313  Biso   1.000  C
  C137     1.0000 0.08230  0.90798  0.69687  Biso   1.000  C
  C138     1.0000 0.91770  0.09202  0.69687  Biso   1.000  C
  C139     1.0000 0.91770  0.90798  0.30313  Biso   1.000  C
  C140     1.0000 0.08230  0.09202  0.30313  Biso   1.000  C
  C141     1.0000 0.08230  0.40798  0.19687  Biso   1.000  C
  C142     1.0000 0.91770  0.59202  0.19687  Biso   1.000  C
  C143     1.0000 0.91770  0.40798  0.80313  Biso   1.000  C
  C144     1.0000 0.08230  0.59202  0.80313  Biso   1.000  C
  C145     1.0000 0.41770  0.09202  0.80313  Biso   1.000  C
  C146     1.0000 0.58230  0.90798  0.80313  Biso   1.000  C
  C147     1.0000 0.58230  0.09202  0.19687  Biso   1.000  C
  C148     1.0000 0.41770  0.90798  0.19687  Biso   1.000  C
  C149     1.0000 0.41770  0.59202  0.30313  Biso   1.000  C
  C150     1.0000 0.58230  0.40798  0.30313  Biso   1.000  C
  C151     1.0000 0.58230  0.59202  0.69687  Biso   1.000  C
  C152     1.0000 0.41770  0.40798  0.69687  Biso   1.000  C
  C153     1.0000 0.91770  0.09202  0.30313  Biso   1.000  C
  C154     1.0000 0.08230  0.90798  0.30313  Biso   1.000  C
  C155     1.0000 0.08230  0.09202  0.69687  Biso   1.000  C
  C156     1.0000 0.91770  0.90798  0.69687  Biso   1.000  C
  C157     1.0000 0.91770  0.59202  0.80313  Biso   1.000  C
  C158     1.0000 0.08230  0.40798  0.80313  Biso   1.000  C
  C159     1.0000 0.08230  0.59202  0.19687  Biso   1.000  C
  C160     1.0000 0.91770  0.40798  0.19687  Biso   1.000  C
  H33      1.0000 0.57160  0.89470  0.18220  Biso   1.000  H
  H34      1.0000 0.42840  0.10530  0.18220  Biso   1.000  H
  H35      1.0000 0.42840  0.89470  0.81780  Biso   1.000  H
  H36      1.0000 0.57160  0.10530  0.81780  Biso   1.000  H
  H37      1.0000 0.57160  0.39470  0.68220  Biso   1.000  H
  H38      1.0000 0.42840  0.60530  0.68220  Biso   1.000  H
  H39      1.0000 0.42840  0.39470  0.31780  Biso   1.000  H
  H40      1.0000 0.57160  0.60530  0.31780  Biso   1.000  H
  H41      1.0000 0.07160  0.89470  0.68220  Biso   1.000  H
  H42      1.0000 0.92840  0.10530  0.68220  Biso   1.000  H
  H43      1.0000 0.92840  0.89470  0.31780  Biso   1.000  H
  H44      1.0000 0.07160  0.10530  0.31780  Biso   1.000  H
  H45      1.0000 0.07160  0.39470  0.18220  Biso   1.000  H
  H46      1.0000 0.92840  0.60530  0.18220  Biso   1.000  H
  H47      1.0000 0.92840  0.39470  0.81780  Biso   1.000  H
  H48      1.0000 0.07160  0.60530  0.81780  Biso   1.000  H
  H49      1.0000 0.42840  0.10530  0.81780  Biso   1.000  H
  H50      1.0000 0.57160  0.89470  0.81780  Biso   1.000  H
  H51      1.0000 0.57160  0.10530  0.18220  Biso   1.000  H
  H52      1.0000 0.42840  0.89470  0.18220  Biso   1.000  H
  H53      1.0000 0.42840  0.60530  0.31780  Biso   1.000  H
  H54      1.0000 0.57160  0.39470  0.31780  Biso   1.000  H
  H55      1.0000 0.57160  0.60530  0.68220  Biso   1.000  H
  H56      1.0000 0.42840  0.39470  0.68220  Biso   1.000  H
  H57      1.0000 0.92840  0.10530  0.31780  Biso   1.000  H
  H58      1.0000 0.07160  0.89470  0.31780  Biso   1.000  H
  H59      1.0000 0.07160  0.10530  0.68220  Biso   1.000  H
  H60      1.0000 0.92840  0.89470  0.68220  Biso   1.000  H
  H61      1.0000 0.92840  0.60530  0.81780  Biso   1.000  H
  H62      1.0000 0.07160  0.39470  0.81780  Biso   1.000  H
  H63      1.0000 0.07160  0.60530  0.18220  Biso   1.000  H
  H64      1.0000 0.92840  0.39470  0.18220  Biso   1.000  H
  C161     1.0000 0.60999  0.91901  0.18020  Biso   1.000  C
  C162     1.0000 0.39001  0.08099  0.18020  Biso   1.000  C
  C163     1.0000 0.39001  0.91901  0.81980  Biso   1.000  C
  C164     1.0000 0.60999  0.08099  0.81980  Biso   1.000  C
  C165     1.0000 0.60999  0.41901  0.68020  Biso   1.000  C
  C166     1.0000 0.39001  0.58099  0.68020  Biso   1.000  C
  C167     1.0000 0.39001  0.41901  0.31980  Biso   1.000  C
  C168     1.0000 0.60999  0.58099  0.31980  Biso   1.000  C
  C169     1.0000 0.10999  0.91901  0.68020  Biso   1.000  C
  C170     1.0000 0.89001  0.08099  0.68020  Biso   1.000  C
  C171     1.0000 0.89001  0.91901  0.31980  Biso   1.000  C
  C172     1.0000 0.10999  0.08099  0.31980  Biso   1.000  C
  C173     1.0000 0.10999  0.41901  0.18020  Biso   1.000  C
  C174     1.0000 0.89001  0.58099  0.18020  Biso   1.000  C
  C175     1.0000 0.89001  0.41901  0.81980  Biso   1.000  C
  C176     1.0000 0.10999  0.58099  0.81980  Biso   1.000  C
  C177     1.0000 0.39001  0.08099  0.81980  Biso   1.000  C
  C178     1.0000 0.60999  0.91901  0.81980  Biso   1.000  C
  C179     1.0000 0.60999  0.08099  0.18020  Biso   1.000  C
  C180     1.0000 0.39001  0.91901  0.18020  Biso   1.000  C
  C181     1.0000 0.39001  0.58099  0.31980  Biso   1.000  C
  C182     1.0000 0.60999  0.41901  0.31980  Biso   1.000  C
  C183     1.0000 0.60999  0.58099  0.68020  Biso   1.000  C
  C184     1.0000 0.39001  0.41901  0.68020  Biso   1.000  C
  C185     1.0000 0.89001  0.08099  0.31980  Biso   1.000  C
  C186     1.0000 0.10999  0.91901  0.31980  Biso   1.000  C
  C187     1.0000 0.10999  0.08099  0.68020  Biso   1.000  C
  C188     1.0000 0.89001  0.91901  0.68020  Biso   1.000  C
  C189     1.0000 0.89001  0.58099  0.81980  Biso   1.000  C
  C190     1.0000 0.10999  0.41901  0.81980  Biso   1.000  C
  C191     1.0000 0.10999  0.58099  0.18020  Biso   1.000  C
  C192     1.0000 0.89001  0.41901  0.18020  Biso   1.000  C
  C193     1.0000 0.62540  0.93756  0.20220  Biso   1.000  C
  C194     1.0000 0.37460  0.06244  0.20220  Biso   1.000  C
  C195     1.0000 0.37460  0.93756  0.79780  Biso   1.000  C
  C196     1.0000 0.62540  0.06244  0.79780  Biso   1.000  C
  C197     1.0000 0.62540  0.43756  0.70220  Biso   1.000  C
  C198     1.0000 0.37460  0.56244  0.70220  Biso   1.000  C
  C199     1.0000 0.37460  0.43756  0.29780  Biso   1.000  C
  C200     1.0000 0.62540  0.56244  0.29780  Biso   1.000  C
  C201     1.0000 0.12540  0.93756  0.70220  Biso   1.000  C
  C202     1.0000 0.87460  0.06244  0.70220  Biso   1.000  C
  C203     1.0000 0.87460  0.93756  0.29780  Biso   1.000  C
  C204     1.0000 0.12540  0.06244  0.29780  Biso   1.000  C
  C205     1.0000 0.12540  0.43756  0.20220  Biso   1.000  C
  C206     1.0000 0.87460  0.56244  0.20220  Biso   1.000  C
  C207     1.0000 0.87460  0.43756  0.79780  Biso   1.000  C
  C208     1.0000 0.12540  0.56244  0.79780  Biso   1.000  C
  C209     1.0000 0.37460  0.06244  0.79780  Biso   1.000  C
  C210     1.0000 0.62540  0.93756  0.79780  Biso   1.000  C
  C211     1.0000 0.62540  0.06244  0.20220  Biso   1.000  C
  C212     1.0000 0.37460  0.93756  0.20220  Biso   1.000  C
  C213     1.0000 0.37460  0.56244  0.29780  Biso   1.000  C
  C214     1.0000 0.62540  0.43756  0.29780  Biso   1.000  C
  C215     1.0000 0.62540  0.56244  0.70220  Biso   1.000  C
  C216     1.0000 0.37460  0.43756  0.70220  Biso   1.000  C
  C217     1.0000 0.87460  0.06244  0.29780  Biso   1.000  C
  C218     1.0000 0.12540  0.93756  0.29780  Biso   1.000  C
  C219     1.0000 0.12540  0.06244  0.70220  Biso   1.000  C
  C220     1.0000 0.87460  0.93756  0.70220  Biso   1.000  C
  C221     1.0000 0.87460  0.56244  0.79780  Biso   1.000  C
  C222     1.0000 0.12540  0.43756  0.79780  Biso   1.000  C
  C223     1.0000 0.12540  0.56244  0.20220  Biso   1.000  C
  C224     1.0000 0.87460  0.43756  0.20220  Biso   1.000  C
  H65      1.0000 0.64430  0.94470  0.19150  Biso   1.000  H
  H66      1.0000 0.35570  0.05530  0.19150  Biso   1.000  H
  H67      1.0000 0.35570  0.94470  0.80850  Biso   1.000  H
  H68      1.0000 0.64430  0.05530  0.80850  Biso   1.000  H
  H69      1.0000 0.64430  0.44470  0.69150  Biso   1.000  H
  H70      1.0000 0.35570  0.55530  0.69150  Biso   1.000  H
  H71      1.0000 0.35570  0.44470  0.30850  Biso   1.000  H
  H72      1.0000 0.64430  0.55530  0.30850  Biso   1.000  H
  H73      1.0000 0.14430  0.94470  0.69150  Biso   1.000  H
  H74      1.0000 0.85570  0.05530  0.69150  Biso   1.000  H
  H75      1.0000 0.85570  0.94470  0.30850  Biso   1.000  H
  H76      1.0000 0.14430  0.05530  0.30850  Biso   1.000  H
  H77      1.0000 0.14430  0.44470  0.19150  Biso   1.000  H
  H78      1.0000 0.85570  0.55530  0.19150  Biso   1.000  H
  H79      1.0000 0.85570  0.44470  0.80850  Biso   1.000  H
  H80      1.0000 0.14430  0.55530  0.80850  Biso   1.000  H
  H81      1.0000 0.35570  0.05530  0.80850  Biso   1.000  H
  H82      1.0000 0.64430  0.94470  0.80850  Biso   1.000  H
  H83      1.0000 0.64430  0.05530  0.19150  Biso   1.000  H
  H84      1.0000 0.35570  0.94470  0.19150  Biso   1.000  H
  H85      1.0000 0.35570  0.55530  0.30850  Biso   1.000  H
  H86      1.0000 0.64430  0.44470  0.30850  Biso   1.000  H
  H87      1.0000 0.64430  0.55530  0.69150  Biso   1.000  H
  H88      1.0000 0.35570  0.44470  0.69150  Biso   1.000  H
  H89      1.0000 0.85570  0.05530  0.30850  Biso   1.000  H
  H90      1.0000 0.14430  0.94470  0.30850  Biso   1.000  H
  H91      1.0000 0.14430  0.05530  0.69150  Biso   1.000  H
  H92      1.0000 0.85570  0.94470  0.69150  Biso   1.000  H
  H93      1.0000 0.85570  0.55530  0.80850  Biso   1.000  H
  H94      1.0000 0.14430  0.44470  0.80850  Biso   1.000  H
  H95      1.0000 0.14430  0.55530  0.19150  Biso   1.000  H
  H96      1.0000 0.85570  0.44470  0.19150  Biso   1.000  H
  C225     1.0000 0.63169  0.96618  0.26400  Biso   1.000  C
  C226     1.0000 0.36831  0.03382  0.26400  Biso   1.000  C
  C227     1.0000 0.36831  0.96618  0.73600  Biso   1.000  C
  C228     1.0000 0.63169  0.03382  0.73600  Biso   1.000  C
  C229     1.0000 0.63169  0.46618  0.76400  Biso   1.000  C
  C230     1.0000 0.36831  0.53382  0.76400  Biso   1.000  C
  C231     1.0000 0.36831  0.46618  0.23600  Biso   1.000  C
  C232     1.0000 0.63169  0.53382  0.23600  Biso   1.000  C
  C233     1.0000 0.13169  0.96618  0.76400  Biso   1.000  C
  C234     1.0000 0.86831  0.03382  0.76400  Biso   1.000  C
  C235     1.0000 0.86831  0.96618  0.23600  Biso   1.000  C
  C236     1.0000 0.13169  0.03382  0.23600  Biso   1.000  C
  C237     1.0000 0.13169  0.46618  0.26400  Biso   1.000  C
  C238     1.0000 0.86831  0.53382  0.26400  Biso   1.000  C
  C239     1.0000 0.86831  0.46618  0.73600  Biso   1.000  C
  C240     1.0000 0.13169  0.53382  0.73600  Biso   1.000  C
  C241     1.0000 0.36831  0.03382  0.73600  Biso   1.000  C
  C242     1.0000 0.63169  0.96618  0.73600  Biso   1.000  C
  C243     1.0000 0.63169  0.03382  0.26400  Biso   1.000  C
  C244     1.0000 0.36831  0.96618  0.26400  Biso   1.000  C
  C245     1.0000 0.36831  0.53382  0.23600  Biso   1.000  C
  C246     1.0000 0.63169  0.46618  0.23600  Biso   1.000  C
  C247     1.0000 0.63169  0.53382  0.76400  Biso   1.000  C
  C248     1.0000 0.36831  0.46618  0.76400  Biso   1.000  C
  C249     1.0000 0.86831  0.03382  0.23600  Biso   1.000  C
  C250     1.0000 0.13169  0.96618  0.23600  Biso   1.000  C
  C251     1.0000 0.13169  0.03382  0.76400  Biso   1.000  C
  C252     1.0000 0.86831  0.96618  0.76400  Biso   1.000  C
  C253     1.0000 0.86831  0.53382  0.73600  Biso   1.000  C
  C254     1.0000 0.13169  0.46618  0.73600  Biso   1.000  C
  C255     1.0000 0.13169  0.53382  0.26400  Biso   1.000  C
  C256     1.0000 0.86831  0.46618  0.26400  Biso   1.000  C
  C257     1.0000 0.54340  0.90348  0.25358  Biso   1.000  C
  C258     1.0000 0.45660  0.09652  0.25358  Biso   1.000  C
  C259     1.0000 0.45660  0.90348  0.74642  Biso   1.000  C
  C260     1.0000 0.54340  0.09652  0.74642  Biso   1.000  C
  C261     1.0000 0.54340  0.40348  0.75358  Biso   1.000  C
  C262     1.0000 0.45660  0.59652  0.75358  Biso   1.000  C
  C263     1.0000 0.45660  0.40348  0.24642  Biso   1.000  C
  C264     1.0000 0.54340  0.59652  0.24642  Biso   1.000  C
  C265     1.0000 0.04340  0.90348  0.75358  Biso   1.000  C
  C266     1.0000 0.95660  0.09652  0.75358  Biso   1.000  C
  C267     1.0000 0.95660  0.90348  0.24642  Biso   1.000  C
  C268     1.0000 0.04340  0.09652  0.24642  Biso   1.000  C
  C269     1.0000 0.04340  0.40348  0.25358  Biso   1.000  C
  C270     1.0000 0.95660  0.59652  0.25358  Biso   1.000  C
  C271     1.0000 0.95660  0.40348  0.74642  Biso   1.000  C
  C272     1.0000 0.04340  0.59652  0.74642  Biso   1.000  C
  C273     1.0000 0.45660  0.09652  0.74642  Biso   1.000  C
  C274     1.0000 0.54340  0.90348  0.74642  Biso   1.000  C
  C275     1.0000 0.54340  0.09652  0.25358  Biso   1.000  C
  C276     1.0000 0.45660  0.90348  0.25358  Biso   1.000  C
  C277     1.0000 0.45660  0.59652  0.24642  Biso   1.000  C
  C278     1.0000 0.54340  0.40348  0.24642  Biso   1.000  C
  C279     1.0000 0.54340  0.59652  0.75358  Biso   1.000  C
  C280     1.0000 0.45660  0.40348  0.75358  Biso   1.000  C
  C281     1.0000 0.95660  0.09652  0.24642  Biso   1.000  C
  C282     1.0000 0.04340  0.90348  0.24642  Biso   1.000  C
  C283     1.0000 0.04340  0.09652  0.75358  Biso   1.000  C
  C284     1.0000 0.95660  0.90348  0.75358  Biso   1.000  C
  C285     1.0000 0.95660  0.59652  0.74642  Biso   1.000  C
  C286     1.0000 0.04340  0.40348  0.74642  Biso   1.000  C
  C287     1.0000 0.04340  0.59652  0.25358  Biso   1.000  C
  C288     1.0000 0.95660  0.40348  0.25358  Biso   1.000  C
  O161     1.0000 0.56492  0.76495  0.30546  Biso   1.000  O
  O162     1.0000 0.43508  0.23505  0.30546  Biso   1.000  O
  O163     1.0000 0.43508  0.76495  0.69454  Biso   1.000  O
  O164     1.0000 0.56492  0.23505  0.69454  Biso   1.000  O
  O165     1.0000 0.56492  0.26495  0.80546  Biso   1.000  O
  O166     1.0000 0.43508  0.73505  0.80546  Biso   1.000  O
  O167     1.0000 0.43508  0.26495  0.19454  Biso   1.000  O
  O168     1.0000 0.56492  0.73505  0.19454  Biso   1.000  O
  O169     1.0000 0.06492  0.76495  0.80546  Biso   1.000  O
  O170     1.0000 0.93508  0.23505  0.80546  Biso   1.000  O
  O171     1.0000 0.93508  0.76495  0.19454  Biso   1.000  O
  O172     1.0000 0.06492  0.23505  0.19454  Biso   1.000  O
  O173     1.0000 0.06492  0.26495  0.30546  Biso   1.000  O
  O174     1.0000 0.93508  0.73505  0.30546  Biso   1.000  O
  O175     1.0000 0.93508  0.26495  0.69454  Biso   1.000  O
  O176     1.0000 0.06492  0.73505  0.69454  Biso   1.000  O
  O177     1.0000 0.43508  0.23505  0.69454  Biso   1.000  O
  O178     1.0000 0.56492  0.76495  0.69454  Biso   1.000  O
  O179     1.0000 0.56492  0.23505  0.30546  Biso   1.000  O
  O180     1.0000 0.43508  0.76495  0.30546  Biso   1.000  O
  O181     1.0000 0.43508  0.73505  0.19454  Biso   1.000  O
  O182     1.0000 0.56492  0.26495  0.19454  Biso   1.000  O
  O183     1.0000 0.56492  0.73505  0.80546  Biso   1.000  O
  O184     1.0000 0.43508  0.26495  0.80546  Biso   1.000  O
  O185     1.0000 0.93508  0.23505  0.19454  Biso   1.000  O
  O186     1.0000 0.06492  0.76495  0.19454  Biso   1.000  O
  O187     1.0000 0.06492  0.23505  0.80546  Biso   1.000  O
  O188     1.0000 0.93508  0.76495  0.80546  Biso   1.000  O
  O189     1.0000 0.93508  0.73505  0.69454  Biso   1.000  O
  O190     1.0000 0.06492  0.26495  0.69454  Biso   1.000  O
  O191     1.0000 0.06492  0.73505  0.30546  Biso   1.000  O
  O192     1.0000 0.93508  0.26495  0.30546  Biso   1.000  O
  O193     1.0000 0.73656  0.64401  0.35970  Biso   1.000  O
  O194     1.0000 0.26344  0.35599  0.35970  Biso   1.000  O
  O195     1.0000 0.26344  0.64401  0.64030  Biso   1.000  O
  O196     1.0000 0.73656  0.35599  0.64030  Biso   1.000  O
  O197     1.0000 0.73656  0.14401  0.85970  Biso   1.000  O
  O198     1.0000 0.26344  0.85599  0.85970  Biso   1.000  O
  O199     1.0000 0.26344  0.14401  0.14030  Biso   1.000  O
  O200     1.0000 0.73656  0.85599  0.14030  Biso   1.000  O
  O201     1.0000 0.23656  0.64401  0.85970  Biso   1.000  O
  O202     1.0000 0.76344  0.35599  0.85970  Biso   1.000  O
  O203     1.0000 0.76344  0.64401  0.14030  Biso   1.000  O
  O204     1.0000 0.23656  0.35599  0.14030  Biso   1.000  O
  O205     1.0000 0.23656  0.14401  0.35970  Biso   1.000  O
  O206     1.0000 0.76344  0.85599  0.35970  Biso   1.000  O
  O207     1.0000 0.76344  0.14401  0.64030  Biso   1.000  O
  O208     1.0000 0.23656  0.85599  0.64030  Biso   1.000  O
  O209     1.0000 0.26344  0.35599  0.64030  Biso   1.000  O
  O210     1.0000 0.73656  0.64401  0.64030  Biso   1.000  O
  O211     1.0000 0.73656  0.35599  0.35970  Biso   1.000  O
  O212     1.0000 0.26344  0.64401  0.35970  Biso   1.000  O
  O213     1.0000 0.26344  0.85599  0.14030  Biso   1.000  O
  O214     1.0000 0.73656  0.14401  0.14030  Biso   1.000  O
  O215     1.0000 0.73656  0.85599  0.85970  Biso   1.000  O
  O216     1.0000 0.26344  0.14401  0.85970  Biso   1.000  O
  O217     1.0000 0.76344  0.35599  0.14030  Biso   1.000  O
  O218     1.0000 0.23656  0.64401  0.14030  Biso   1.000  O
  O219     1.0000 0.23656  0.35599  0.85970  Biso   1.000  O
  O220     1.0000 0.76344  0.64401  0.85970  Biso   1.000  O
  O221     1.0000 0.76344  0.85599  0.64030  Biso   1.000  O
  O222     1.0000 0.23656  0.14401  0.64030  Biso   1.000  O
  O223     1.0000 0.23656  0.85599  0.35970  Biso   1.000  O
  O224     1.0000 0.76344  0.14401  0.35970  Biso   1.000  O
  C289     1.0000 0.58949  0.75993  0.32400  Biso   1.000  C
  C290     1.0000 0.41051  0.24007  0.32400  Biso   1.000  C
  C291     1.0000 0.41051  0.75993  0.67600  Biso   1.000  C
  C292     1.0000 0.58949  0.24007  0.67600  Biso   1.000  C
  C293     1.0000 0.58949  0.25993  0.82400  Biso   1.000  C
  C294     1.0000 0.41051  0.74007  0.82400  Biso   1.000  C
  C295     1.0000 0.41051  0.25993  0.17600  Biso   1.000  C
  C296     1.0000 0.58949  0.74007  0.17600  Biso   1.000  C
  C297     1.0000 0.08949  0.75993  0.82400  Biso   1.000  C
  C298     1.0000 0.91051  0.24007  0.82400  Biso   1.000  C
  C299     1.0000 0.91051  0.75993  0.17600  Biso   1.000  C
  C300     1.0000 0.08949  0.24007  0.17600  Biso   1.000  C
  C301     1.0000 0.08949  0.25993  0.32400  Biso   1.000  C
  C302     1.0000 0.91051  0.74007  0.32400  Biso   1.000  C
  C303     1.0000 0.91051  0.25993  0.67600  Biso   1.000  C
  C304     1.0000 0.08949  0.74007  0.67600  Biso   1.000  C
  C305     1.0000 0.41051  0.24007  0.67600  Biso   1.000  C
  C306     1.0000 0.58949  0.75993  0.67600  Biso   1.000  C
  C307     1.0000 0.58949  0.24007  0.32400  Biso   1.000  C
  C308     1.0000 0.41051  0.75993  0.32400  Biso   1.000  C
  C309     1.0000 0.41051  0.74007  0.17600  Biso   1.000  C
  C310     1.0000 0.58949  0.25993  0.17600  Biso   1.000  C
  C311     1.0000 0.58949  0.74007  0.82400  Biso   1.000  C
  C312     1.0000 0.41051  0.25993  0.82400  Biso   1.000  C
  C313     1.0000 0.91051  0.24007  0.17600  Biso   1.000  C
  C314     1.0000 0.08949  0.75993  0.17600  Biso   1.000  C
  C315     1.0000 0.08949  0.24007  0.82400  Biso   1.000  C
  C316     1.0000 0.91051  0.75993  0.82400  Biso   1.000  C
  C317     1.0000 0.91051  0.74007  0.67600  Biso   1.000  C
  C318     1.0000 0.08949  0.25993  0.67600  Biso   1.000  C
  C319     1.0000 0.08949  0.74007  0.32400  Biso   1.000  C
  C320     1.0000 0.91051  0.25993  0.32400  Biso   1.000  C
  C321     1.0000 0.60553  0.73437  0.31920  Biso   1.000  C
  C322     1.0000 0.39447  0.26563  0.31920  Biso   1.000  C
  C323     1.0000 0.39447  0.73437  0.68080  Biso   1.000  C
  C324     1.0000 0.60553  0.26563  0.68080  Biso   1.000  C
  C325     1.0000 0.60553  0.23437  0.81920  Biso   1.000  C
  C326     1.0000 0.39447  0.76563  0.81920  Biso   1.000  C
  C327     1.0000 0.39447  0.23437  0.18080  Biso   1.000  C
  C328     1.0000 0.60553  0.76563  0.18080  Biso   1.000  C
  C329     1.0000 0.10553  0.73437  0.81920  Biso   1.000  C
  C330     1.0000 0.89447  0.26563  0.81920  Biso   1.000  C
  C331     1.0000 0.89447  0.73437  0.18080  Biso   1.000  C
  C332     1.0000 0.10553  0.26563  0.18080  Biso   1.000  C
  C333     1.0000 0.10553  0.23437  0.31920  Biso   1.000  C
  C334     1.0000 0.89447  0.76563  0.31920  Biso   1.000  C
  C335     1.0000 0.89447  0.23437  0.68080  Biso   1.000  C
  C336     1.0000 0.10553  0.76563  0.68080  Biso   1.000  C
  C337     1.0000 0.39447  0.26563  0.68080  Biso   1.000  C
  C338     1.0000 0.60553  0.73437  0.68080  Biso   1.000  C
  C339     1.0000 0.60553  0.26563  0.31920  Biso   1.000  C
  C340     1.0000 0.39447  0.73437  0.31920  Biso   1.000  C
  C341     1.0000 0.39447  0.76563  0.18080  Biso   1.000  C
  C342     1.0000 0.60553  0.23437  0.18080  Biso   1.000  C
  C343     1.0000 0.60553  0.76563  0.81920  Biso   1.000  C
  C344     1.0000 0.39447  0.23437  0.81920  Biso   1.000  C
  C345     1.0000 0.89447  0.26563  0.18080  Biso   1.000  C
  C346     1.0000 0.10553  0.73437  0.18080  Biso   1.000  C
  C347     1.0000 0.10553  0.26563  0.81920  Biso   1.000  C
  C348     1.0000 0.89447  0.73437  0.81920  Biso   1.000  C
  C349     1.0000 0.89447  0.76563  0.68080  Biso   1.000  C
  C350     1.0000 0.10553  0.23437  0.68080  Biso   1.000  C
  C351     1.0000 0.10553  0.76563  0.31920  Biso   1.000  C
  C352     1.0000 0.89447  0.23437  0.31920  Biso   1.000  C
  H97      1.0000 0.62380  0.73060  0.33520  Biso   1.000  H
  H98      1.0000 0.37620  0.26940  0.33520  Biso   1.000  H
  H99      1.0000 0.37620  0.73060  0.66480  Biso   1.000  H
  H100     1.0000 0.62380  0.26940  0.66480  Biso   1.000  H
  H101     1.0000 0.62380  0.23060  0.83520  Biso   1.000  H
  H102     1.0000 0.37620  0.76940  0.83520  Biso   1.000  H
  H103     1.0000 0.37620  0.23060  0.16480  Biso   1.000  H
  H104     1.0000 0.62380  0.76940  0.16480  Biso   1.000  H
  H105     1.0000 0.12380  0.73060  0.83520  Biso   1.000  H
  H106     1.0000 0.87620  0.26940  0.83520  Biso   1.000  H
  H107     1.0000 0.87620  0.73060  0.16480  Biso   1.000  H
  H108     1.0000 0.12380  0.26940  0.16480  Biso   1.000  H
  H109     1.0000 0.12380  0.23060  0.33520  Biso   1.000  H
  H110     1.0000 0.87620  0.76940  0.33520  Biso   1.000  H
  H111     1.0000 0.87620  0.23060  0.66480  Biso   1.000  H
  H112     1.0000 0.12380  0.76940  0.66480  Biso   1.000  H
  H113     1.0000 0.37620  0.26940  0.66480  Biso   1.000  H
  H114     1.0000 0.62380  0.73060  0.66480  Biso   1.000  H
  H115     1.0000 0.62380  0.26940  0.33520  Biso   1.000  H
  H116     1.0000 0.37620  0.73060  0.33520  Biso   1.000  H
  H117     1.0000 0.37620  0.76940  0.16480  Biso   1.000  H
  H118     1.0000 0.62380  0.23060  0.16480  Biso   1.000  H
  H119     1.0000 0.62380  0.76940  0.83520  Biso   1.000  H
  H120     1.0000 0.37620  0.23060  0.83520  Biso   1.000  H
  H121     1.0000 0.87620  0.26940  0.16480  Biso   1.000  H
  H122     1.0000 0.12380  0.73060  0.16480  Biso   1.000  H
  H123     1.0000 0.12380  0.26940  0.83520  Biso   1.000  H
  H124     1.0000 0.87620  0.73060  0.83520  Biso   1.000  H
  H125     1.0000 0.87620  0.76940  0.66480  Biso   1.000  H
  H126     1.0000 0.12380  0.23060  0.66480  Biso   1.000  H
  H127     1.0000 0.12380  0.76940  0.33520  Biso   1.000  H
  H128     1.0000 0.87620  0.23060  0.33520  Biso   1.000  H
  C353     1.0000 0.59441  0.71709  0.29280  Biso   1.000  C
  C354     1.0000 0.40559  0.28291  0.29280  Biso   1.000  C
  C355     1.0000 0.40559  0.71709  0.70720  Biso   1.000  C
  C356     1.0000 0.59441  0.28291  0.70720  Biso   1.000  C
  C357     1.0000 0.59441  0.21709  0.79280  Biso   1.000  C
  C358     1.0000 0.40559  0.78291  0.79280  Biso   1.000  C
  C359     1.0000 0.40559  0.21709  0.20720  Biso   1.000  C
  C360     1.0000 0.59441  0.78291  0.20720  Biso   1.000  C
  C361     1.0000 0.09441  0.71709  0.79280  Biso   1.000  C
  C362     1.0000 0.90559  0.28291  0.79280  Biso   1.000  C
  C363     1.0000 0.90559  0.71709  0.20720  Biso   1.000  C
  C364     1.0000 0.09441  0.28291  0.20720  Biso   1.000  C
  C365     1.0000 0.09441  0.21709  0.29280  Biso   1.000  C
  C366     1.0000 0.90559  0.78291  0.29280  Biso   1.000  C
  C367     1.0000 0.90559  0.21709  0.70720  Biso   1.000  C
  C368     1.0000 0.09441  0.78291  0.70720  Biso   1.000  C
  C369     1.0000 0.40559  0.28291  0.70720  Biso   1.000  C
  C370     1.0000 0.59441  0.71709  0.70720  Biso   1.000  C
  C371     1.0000 0.59441  0.28291  0.29280  Biso   1.000  C
  C372     1.0000 0.40559  0.71709  0.29280  Biso   1.000  C
  C373     1.0000 0.40559  0.78291  0.20720  Biso   1.000  C
  C374     1.0000 0.59441  0.21709  0.20720  Biso   1.000  C
  C375     1.0000 0.59441  0.78291  0.79280  Biso   1.000  C
  C376     1.0000 0.40559  0.21709  0.79280  Biso   1.000  C
  C377     1.0000 0.90559  0.28291  0.20720  Biso   1.000  C
  C378     1.0000 0.09441  0.71709  0.20720  Biso   1.000  C
  C379     1.0000 0.09441  0.28291  0.79280  Biso   1.000  C
  C380     1.0000 0.90559  0.71709  0.79280  Biso   1.000  C
  C381     1.0000 0.90559  0.78291  0.70720  Biso   1.000  C
  C382     1.0000 0.09441  0.21709  0.70720  Biso   1.000  C
  C383     1.0000 0.09441  0.78291  0.29280  Biso   1.000  C
  C384     1.0000 0.90559  0.21709  0.29280  Biso   1.000  C
  H129     1.0000 0.57640  0.72180  0.27700  Biso   1.000  H
  H130     1.0000 0.42360  0.27820  0.27700  Biso   1.000  H
  H131     1.0000 0.42360  0.72180  0.72300  Biso   1.000  H
  H132     1.0000 0.57640  0.27820  0.72300  Biso   1.000  H
  H133     1.0000 0.57640  0.22180  0.77700  Biso   1.000  H
  H134     1.0000 0.42360  0.77820  0.77700  Biso   1.000  H
  H135     1.0000 0.42360  0.22180  0.22300  Biso   1.000  H
  H136     1.0000 0.57640  0.77820  0.22300  Biso   1.000  H
  H137     1.0000 0.07640  0.72180  0.77700  Biso   1.000  H
  H138     1.0000 0.92360  0.27820  0.77700  Biso   1.000  H
  H139     1.0000 0.92360  0.72180  0.22300  Biso   1.000  H
  H140     1.0000 0.07640  0.27820  0.22300  Biso   1.000  H
  H141     1.0000 0.07640  0.22180  0.27700  Biso   1.000  H
  H142     1.0000 0.92360  0.77820  0.27700  Biso   1.000  H
  H143     1.0000 0.92360  0.22180  0.72300  Biso   1.000  H
  H144     1.0000 0.07640  0.77820  0.72300  Biso   1.000  H
  H145     1.0000 0.42360  0.27820  0.72300  Biso   1.000  H
  H146     1.0000 0.57640  0.72180  0.72300  Biso   1.000  H
  H147     1.0000 0.57640  0.27820  0.27700  Biso   1.000  H
  H148     1.0000 0.42360  0.72180  0.27700  Biso   1.000  H
  H149     1.0000 0.42360  0.77820  0.22300  Biso   1.000  H
  H150     1.0000 0.57640  0.22180  0.22300  Biso   1.000  H
  H151     1.0000 0.57640  0.77820  0.77700  Biso   1.000  H
  H152     1.0000 0.42360  0.22180  0.77700  Biso   1.000  H
  H153     1.0000 0.92360  0.27820  0.22300  Biso   1.000  H
  H154     1.0000 0.07640  0.72180  0.22300  Biso   1.000  H
  H155     1.0000 0.07640  0.27820  0.77700  Biso   1.000  H
  H156     1.0000 0.92360  0.72180  0.77700  Biso   1.000  H
  H157     1.0000 0.92360  0.77820  0.72300  Biso   1.000  H
  H158     1.0000 0.07640  0.22180  0.72300  Biso   1.000  H
  H159     1.0000 0.07640  0.77820  0.27700  Biso   1.000  H
  H160     1.0000 0.92360  0.22180  0.27700  Biso   1.000  H
  C385     1.0000 0.60762  0.69094  0.28590  Biso   1.000  C
  C386     1.0000 0.39238  0.30906  0.28590  Biso   1.000  C
  C387     1.0000 0.39238  0.69094  0.71410  Biso   1.000  C
  C388     1.0000 0.60762  0.30906  0.71410  Biso   1.000  C
  C389     1.0000 0.60762  0.19094  0.78590  Biso   1.000  C
  C390     1.0000 0.39238  0.80906  0.78590  Biso   1.000  C
  C391     1.0000 0.39238  0.19094  0.21410  Biso   1.000  C
  C392     1.0000 0.60762  0.80906  0.21410  Biso   1.000  C
  C393     1.0000 0.10762  0.69094  0.78590  Biso   1.000  C
  C394     1.0000 0.89238  0.30906  0.78590  Biso   1.000  C
  C395     1.0000 0.89238  0.69094  0.21410  Biso   1.000  C
  C396     1.0000 0.10762  0.30906  0.21410  Biso   1.000  C
  C397     1.0000 0.10762  0.19094  0.28590  Biso   1.000  C
  C398     1.0000 0.89238  0.80906  0.28590  Biso   1.000  C
  C399     1.0000 0.89238  0.19094  0.71410  Biso   1.000  C
  C400     1.0000 0.10762  0.80906  0.71410  Biso   1.000  C
  C401     1.0000 0.39238  0.30906  0.71410  Biso   1.000  C
  C402     1.0000 0.60762  0.69094  0.71410  Biso   1.000  C
  C403     1.0000 0.60762  0.30906  0.28590  Biso   1.000  C
  C404     1.0000 0.39238  0.69094  0.28590  Biso   1.000  C
  C405     1.0000 0.39238  0.80906  0.21410  Biso   1.000  C
  C406     1.0000 0.60762  0.19094  0.21410  Biso   1.000  C
  C407     1.0000 0.60762  0.80906  0.78590  Biso   1.000  C
  C408     1.0000 0.39238  0.19094  0.78590  Biso   1.000  C
  C409     1.0000 0.89238  0.30906  0.21410  Biso   1.000  C
  C410     1.0000 0.10762  0.69094  0.21410  Biso   1.000  C
  C411     1.0000 0.10762  0.30906  0.78590  Biso   1.000  C
  C412     1.0000 0.89238  0.69094  0.78590  Biso   1.000  C
  C413     1.0000 0.89238  0.80906  0.71410  Biso   1.000  C
  C414     1.0000 0.10762  0.19094  0.71410  Biso   1.000  C
  C415     1.0000 0.10762  0.80906  0.28590  Biso   1.000  C
  C416     1.0000 0.89238  0.19094  0.28590  Biso   1.000  C
  C417     1.0000 0.63643  0.68380  0.30380  Biso   1.000  C
  C418     1.0000 0.36357  0.31620  0.30380  Biso   1.000  C
  C419     1.0000 0.36357  0.68380  0.69620  Biso   1.000  C
  C420     1.0000 0.63643  0.31620  0.69620  Biso   1.000  C
  C421     1.0000 0.63643  0.18380  0.80380  Biso   1.000  C
  C422     1.0000 0.36357  0.81620  0.80380  Biso   1.000  C
  C423     1.0000 0.36357  0.18380  0.19620  Biso   1.000  C
  C424     1.0000 0.63643  0.81620  0.19620  Biso   1.000  C
  C425     1.0000 0.13643  0.68380  0.80380  Biso   1.000  C
  C426     1.0000 0.86357  0.31620  0.80380  Biso   1.000  C
  C427     1.0000 0.86357  0.68380  0.19620  Biso   1.000  C
  C428     1.0000 0.13643  0.31620  0.19620  Biso   1.000  C
  C429     1.0000 0.13643  0.18380  0.30380  Biso   1.000  C
  C430     1.0000 0.86357  0.81620  0.30380  Biso   1.000  C
  C431     1.0000 0.86357  0.18380  0.69620  Biso   1.000  C
  C432     1.0000 0.13643  0.81620  0.69620  Biso   1.000  C
  C433     1.0000 0.36357  0.31620  0.69620  Biso   1.000  C
  C434     1.0000 0.63643  0.68380  0.69620  Biso   1.000  C
  C435     1.0000 0.63643  0.31620  0.30380  Biso   1.000  C
  C436     1.0000 0.36357  0.68380  0.30380  Biso   1.000  C
  C437     1.0000 0.36357  0.81620  0.19620  Biso   1.000  C
  C438     1.0000 0.63643  0.18380  0.19620  Biso   1.000  C
  C439     1.0000 0.63643  0.81620  0.80380  Biso   1.000  C
  C440     1.0000 0.36357  0.18380  0.80380  Biso   1.000  C
  C441     1.0000 0.86357  0.31620  0.19620  Biso   1.000  C
  C442     1.0000 0.13643  0.68380  0.19620  Biso   1.000  C
  C443     1.0000 0.13643  0.31620  0.80380  Biso   1.000  C
  C444     1.0000 0.86357  0.68380  0.80380  Biso   1.000  C
  C445     1.0000 0.86357  0.81620  0.69620  Biso   1.000  C
  C446     1.0000 0.13643  0.18380  0.69620  Biso   1.000  C
  C447     1.0000 0.13643  0.81620  0.30380  Biso   1.000  C
  C448     1.0000 0.86357  0.18380  0.30380  Biso   1.000  C
  H161     1.0000 0.64740  0.69570  0.32070  Biso   1.000  H
  H162     1.0000 0.35260  0.30430  0.32070  Biso   1.000  H
  H163     1.0000 0.35260  0.69570  0.67930  Biso   1.000  H
  H164     1.0000 0.64740  0.30430  0.67930  Biso   1.000  H
  H165     1.0000 0.64740  0.19570  0.82070  Biso   1.000  H
  H166     1.0000 0.35260  0.80430  0.82070  Biso   1.000  H
  H167     1.0000 0.35260  0.19570  0.17930  Biso   1.000  H
  H168     1.0000 0.64740  0.80430  0.17930  Biso   1.000  H
  H169     1.0000 0.14740  0.69570  0.82070  Biso   1.000  H
  H170     1.0000 0.85260  0.30430  0.82070  Biso   1.000  H
  H171     1.0000 0.85260  0.69570  0.17930  Biso   1.000  H
  H172     1.0000 0.14740  0.30430  0.17930  Biso   1.000  H
  H173     1.0000 0.14740  0.19570  0.32070  Biso   1.000  H
  H174     1.0000 0.85260  0.80430  0.32070  Biso   1.000  H
  H175     1.0000 0.85260  0.19570  0.67930  Biso   1.000  H
  H176     1.0000 0.14740  0.80430  0.67930  Biso   1.000  H
  H177     1.0000 0.35260  0.30430  0.67930  Biso   1.000  H
  H178     1.0000 0.64740  0.69570  0.67930  Biso   1.000  H
  H179     1.0000 0.64740  0.30430  0.32070  Biso   1.000  H
  H180     1.0000 0.35260  0.69570  0.32070  Biso   1.000  H
  H181     1.0000 0.35260  0.80430  0.17930  Biso   1.000  H
  H182     1.0000 0.64740  0.19570  0.17930  Biso   1.000  H
  H183     1.0000 0.64740  0.80430  0.82070  Biso   1.000  H
  H184     1.0000 0.35260  0.19570  0.82070  Biso   1.000  H
  H185     1.0000 0.85260  0.30430  0.17930  Biso   1.000  H
  H186     1.0000 0.14740  0.69570  0.17930  Biso   1.000  H
  H187     1.0000 0.14740  0.30430  0.82070  Biso   1.000  H
  H188     1.0000 0.85260  0.69570  0.82070  Biso   1.000  H
  H189     1.0000 0.85260  0.80430  0.67930  Biso   1.000  H
  H190     1.0000 0.14740  0.19570  0.67930  Biso   1.000  H
  H191     1.0000 0.14740  0.80430  0.32070  Biso   1.000  H
  H192     1.0000 0.85260  0.19570  0.32070  Biso   1.000  H
  C449     1.0000 0.64923  0.65973  0.29740  Biso   1.000  C
  C450     1.0000 0.35077  0.34027  0.29740  Biso   1.000  C
  C451     1.0000 0.35077  0.65973  0.70260  Biso   1.000  C
  C452     1.0000 0.64923  0.34027  0.70260  Biso   1.000  C
  C453     1.0000 0.64923  0.15973  0.79740  Biso   1.000  C
  C454     1.0000 0.35077  0.84027  0.79740  Biso   1.000  C
  C455     1.0000 0.35077  0.15973  0.20260  Biso   1.000  C
  C456     1.0000 0.64923  0.84027  0.20260  Biso   1.000  C
  C457     1.0000 0.14923  0.65973  0.79740  Biso   1.000  C
  C458     1.0000 0.85077  0.34027  0.79740  Biso   1.000  C
  C459     1.0000 0.85077  0.65973  0.20260  Biso   1.000  C
  C460     1.0000 0.14923  0.34027  0.20260  Biso   1.000  C
  C461     1.0000 0.14923  0.15973  0.29740  Biso   1.000  C
  C462     1.0000 0.85077  0.84027  0.29740  Biso   1.000  C
  C463     1.0000 0.85077  0.15973  0.70260  Biso   1.000  C
  C464     1.0000 0.14923  0.84027  0.70260  Biso   1.000  C
  C465     1.0000 0.35077  0.34027  0.70260  Biso   1.000  C
  C466     1.0000 0.64923  0.65973  0.70260  Biso   1.000  C
  C467     1.0000 0.64923  0.34027  0.29740  Biso   1.000  C
  C468     1.0000 0.35077  0.65973  0.29740  Biso   1.000  C
  C469     1.0000 0.35077  0.84027  0.20260  Biso   1.000  C
  C470     1.0000 0.64923  0.15973  0.20260  Biso   1.000  C
  C471     1.0000 0.64923  0.84027  0.79740  Biso   1.000  C
  C472     1.0000 0.35077  0.15973  0.79740  Biso   1.000  C
  C473     1.0000 0.85077  0.34027  0.20260  Biso   1.000  C
  C474     1.0000 0.14923  0.65973  0.20260  Biso   1.000  C
  C475     1.0000 0.14923  0.34027  0.79740  Biso   1.000  C
  C476     1.0000 0.85077  0.65973  0.79740  Biso   1.000  C
  C477     1.0000 0.85077  0.84027  0.70260  Biso   1.000  C
  C478     1.0000 0.14923  0.15973  0.70260  Biso   1.000  C
  C479     1.0000 0.14923  0.84027  0.29740  Biso   1.000  C
  C480     1.0000 0.85077  0.15973  0.29740  Biso   1.000  C
  C481     1.0000 0.63157  0.64210  0.27470  Biso   1.000  C
  C482     1.0000 0.36843  0.35790  0.27470  Biso   1.000  C
  C483     1.0000 0.36843  0.64210  0.72530  Biso   1.000  C
  C484     1.0000 0.63157  0.35790  0.72530  Biso   1.000  C
  C485     1.0000 0.63157  0.14210  0.77470  Biso   1.000  C
  C486     1.0000 0.36843  0.85790  0.77470  Biso   1.000  C
  C487     1.0000 0.36843  0.14210  0.22530  Biso   1.000  C
  C488     1.0000 0.63157  0.85790  0.22530  Biso   1.000  C
  C489     1.0000 0.13157  0.64210  0.77470  Biso   1.000  C
  C490     1.0000 0.86843  0.35790  0.77470  Biso   1.000  C
  C491     1.0000 0.86843  0.64210  0.22530  Biso   1.000  C
  C492     1.0000 0.13157  0.35790  0.22530  Biso   1.000  C
  C493     1.0000 0.13157  0.14210  0.27470  Biso   1.000  C
  C494     1.0000 0.86843  0.85790  0.27470  Biso   1.000  C
  C495     1.0000 0.86843  0.14210  0.72530  Biso   1.000  C
  C496     1.0000 0.13157  0.85790  0.72530  Biso   1.000  C
  C497     1.0000 0.36843  0.35790  0.72530  Biso   1.000  C
  C498     1.0000 0.63157  0.64210  0.72530  Biso   1.000  C
  C499     1.0000 0.63157  0.35790  0.27470  Biso   1.000  C
  C500     1.0000 0.36843  0.64210  0.27470  Biso   1.000  C
  C501     1.0000 0.36843  0.85790  0.22530  Biso   1.000  C
  C502     1.0000 0.63157  0.14210  0.22530  Biso   1.000  C
  C503     1.0000 0.63157  0.85790  0.77470  Biso   1.000  C
  C504     1.0000 0.36843  0.14210  0.77470  Biso   1.000  C
  C505     1.0000 0.86843  0.35790  0.22530  Biso   1.000  C
  C506     1.0000 0.13157  0.64210  0.22530  Biso   1.000  C
  C507     1.0000 0.13157  0.35790  0.77470  Biso   1.000  C
  C508     1.0000 0.86843  0.64210  0.77470  Biso   1.000  C
  C509     1.0000 0.86843  0.85790  0.72530  Biso   1.000  C
  C510     1.0000 0.13157  0.14210  0.72530  Biso   1.000  C
  C511     1.0000 0.13157  0.85790  0.27470  Biso   1.000  C
  C512     1.0000 0.86843  0.14210  0.27470  Biso   1.000  C
  H193     1.0000 0.63910  0.62510  0.27110  Biso   1.000  H
  H194     1.0000 0.36090  0.37490  0.27110  Biso   1.000  H
  H195     1.0000 0.36090  0.62510  0.72890  Biso   1.000  H
  H196     1.0000 0.63910  0.37490  0.72890  Biso   1.000  H
  H197     1.0000 0.63910  0.12510  0.77110  Biso   1.000  H
  H198     1.0000 0.36090  0.87490  0.77110  Biso   1.000  H
  H199     1.0000 0.36090  0.12510  0.22890  Biso   1.000  H
  H200     1.0000 0.63910  0.87490  0.22890  Biso   1.000  H
  H201     1.0000 0.13910  0.62510  0.77110  Biso   1.000  H
  H202     1.0000 0.86090  0.37490  0.77110  Biso   1.000  H
  H203     1.0000 0.86090  0.62510  0.22890  Biso   1.000  H
  H204     1.0000 0.13910  0.37490  0.22890  Biso   1.000  H
  H205     1.0000 0.13910  0.12510  0.27110  Biso   1.000  H
  H206     1.0000 0.86090  0.87490  0.27110  Biso   1.000  H
  H207     1.0000 0.86090  0.12510  0.72890  Biso   1.000  H
  H208     1.0000 0.13910  0.87490  0.72890  Biso   1.000  H
  H209     1.0000 0.36090  0.37490  0.72890  Biso   1.000  H
  H210     1.0000 0.63910  0.62510  0.72890  Biso   1.000  H
  H211     1.0000 0.63910  0.37490  0.27110  Biso   1.000  H
  H212     1.0000 0.36090  0.62510  0.27110  Biso   1.000  H
  H213     1.0000 0.36090  0.87490  0.22890  Biso   1.000  H
  H214     1.0000 0.63910  0.12510  0.22890  Biso   1.000  H
  H215     1.0000 0.63910  0.87490  0.77110  Biso   1.000  H
  H216     1.0000 0.36090  0.12510  0.77110  Biso   1.000  H
  H217     1.0000 0.86090  0.37490  0.22890  Biso   1.000  H
  H218     1.0000 0.13910  0.62510  0.22890  Biso   1.000  H
  H219     1.0000 0.13910  0.37490  0.77110  Biso   1.000  H
  H220     1.0000 0.86090  0.62510  0.77110  Biso   1.000  H
  H221     1.0000 0.86090  0.87490  0.72890  Biso   1.000  H
  H222     1.0000 0.13910  0.12510  0.72890  Biso   1.000  H
  H223     1.0000 0.13910  0.87490  0.27110  Biso   1.000  H
  H224     1.0000 0.86090  0.12510  0.27110  Biso   1.000  H
  C513     1.0000 0.60343  0.64944  0.25790  Biso   1.000  C
  C514     1.0000 0.39657  0.35056  0.25790  Biso   1.000  C
  C515     1.0000 0.39657  0.64944  0.74210  Biso   1.000  C
  C516     1.0000 0.60343  0.35056  0.74210  Biso   1.000  C
  C517     1.0000 0.60343  0.14944  0.75790  Biso   1.000  C
  C518     1.0000 0.39657  0.85056  0.75790  Biso   1.000  C
  C519     1.0000 0.39657  0.14944  0.24210  Biso   1.000  C
  C520     1.0000 0.60343  0.85056  0.24210  Biso   1.000  C
  C521     1.0000 0.10343  0.64944  0.75790  Biso   1.000  C
  C522     1.0000 0.89657  0.35056  0.75790  Biso   1.000  C
  C523     1.0000 0.89657  0.64944  0.24210  Biso   1.000  C
  C524     1.0000 0.10343  0.35056  0.24210  Biso   1.000  C
  C525     1.0000 0.10343  0.14944  0.25790  Biso   1.000  C
  C526     1.0000 0.89657  0.85056  0.25790  Biso   1.000  C
  C527     1.0000 0.89657  0.14944  0.74210  Biso   1.000  C
  C528     1.0000 0.10343  0.85056  0.74210  Biso   1.000  C
  C529     1.0000 0.39657  0.35056  0.74210  Biso   1.000  C
  C530     1.0000 0.60343  0.64944  0.74210  Biso   1.000  C
  C531     1.0000 0.60343  0.35056  0.25790  Biso   1.000  C
  C532     1.0000 0.39657  0.64944  0.25790  Biso   1.000  C
  C533     1.0000 0.39657  0.85056  0.24210  Biso   1.000  C
  C534     1.0000 0.60343  0.14944  0.24210  Biso   1.000  C
  C535     1.0000 0.60343  0.85056  0.75790  Biso   1.000  C
  C536     1.0000 0.39657  0.14944  0.75790  Biso   1.000  C
  C537     1.0000 0.89657  0.35056  0.24210  Biso   1.000  C
  C538     1.0000 0.10343  0.64944  0.24210  Biso   1.000  C
  C539     1.0000 0.10343  0.35056  0.75790  Biso   1.000  C
  C540     1.0000 0.89657  0.64944  0.75790  Biso   1.000  C
  C541     1.0000 0.89657  0.85056  0.74210  Biso   1.000  C
  C542     1.0000 0.10343  0.14944  0.74210  Biso   1.000  C
  C543     1.0000 0.10343  0.85056  0.25790  Biso   1.000  C
  C544     1.0000 0.89657  0.14944  0.25790  Biso   1.000  C
  H225     1.0000 0.59170  0.63740  0.24200  Biso   1.000  H
  H226     1.0000 0.40830  0.36260  0.24200  Biso   1.000  H
  H227     1.0000 0.40830  0.63740  0.75800  Biso   1.000  H
  H228     1.0000 0.59170  0.36260  0.75800  Biso   1.000  H
  H229     1.0000 0.59170  0.13740  0.74200  Biso   1.000  H
  H230     1.0000 0.40830  0.86260  0.74200  Biso   1.000  H
  H231     1.0000 0.40830  0.13740  0.25800  Biso   1.000  H
  H232     1.0000 0.59170  0.86260  0.25800  Biso   1.000  H
  H233     1.0000 0.09170  0.63740  0.74200  Biso   1.000  H
  H234     1.0000 0.90830  0.36260  0.74200  Biso   1.000  H
  H235     1.0000 0.90830  0.63740  0.25800  Biso   1.000  H
  H236     1.0000 0.09170  0.36260  0.25800  Biso   1.000  H
  H237     1.0000 0.09170  0.13740  0.24200  Biso   1.000  H
  H238     1.0000 0.90830  0.86260  0.24200  Biso   1.000  H
  H239     1.0000 0.90830  0.13740  0.75800  Biso   1.000  H
  H240     1.0000 0.09170  0.86260  0.75800  Biso   1.000  H
  H241     1.0000 0.40830  0.36260  0.75800  Biso   1.000  H
  H242     1.0000 0.59170  0.63740  0.75800  Biso   1.000  H
  H243     1.0000 0.59170  0.36260  0.24200  Biso   1.000  H
  H244     1.0000 0.40830  0.63740  0.24200  Biso   1.000  H
  H245     1.0000 0.40830  0.86260  0.25800  Biso   1.000  H
  H246     1.0000 0.59170  0.13740  0.25800  Biso   1.000  H
  H247     1.0000 0.59170  0.86260  0.74200  Biso   1.000  H
  H248     1.0000 0.40830  0.13740  0.74200  Biso   1.000  H
  H249     1.0000 0.90830  0.36260  0.25800  Biso   1.000  H
  H250     1.0000 0.09170  0.63740  0.25800  Biso   1.000  H
  H251     1.0000 0.09170  0.36260  0.74200  Biso   1.000  H
  H252     1.0000 0.90830  0.63740  0.74200  Biso   1.000  H
  H253     1.0000 0.90830  0.86260  0.75800  Biso   1.000  H
  H254     1.0000 0.09170  0.13740  0.75800  Biso   1.000  H
  H255     1.0000 0.09170  0.86260  0.24200  Biso   1.000  H
  H256     1.0000 0.90830  0.13740  0.24200  Biso   1.000  H
  C545     1.0000 0.59161  0.67408  0.26330  Biso   1.000  C
  C546     1.0000 0.40839  0.32592  0.26330  Biso   1.000  C
  C547     1.0000 0.40839  0.67408  0.73670  Biso   1.000  C
  C548     1.0000 0.59161  0.32592  0.73670  Biso   1.000  C
  C549     1.0000 0.59161  0.17408  0.76330  Biso   1.000  C
  C550     1.0000 0.40839  0.82592  0.76330  Biso   1.000  C
  C551     1.0000 0.40839  0.17408  0.23670  Biso   1.000  C
  C552     1.0000 0.59161  0.82592  0.23670  Biso   1.000  C
  C553     1.0000 0.09161  0.67408  0.76330  Biso   1.000  C
  C554     1.0000 0.90839  0.32592  0.76330  Biso   1.000  C
  C555     1.0000 0.90839  0.67408  0.23670  Biso   1.000  C
  C556     1.0000 0.09161  0.32592  0.23670  Biso   1.000  C
  C557     1.0000 0.09161  0.17408  0.26330  Biso   1.000  C
  C558     1.0000 0.90839  0.82592  0.26330  Biso   1.000  C
  C559     1.0000 0.90839  0.17408  0.73670  Biso   1.000  C
  C560     1.0000 0.09161  0.82592  0.73670  Biso   1.000  C
  C561     1.0000 0.40839  0.32592  0.73670  Biso   1.000  C
  C562     1.0000 0.59161  0.67408  0.73670  Biso   1.000  C
  C563     1.0000 0.59161  0.32592  0.26330  Biso   1.000  C
  C564     1.0000 0.40839  0.67408  0.26330  Biso   1.000  C
  C565     1.0000 0.40839  0.82592  0.23670  Biso   1.000  C
  C566     1.0000 0.59161  0.17408  0.23670  Biso   1.000  C
  C567     1.0000 0.59161  0.82592  0.76330  Biso   1.000  C
  C568     1.0000 0.40839  0.17408  0.76330  Biso   1.000  C
  C569     1.0000 0.90839  0.32592  0.23670  Biso   1.000  C
  C570     1.0000 0.09161  0.67408  0.23670  Biso   1.000  C
  C571     1.0000 0.09161  0.32592  0.76330  Biso   1.000  C
  C572     1.0000 0.90839  0.67408  0.76330  Biso   1.000  C
  C573     1.0000 0.90839  0.82592  0.73670  Biso   1.000  C
  C574     1.0000 0.09161  0.17408  0.73670  Biso   1.000  C
  C575     1.0000 0.09161  0.82592  0.26330  Biso   1.000  C
  C576     1.0000 0.90839  0.17408  0.26330  Biso   1.000  C
  H257     1.0000 0.57210  0.67890  0.25100  Biso   1.000  H
  H258     1.0000 0.42790  0.32110  0.25100  Biso   1.000  H
  H259     1.0000 0.42790  0.67890  0.74900  Biso   1.000  H
  H260     1.0000 0.57210  0.32110  0.74900  Biso   1.000  H
  H261     1.0000 0.57210  0.17890  0.75100  Biso   1.000  H
  H262     1.0000 0.42790  0.82110  0.75100  Biso   1.000  H
  H263     1.0000 0.42790  0.17890  0.24900  Biso   1.000  H
  H264     1.0000 0.57210  0.82110  0.24900  Biso   1.000  H
  H265     1.0000 0.07210  0.67890  0.75100  Biso   1.000  H
  H266     1.0000 0.92790  0.32110  0.75100  Biso   1.000  H
  H267     1.0000 0.92790  0.67890  0.24900  Biso   1.000  H
  H268     1.0000 0.07210  0.32110  0.24900  Biso   1.000  H
  H269     1.0000 0.07210  0.17890  0.25100  Biso   1.000  H
  H270     1.0000 0.92790  0.82110  0.25100  Biso   1.000  H
  H271     1.0000 0.92790  0.17890  0.74900  Biso   1.000  H
  H272     1.0000 0.07210  0.82110  0.74900  Biso   1.000  H
  H273     1.0000 0.42790  0.32110  0.74900  Biso   1.000  H
  H274     1.0000 0.57210  0.67890  0.74900  Biso   1.000  H
  H275     1.0000 0.57210  0.32110  0.25100  Biso   1.000  H
  H276     1.0000 0.42790  0.67890  0.25100  Biso   1.000  H
  H277     1.0000 0.42790  0.82110  0.24900  Biso   1.000  H
  H278     1.0000 0.57210  0.17890  0.24900  Biso   1.000  H
  H279     1.0000 0.57210  0.82110  0.75100  Biso   1.000  H
  H280     1.0000 0.42790  0.17890  0.75100  Biso   1.000  H
  H281     1.0000 0.92790  0.32110  0.24900  Biso   1.000  H
  H282     1.0000 0.07210  0.67890  0.24900  Biso   1.000  H
  H283     1.0000 0.07210  0.32110  0.75100  Biso   1.000  H
  H284     1.0000 0.92790  0.67890  0.75100  Biso   1.000  H
  H285     1.0000 0.92790  0.82110  0.74900  Biso   1.000  H
  H286     1.0000 0.07210  0.17890  0.74900  Biso   1.000  H
  H287     1.0000 0.07210  0.82110  0.25100  Biso   1.000  H
  H288     1.0000 0.92790  0.17890  0.25100  Biso   1.000  H
  C577     1.0000 0.67932  0.65368  0.31770  Biso   1.000  C
  C578     1.0000 0.32068  0.34632  0.31770  Biso   1.000  C
  C579     1.0000 0.32068  0.65368  0.68230  Biso   1.000  C
  C580     1.0000 0.67932  0.34632  0.68230  Biso   1.000  C
  C581     1.0000 0.67932  0.15368  0.81770  Biso   1.000  C
  C582     1.0000 0.32068  0.84632  0.81770  Biso   1.000  C
  C583     1.0000 0.32068  0.15368  0.18230  Biso   1.000  C
  C584     1.0000 0.67932  0.84632  0.18230  Biso   1.000  C
  C585     1.0000 0.17932  0.65368  0.81770  Biso   1.000  C
  C586     1.0000 0.82068  0.34632  0.81770  Biso   1.000  C
  C587     1.0000 0.82068  0.65368  0.18230  Biso   1.000  C
  C588     1.0000 0.17932  0.34632  0.18230  Biso   1.000  C
  C589     1.0000 0.17932  0.15368  0.31770  Biso   1.000  C
  C590     1.0000 0.82068  0.84632  0.31770  Biso   1.000  C
  C591     1.0000 0.82068  0.15368  0.68230  Biso   1.000  C
  C592     1.0000 0.17932  0.84632  0.68230  Biso   1.000  C
  C593     1.0000 0.32068  0.34632  0.68230  Biso   1.000  C
  C594     1.0000 0.67932  0.65368  0.68230  Biso   1.000  C
  C595     1.0000 0.67932  0.34632  0.31770  Biso   1.000  C
  C596     1.0000 0.32068  0.65368  0.31770  Biso   1.000  C
  C597     1.0000 0.32068  0.84632  0.18230  Biso   1.000  C
  C598     1.0000 0.67932  0.15368  0.18230  Biso   1.000  C
  C599     1.0000 0.67932  0.84632  0.81770  Biso   1.000  C
  C600     1.0000 0.32068  0.15368  0.81770  Biso   1.000  C
  C601     1.0000 0.82068  0.34632  0.18230  Biso   1.000  C
  C602     1.0000 0.17932  0.65368  0.18230  Biso   1.000  C
  C603     1.0000 0.17932  0.34632  0.81770  Biso   1.000  C
  C604     1.0000 0.82068  0.65368  0.81770  Biso   1.000  C
  C605     1.0000 0.82068  0.84632  0.68230  Biso   1.000  C
  C606     1.0000 0.17932  0.15368  0.68230  Biso   1.000  C
  C607     1.0000 0.17932  0.84632  0.31770  Biso   1.000  C
  C608     1.0000 0.82068  0.15368  0.31770  Biso   1.000  C
  H289     1.0000 0.68900  0.66700  0.33320  Biso   1.000  H
  H290     1.0000 0.31100  0.33300  0.33320  Biso   1.000  H
  H291     1.0000 0.31100  0.66700  0.66680  Biso   1.000  H
  H292     1.0000 0.68900  0.33300  0.66680  Biso   1.000  H
  H293     1.0000 0.68900  0.16700  0.83320  Biso   1.000  H
  H294     1.0000 0.31100  0.83300  0.83320  Biso   1.000  H
  H295     1.0000 0.31100  0.16700  0.16680  Biso   1.000  H
  H296     1.0000 0.68900  0.83300  0.16680  Biso   1.000  H
  H297     1.0000 0.18900  0.66700  0.83320  Biso   1.000  H
  H298     1.0000 0.81100  0.33300  0.83320  Biso   1.000  H
  H299     1.0000 0.81100  0.66700  0.16680  Biso   1.000  H
  H300     1.0000 0.18900  0.33300  0.16680  Biso   1.000  H
  H301     1.0000 0.18900  0.16700  0.33320  Biso   1.000  H
  H302     1.0000 0.81100  0.83300  0.33320  Biso   1.000  H
  H303     1.0000 0.81100  0.16700  0.66680  Biso   1.000  H
  H304     1.0000 0.18900  0.83300  0.66680  Biso   1.000  H
  H305     1.0000 0.31100  0.33300  0.66680  Biso   1.000  H
  H306     1.0000 0.68900  0.66700  0.66680  Biso   1.000  H
  H307     1.0000 0.68900  0.33300  0.33320  Biso   1.000  H
  H308     1.0000 0.31100  0.66700  0.33320  Biso   1.000  H
  H309     1.0000 0.31100  0.83300  0.16680  Biso   1.000  H
  H310     1.0000 0.68900  0.16700  0.16680  Biso   1.000  H
  H311     1.0000 0.68900  0.83300  0.83320  Biso   1.000  H
  H312     1.0000 0.31100  0.16700  0.83320  Biso   1.000  H
  H313     1.0000 0.81100  0.33300  0.16680  Biso   1.000  H
  H314     1.0000 0.18900  0.66700  0.16680  Biso   1.000  H
  H315     1.0000 0.18900  0.33300  0.83320  Biso   1.000  H
  H316     1.0000 0.81100  0.66700  0.83320  Biso   1.000  H
  H317     1.0000 0.81100  0.83300  0.66680  Biso   1.000  H
  H318     1.0000 0.18900  0.16700  0.66680  Biso   1.000  H
  H319     1.0000 0.18900  0.83300  0.33320  Biso   1.000  H
  H320     1.0000 0.81100  0.16700  0.33320  Biso   1.000  H
  C609     1.0000 0.69447  0.63100  0.31660  Biso   1.000  C
  C610     1.0000 0.30553  0.36900  0.31660  Biso   1.000  C
  C611     1.0000 0.30553  0.63100  0.68340  Biso   1.000  C
  C612     1.0000 0.69447  0.36900  0.68340  Biso   1.000  C
  C613     1.0000 0.69447  0.13100  0.81660  Biso   1.000  C
  C614     1.0000 0.30553  0.86900  0.81660  Biso   1.000  C
  C615     1.0000 0.30553  0.13100  0.18340  Biso   1.000  C
  C616     1.0000 0.69447  0.86900  0.18340  Biso   1.000  C
  C617     1.0000 0.19447  0.63100  0.81660  Biso   1.000  C
  C618     1.0000 0.80553  0.36900  0.81660  Biso   1.000  C
  C619     1.0000 0.80553  0.63100  0.18340  Biso   1.000  C
  C620     1.0000 0.19447  0.36900  0.18340  Biso   1.000  C
  C621     1.0000 0.19447  0.13100  0.31660  Biso   1.000  C
  C622     1.0000 0.80553  0.86900  0.31660  Biso   1.000  C
  C623     1.0000 0.80553  0.13100  0.68340  Biso   1.000  C
  C624     1.0000 0.19447  0.86900  0.68340  Biso   1.000  C
  C625     1.0000 0.30553  0.36900  0.68340  Biso   1.000  C
  C626     1.0000 0.69447  0.63100  0.68340  Biso   1.000  C
  C627     1.0000 0.69447  0.36900  0.31660  Biso   1.000  C
  C628     1.0000 0.30553  0.63100  0.31660  Biso   1.000  C
  C629     1.0000 0.30553  0.86900  0.18340  Biso   1.000  C
  C630     1.0000 0.69447  0.13100  0.18340  Biso   1.000  C
  C631     1.0000 0.69447  0.86900  0.81660  Biso   1.000  C
  C632     1.0000 0.30553  0.13100  0.81660  Biso   1.000  C
  C633     1.0000 0.80553  0.36900  0.18340  Biso   1.000  C
  C634     1.0000 0.19447  0.63100  0.18340  Biso   1.000  C
  C635     1.0000 0.19447  0.36900  0.81660  Biso   1.000  C
  C636     1.0000 0.80553  0.63100  0.81660  Biso   1.000  C
  C637     1.0000 0.80553  0.86900  0.68340  Biso   1.000  C
  C638     1.0000 0.19447  0.13100  0.68340  Biso   1.000  C
  C639     1.0000 0.19447  0.86900  0.31660  Biso   1.000  C
  C640     1.0000 0.80553  0.13100  0.31660  Biso   1.000  C
  H321     1.0000 0.68620  0.61740  0.30010  Biso   1.000  H
  H322     1.0000 0.31380  0.38260  0.30010  Biso   1.000  H
  H323     1.0000 0.31380  0.61740  0.69990  Biso   1.000  H
  H324     1.0000 0.68620  0.38260  0.69990  Biso   1.000  H
  H325     1.0000 0.68620  0.11740  0.80010  Biso   1.000  H
  H326     1.0000 0.31380  0.88260  0.80010  Biso   1.000  H
  H327     1.0000 0.31380  0.11740  0.19990  Biso   1.000  H
  H328     1.0000 0.68620  0.88260  0.19990  Biso   1.000  H
  H329     1.0000 0.18620  0.61740  0.80010  Biso   1.000  H
  H330     1.0000 0.81380  0.38260  0.80010  Biso   1.000  H
  H331     1.0000 0.81380  0.61740  0.19990  Biso   1.000  H
  H332     1.0000 0.18620  0.38260  0.19990  Biso   1.000  H
  H333     1.0000 0.18620  0.11740  0.30010  Biso   1.000  H
  H334     1.0000 0.81380  0.88260  0.30010  Biso   1.000  H
  H335     1.0000 0.81380  0.11740  0.69990  Biso   1.000  H
  H336     1.0000 0.18620  0.88260  0.69990  Biso   1.000  H
  H337     1.0000 0.31380  0.38260  0.69990  Biso   1.000  H
  H338     1.0000 0.68620  0.61740  0.69990  Biso   1.000  H
  H339     1.0000 0.68620  0.38260  0.30010  Biso   1.000  H
  H340     1.0000 0.31380  0.61740  0.30010  Biso   1.000  H
  H341     1.0000 0.31380  0.88260  0.19990  Biso   1.000  H
  H342     1.0000 0.68620  0.11740  0.19990  Biso   1.000  H
  H343     1.0000 0.68620  0.88260  0.80010  Biso   1.000  H
  H344     1.0000 0.31380  0.11740  0.80010  Biso   1.000  H
  H345     1.0000 0.81380  0.38260  0.19990  Biso   1.000  H
  H346     1.0000 0.18620  0.61740  0.19990  Biso   1.000  H
  H347     1.0000 0.18620  0.38260  0.80010  Biso   1.000  H
  H348     1.0000 0.81380  0.61740  0.80010  Biso   1.000  H
  H349     1.0000 0.81380  0.88260  0.69990  Biso   1.000  H
  H350     1.0000 0.18620  0.11740  0.69990  Biso   1.000  H
  H351     1.0000 0.18620  0.88260  0.30010  Biso   1.000  H
  H352     1.0000 0.81380  0.11740  0.30010  Biso   1.000  H
  C641     1.0000 0.72339  0.62695  0.34020  Biso   1.000  C
  C642     1.0000 0.27661  0.37305  0.34020  Biso   1.000  C
  C643     1.0000 0.27661  0.62695  0.65980  Biso   1.000  C
  C644     1.0000 0.72339  0.37305  0.65980  Biso   1.000  C
  C645     1.0000 0.72339  0.12695  0.84020  Biso   1.000  C
  C646     1.0000 0.27661  0.87305  0.84020  Biso   1.000  C
  C647     1.0000 0.27661  0.12695  0.15980  Biso   1.000  C
  C648     1.0000 0.72339  0.87305  0.15980  Biso   1.000  C
  C649     1.0000 0.22339  0.62695  0.84020  Biso   1.000  C
  C650     1.0000 0.77661  0.37305  0.84020  Biso   1.000  C
  C651     1.0000 0.77661  0.62695  0.15980  Biso   1.000  C
  C652     1.0000 0.22339  0.37305  0.15980  Biso   1.000  C
  C653     1.0000 0.22339  0.12695  0.34020  Biso   1.000  C
  C654     1.0000 0.77661  0.87305  0.34020  Biso   1.000  C
  C655     1.0000 0.77661  0.12695  0.65980  Biso   1.000  C
  C656     1.0000 0.22339  0.87305  0.65980  Biso   1.000  C
  C657     1.0000 0.27661  0.37305  0.65980  Biso   1.000  C
  C658     1.0000 0.72339  0.62695  0.65980  Biso   1.000  C
  C659     1.0000 0.72339  0.37305  0.34020  Biso   1.000  C
  C660     1.0000 0.27661  0.62695  0.34020  Biso   1.000  C
  C661     1.0000 0.27661  0.87305  0.15980  Biso   1.000  C
  C662     1.0000 0.72339  0.12695  0.15980  Biso   1.000  C
  C663     1.0000 0.72339  0.87305  0.84020  Biso   1.000  C
  C664     1.0000 0.27661  0.12695  0.84020  Biso   1.000  C
  C665     1.0000 0.77661  0.37305  0.15980  Biso   1.000  C
  C666     1.0000 0.22339  0.62695  0.15980  Biso   1.000  C
  C667     1.0000 0.22339  0.37305  0.84020  Biso   1.000  C
  C668     1.0000 0.77661  0.62695  0.84020  Biso   1.000  C
  C669     1.0000 0.77661  0.87305  0.65980  Biso   1.000  C
  C670     1.0000 0.22339  0.12695  0.65980  Biso   1.000  C
  C671     1.0000 0.22339  0.87305  0.34020  Biso   1.000  C
  C672     1.0000 0.77661  0.12695  0.34020  Biso   1.000  C
  O225     1.0000 0.53186  0.84536  0.29575  Biso   1.000  O
  O226     1.0000 0.46814  0.15464  0.29575  Biso   1.000  O
  O227     1.0000 0.46814  0.84536  0.70425  Biso   1.000  O
  O228     1.0000 0.53186  0.15464  0.70425  Biso   1.000  O
  O229     1.0000 0.53186  0.34536  0.79575  Biso   1.000  O
  O230     1.0000 0.46814  0.65464  0.79575  Biso   1.000  O
  O231     1.0000 0.46814  0.34536  0.20425  Biso   1.000  O
  O232     1.0000 0.53186  0.65464  0.20425  Biso   1.000  O
  O233     1.0000 0.03186  0.84536  0.79575  Biso   1.000  O
  O234     1.0000 0.96814  0.15464  0.79575  Biso   1.000  O
  O235     1.0000 0.96814  0.84536  0.20425  Biso   1.000  O
  O236     1.0000 0.03186  0.15464  0.20425  Biso   1.000  O
  O237     1.0000 0.03186  0.34536  0.29575  Biso   1.000  O
  O238     1.0000 0.96814  0.65464  0.29575  Biso   1.000  O
  O239     1.0000 0.96814  0.34536  0.70425  Biso   1.000  O
  O240     1.0000 0.03186  0.65464  0.70425  Biso   1.000  O
  O241     1.0000 0.46814  0.15464  0.70425  Biso   1.000  O
  O242     1.0000 0.53186  0.84536  0.70425  Biso   1.000  O
  O243     1.0000 0.53186  0.15464  0.29575  Biso   1.000  O
  O244     1.0000 0.46814  0.84536  0.29575  Biso   1.000  O
  O245     1.0000 0.46814  0.65464  0.20425  Biso   1.000  O
  O246     1.0000 0.53186  0.34536  0.20425  Biso   1.000  O
  O247     1.0000 0.53186  0.65464  0.79575  Biso   1.000  O
  O248     1.0000 0.46814  0.34536  0.79575  Biso   1.000  O
  O249     1.0000 0.96814  0.15464  0.20425  Biso   1.000  O
  O250     1.0000 0.03186  0.84536  0.20425  Biso   1.000  O
  O251     1.0000 0.03186  0.15464  0.79575  Biso   1.000  O
  O252     1.0000 0.96814  0.84536  0.79575  Biso   1.000  O
  O253     1.0000 0.96814  0.65464  0.70425  Biso   1.000  O
  O254     1.0000 0.03186  0.34536  0.70425  Biso   1.000  O
  O255     1.0000 0.03186  0.65464  0.29575  Biso   1.000  O
  O256     1.0000 0.96814  0.34536  0.29575  Biso   1.000  O
  O257     1.0000 0.53242  0.87518  0.34538  Biso   1.000  O
  O258     1.0000 0.46758  0.12482  0.34538  Biso   1.000  O
  O259     1.0000 0.46758  0.87518  0.65462  Biso   1.000  O
  O260     1.0000 0.53242  0.12482  0.65462  Biso   1.000  O
  O261     1.0000 0.53242  0.37518  0.84538  Biso   1.000  O
  O262     1.0000 0.46758  0.62482  0.84538  Biso   1.000  O
  O263     1.0000 0.46758  0.37518  0.15462  Biso   1.000  O
  O264     1.0000 0.53242  0.62482  0.15462  Biso   1.000  O
  O265     1.0000 0.03242  0.87518  0.84538  Biso   1.000  O
  O266     1.0000 0.96758  0.12482  0.84538  Biso   1.000  O
  O267     1.0000 0.96758  0.87518  0.15462  Biso   1.000  O
  O268     1.0000 0.03242  0.12482  0.15462  Biso   1.000  O
  O269     1.0000 0.03242  0.37518  0.34538  Biso   1.000  O
  O270     1.0000 0.96758  0.62482  0.34538  Biso   1.000  O
  O271     1.0000 0.96758  0.37518  0.65462  Biso   1.000  O
  O272     1.0000 0.03242  0.62482  0.65462  Biso   1.000  O
  O273     1.0000 0.46758  0.12482  0.65462  Biso   1.000  O
  O274     1.0000 0.53242  0.87518  0.65462  Biso   1.000  O
  O275     1.0000 0.53242  0.12482  0.34538  Biso   1.000  O
  O276     1.0000 0.46758  0.87518  0.34538  Biso   1.000  O
  O277     1.0000 0.46758  0.62482  0.15462  Biso   1.000  O
  O278     1.0000 0.53242  0.37518  0.15462  Biso   1.000  O
  O279     1.0000 0.53242  0.62482  0.84538  Biso   1.000  O
  O280     1.0000 0.46758  0.37518  0.84538  Biso   1.000  O
  O281     1.0000 0.96758  0.12482  0.15462  Biso   1.000  O
  O282     1.0000 0.03242  0.87518  0.15462  Biso   1.000  O
  O283     1.0000 0.03242  0.12482  0.84538  Biso   1.000  O
  O284     1.0000 0.96758  0.87518  0.84538  Biso   1.000  O
  O285     1.0000 0.96758  0.62482  0.65462  Biso   1.000  O
  O286     1.0000 0.03242  0.37518  0.65462  Biso   1.000  O
  O287     1.0000 0.03242  0.62482  0.34538  Biso   1.000  O
  O288     1.0000 0.96758  0.37518  0.34538  Biso   1.000  O
  O289     1.0000 0.60817  0.86858  0.45737  Biso   1.000  O
  O290     1.0000 0.39183  0.13142  0.45737  Biso   1.000  O
  O291     1.0000 0.39183  0.86858  0.54263  Biso   1.000  O
  O292     1.0000 0.60817  0.13142  0.54263  Biso   1.000  O
  O293     1.0000 0.60817  0.36858  0.95737  Biso   1.000  O
  O294     1.0000 0.39183  0.63142  0.95737  Biso   1.000  O
  O295     1.0000 0.39183  0.36858  0.04263  Biso   1.000  O
  O296     1.0000 0.60817  0.63142  0.04263  Biso   1.000  O
  O297     1.0000 0.10817  0.86858  0.95737  Biso   1.000  O
  O298     1.0000 0.89183  0.13142  0.95737  Biso   1.000  O
  O299     1.0000 0.89183  0.86858  0.04263  Biso   1.000  O
  O300     1.0000 0.10817  0.13142  0.04263  Biso   1.000  O
  O301     1.0000 0.10817  0.36858  0.45737  Biso   1.000  O
  O302     1.0000 0.89183  0.63142  0.45737  Biso   1.000  O
  O303     1.0000 0.89183  0.36858  0.54263  Biso   1.000  O
  O304     1.0000 0.10817  0.63142  0.54263  Biso   1.000  O
  O305     1.0000 0.39183  0.13142  0.54263  Biso   1.000  O
  O306     1.0000 0.60817  0.86858  0.54263  Biso   1.000  O
  O307     1.0000 0.60817  0.13142  0.45737  Biso   1.000  O
  O308     1.0000 0.39183  0.86858  0.45737  Biso   1.000  O
  O309     1.0000 0.39183  0.63142  0.04263  Biso   1.000  O
  O310     1.0000 0.60817  0.36858  0.04263  Biso   1.000  O
  O311     1.0000 0.60817  0.63142  0.95737  Biso   1.000  O
  O312     1.0000 0.39183  0.36858  0.95737  Biso   1.000  O
  O313     1.0000 0.89183  0.13142  0.04263  Biso   1.000  O
  O314     1.0000 0.10817  0.86858  0.04263  Biso   1.000  O
  O315     1.0000 0.10817  0.13142  0.95737  Biso   1.000  O
  O316     1.0000 0.89183  0.86858  0.95737  Biso   1.000  O
  O317     1.0000 0.89183  0.63142  0.54263  Biso   1.000  O
  O318     1.0000 0.10817  0.36858  0.54263  Biso   1.000  O
  O319     1.0000 0.10817  0.63142  0.45737  Biso   1.000  O
  O320     1.0000 0.89183  0.36858  0.45737  Biso   1.000  O
  O321     1.0000 0.64360  0.83632  0.45752  Biso   1.000  O
  O322     1.0000 0.35640  0.16368  0.45752  Biso   1.000  O
  O323     1.0000 0.35640  0.83632  0.54248  Biso   1.000  O
  O324     1.0000 0.64360  0.16368  0.54248  Biso   1.000  O
  O325     1.0000 0.64360  0.33632  0.95752  Biso   1.000  O
  O326     1.0000 0.35640  0.66368  0.95752  Biso   1.000  O
  O327     1.0000 0.35640  0.33632  0.04248  Biso   1.000  O
  O328     1.0000 0.64360  0.66368  0.04248  Biso   1.000  O
  O329     1.0000 0.14360  0.83632  0.95752  Biso   1.000  O
  O330     1.0000 0.85640  0.16368  0.95752  Biso   1.000  O
  O331     1.0000 0.85640  0.83632  0.04248  Biso   1.000  O
  O332     1.0000 0.14360  0.16368  0.04248  Biso   1.000  O
  O333     1.0000 0.14360  0.33632  0.45752  Biso   1.000  O
  O334     1.0000 0.85640  0.66368  0.45752  Biso   1.000  O
  O335     1.0000 0.85640  0.33632  0.54248  Biso   1.000  O
  O336     1.0000 0.14360  0.66368  0.54248  Biso   1.000  O
  O337     1.0000 0.35640  0.16368  0.54248  Biso   1.000  O
  O338     1.0000 0.64360  0.83632  0.54248  Biso   1.000  O
  O339     1.0000 0.64360  0.16368  0.45752  Biso   1.000  O
  O340     1.0000 0.35640  0.83632  0.45752  Biso   1.000  O
  O341     1.0000 0.35640  0.66368  0.04248  Biso   1.000  O
  O342     1.0000 0.64360  0.33632  0.04248  Biso   1.000  O
  O343     1.0000 0.64360  0.66368  0.95752  Biso   1.000  O
  O344     1.0000 0.35640  0.33632  0.95752  Biso   1.000  O
  O345     1.0000 0.85640  0.16368  0.04248  Biso   1.000  O
  O346     1.0000 0.14360  0.83632  0.04248  Biso   1.000  O
  O347     1.0000 0.14360  0.16368  0.95752  Biso   1.000  O
  O348     1.0000 0.85640  0.83632  0.95752  Biso   1.000  O
  O349     1.0000 0.85640  0.66368  0.54248  Biso   1.000  O
  O350     1.0000 0.14360  0.33632  0.54248  Biso   1.000  O
  O351     1.0000 0.14360  0.66368  0.45752  Biso   1.000  O
  O352     1.0000 0.85640  0.33632  0.45752  Biso   1.000  O
  N33      1.0000 0.60400  0.77580  0.35011  Biso   1.000  N
  N34      1.0000 0.39600  0.22420  0.35011  Biso   1.000  N
  N35      1.0000 0.39600  0.77580  0.64989  Biso   1.000  N
  N36      1.0000 0.60400  0.22420  0.64989  Biso   1.000  N
  N37      1.0000 0.60400  0.27580  0.85011  Biso   1.000  N
  N38      1.0000 0.39600  0.72420  0.85011  Biso   1.000  N
  N39      1.0000 0.39600  0.27580  0.14989  Biso   1.000  N
  N40      1.0000 0.60400  0.72420  0.14989  Biso   1.000  N
  N41      1.0000 0.10400  0.77580  0.85011  Biso   1.000  N
  N42      1.0000 0.89600  0.22420  0.85011  Biso   1.000  N
  N43      1.0000 0.89600  0.77580  0.14989  Biso   1.000  N
  N44      1.0000 0.10400  0.22420  0.14989  Biso   1.000  N
  N45      1.0000 0.10400  0.27580  0.35011  Biso   1.000  N
  N46      1.0000 0.89600  0.72420  0.35011  Biso   1.000  N
  N47      1.0000 0.89600  0.27580  0.64989  Biso   1.000  N
  N48      1.0000 0.10400  0.72420  0.64989  Biso   1.000  N
  N49      1.0000 0.39600  0.22420  0.64989  Biso   1.000  N
  N50      1.0000 0.60400  0.77580  0.64989  Biso   1.000  N
  N51      1.0000 0.60400  0.22420  0.35011  Biso   1.000  N
  N52      1.0000 0.39600  0.77580  0.35011  Biso   1.000  N
  N53      1.0000 0.39600  0.72420  0.14989  Biso   1.000  N
  N54      1.0000 0.60400  0.27580  0.14989  Biso   1.000  N
  N55      1.0000 0.60400  0.72420  0.85011  Biso   1.000  N
  N56      1.0000 0.39600  0.27580  0.85011  Biso   1.000  N
  N57      1.0000 0.89600  0.22420  0.14989  Biso   1.000  N
  N58      1.0000 0.10400  0.77580  0.14989  Biso   1.000  N
  N59      1.0000 0.10400  0.22420  0.85011  Biso   1.000  N
  N60      1.0000 0.89600  0.77580  0.85011  Biso   1.000  N
  N61      1.0000 0.89600  0.72420  0.64989  Biso   1.000  N
  N62      1.0000 0.10400  0.27580  0.64989  Biso   1.000  N
  N63      1.0000 0.10400  0.72420  0.35011  Biso   1.000  N
  N64      1.0000 0.89600  0.27580  0.35011  Biso   1.000  N
  H353     1.0000 0.62140  0.77010  0.36170  Biso   1.000  H
  H354     1.0000 0.37860  0.22990  0.36170  Biso   1.000  H
  H355     1.0000 0.37860  0.77010  0.63830  Biso   1.000  H
  H356     1.0000 0.62140  0.22990  0.63830  Biso   1.000  H
  H357     1.0000 0.62140  0.27010  0.86170  Biso   1.000  H
  H358     1.0000 0.37860  0.72990  0.86170  Biso   1.000  H
  H359     1.0000 0.37860  0.27010  0.13830  Biso   1.000  H
  H360     1.0000 0.62140  0.72990  0.13830  Biso   1.000  H
  H361     1.0000 0.12140  0.77010  0.86170  Biso   1.000  H
  H362     1.0000 0.87860  0.22990  0.86170  Biso   1.000  H
  H363     1.0000 0.87860  0.77010  0.13830  Biso   1.000  H
  H364     1.0000 0.12140  0.22990  0.13830  Biso   1.000  H
  H365     1.0000 0.12140  0.27010  0.36170  Biso   1.000  H
  H366     1.0000 0.87860  0.72990  0.36170  Biso   1.000  H
  H367     1.0000 0.87860  0.27010  0.63830  Biso   1.000  H
  H368     1.0000 0.12140  0.72990  0.63830  Biso   1.000  H
  H369     1.0000 0.37860  0.22990  0.63830  Biso   1.000  H
  H370     1.0000 0.62140  0.77010  0.63830  Biso   1.000  H
  H371     1.0000 0.62140  0.22990  0.36170  Biso   1.000  H
  H372     1.0000 0.37860  0.77010  0.36170  Biso   1.000  H
  H373     1.0000 0.37860  0.72990  0.13830  Biso   1.000  H
  H374     1.0000 0.62140  0.27010  0.13830  Biso   1.000  H
  H375     1.0000 0.62140  0.72990  0.86170  Biso   1.000  H
  H376     1.0000 0.37860  0.27010  0.86170  Biso   1.000  H
  H377     1.0000 0.87860  0.22990  0.13830  Biso   1.000  H
  H378     1.0000 0.12140  0.77010  0.13830  Biso   1.000  H
  H379     1.0000 0.12140  0.22990  0.86170  Biso   1.000  H
  H380     1.0000 0.87860  0.77010  0.86170  Biso   1.000  H
  H381     1.0000 0.87860  0.72990  0.63830  Biso   1.000  H
  H382     1.0000 0.12140  0.27010  0.63830  Biso   1.000  H
  H383     1.0000 0.12140  0.72990  0.36170  Biso   1.000  H
  H384     1.0000 0.87860  0.27010  0.36170  Biso   1.000  H
  C673     1.0000 0.59458  0.80038  0.36100  Biso   1.000  C
  C674     1.0000 0.40542  0.19962  0.36100  Biso   1.000  C
  C675     1.0000 0.40542  0.80038  0.63900  Biso   1.000  C
  C676     1.0000 0.59458  0.19962  0.63900  Biso   1.000  C
  C677     1.0000 0.59458  0.30038  0.86100  Biso   1.000  C
  C678     1.0000 0.40542  0.69962  0.86100  Biso   1.000  C
  C679     1.0000 0.40542  0.30038  0.13900  Biso   1.000  C
  C680     1.0000 0.59458  0.69962  0.13900  Biso   1.000  C
  C681     1.0000 0.09458  0.80038  0.86100  Biso   1.000  C
  C682     1.0000 0.90542  0.19962  0.86100  Biso   1.000  C
  C683     1.0000 0.90542  0.80038  0.13900  Biso   1.000  C
  C684     1.0000 0.09458  0.19962  0.13900  Biso   1.000  C
  C685     1.0000 0.09458  0.30038  0.36100  Biso   1.000  C
  C686     1.0000 0.90542  0.69962  0.36100  Biso   1.000  C
  C687     1.0000 0.90542  0.30038  0.63900  Biso   1.000  C
  C688     1.0000 0.09458  0.69962  0.63900  Biso   1.000  C
  C689     1.0000 0.40542  0.19962  0.63900  Biso   1.000  C
  C690     1.0000 0.59458  0.80038  0.63900  Biso   1.000  C
  C691     1.0000 0.59458  0.19962  0.36100  Biso   1.000  C
  C692     1.0000 0.40542  0.80038  0.36100  Biso   1.000  C
  C693     1.0000 0.40542  0.69962  0.13900  Biso   1.000  C
  C694     1.0000 0.59458  0.30038  0.13900  Biso   1.000  C
  C695     1.0000 0.59458  0.69962  0.86100  Biso   1.000  C
  C696     1.0000 0.40542  0.30038  0.86100  Biso   1.000  C
  C697     1.0000 0.90542  0.19962  0.13900  Biso   1.000  C
  C698     1.0000 0.09458  0.80038  0.13900  Biso   1.000  C
  C699     1.0000 0.09458  0.19962  0.86100  Biso   1.000  C
  C700     1.0000 0.90542  0.80038  0.86100  Biso   1.000  C
  C701     1.0000 0.90542  0.69962  0.63900  Biso   1.000  C
  C702     1.0000 0.09458  0.30038  0.63900  Biso   1.000  C
  C703     1.0000 0.09458  0.69962  0.36100  Biso   1.000  C
  C704     1.0000 0.90542  0.30038  0.36100  Biso   1.000  C
  C705     1.0000 0.61000  0.81112  0.39600  Biso   1.000  C
  C706     1.0000 0.39000  0.18888  0.39600  Biso   1.000  C
  C707     1.0000 0.39000  0.81112  0.60400  Biso   1.000  C
  C708     1.0000 0.61000  0.18888  0.60400  Biso   1.000  C
  C709     1.0000 0.61000  0.31112  0.89600  Biso   1.000  C
  C710     1.0000 0.39000  0.68888  0.89600  Biso   1.000  C
  C711     1.0000 0.39000  0.31112  0.10400  Biso   1.000  C
  C712     1.0000 0.61000  0.68888  0.10400  Biso   1.000  C
  C713     1.0000 0.11000  0.81112  0.89600  Biso   1.000  C
  C714     1.0000 0.89000  0.18888  0.89600  Biso   1.000  C
  C715     1.0000 0.89000  0.81112  0.10400  Biso   1.000  C
  C716     1.0000 0.11000  0.18888  0.10400  Biso   1.000  C
  C717     1.0000 0.11000  0.31112  0.39600  Biso   1.000  C
  C718     1.0000 0.89000  0.68888  0.39600  Biso   1.000  C
  C719     1.0000 0.89000  0.31112  0.60400  Biso   1.000  C
  C720     1.0000 0.11000  0.68888  0.60400  Biso   1.000  C
  C721     1.0000 0.39000  0.18888  0.60400  Biso   1.000  C
  C722     1.0000 0.61000  0.81112  0.60400  Biso   1.000  C
  C723     1.0000 0.61000  0.18888  0.39600  Biso   1.000  C
  C724     1.0000 0.39000  0.81112  0.39600  Biso   1.000  C
  C725     1.0000 0.39000  0.68888  0.10400  Biso   1.000  C
  C726     1.0000 0.61000  0.31112  0.10400  Biso   1.000  C
  C727     1.0000 0.61000  0.68888  0.89600  Biso   1.000  C
  C728     1.0000 0.39000  0.31112  0.89600  Biso   1.000  C
  C729     1.0000 0.89000  0.18888  0.10400  Biso   1.000  C
  C730     1.0000 0.11000  0.81112  0.10400  Biso   1.000  C
  C731     1.0000 0.11000  0.18888  0.89600  Biso   1.000  C
  C732     1.0000 0.89000  0.81112  0.89600  Biso   1.000  C
  C733     1.0000 0.89000  0.68888  0.60400  Biso   1.000  C
  C734     1.0000 0.11000  0.31112  0.60400  Biso   1.000  C
  C735     1.0000 0.11000  0.68888  0.39600  Biso   1.000  C
  C736     1.0000 0.89000  0.31112  0.39600  Biso   1.000  C
  H385     1.0000 0.62580  0.80170  0.41010  Biso   1.000  H
  H386     1.0000 0.37420  0.19830  0.41010  Biso   1.000  H
  H387     1.0000 0.37420  0.80170  0.58990  Biso   1.000  H
  H388     1.0000 0.62580  0.19830  0.58990  Biso   1.000  H
  H389     1.0000 0.62580  0.30170  0.91010  Biso   1.000  H
  H390     1.0000 0.37420  0.69830  0.91010  Biso   1.000  H
  H391     1.0000 0.37420  0.30170  0.08990  Biso   1.000  H
  H392     1.0000 0.62580  0.69830  0.08990  Biso   1.000  H
  H393     1.0000 0.12580  0.80170  0.91010  Biso   1.000  H
  H394     1.0000 0.87420  0.19830  0.91010  Biso   1.000  H
  H395     1.0000 0.87420  0.80170  0.08990  Biso   1.000  H
  H396     1.0000 0.12580  0.19830  0.08990  Biso   1.000  H
  H397     1.0000 0.12580  0.30170  0.41010  Biso   1.000  H
  H398     1.0000 0.87420  0.69830  0.41010  Biso   1.000  H
  H399     1.0000 0.87420  0.30170  0.58990  Biso   1.000  H
  H400     1.0000 0.12580  0.69830  0.58990  Biso   1.000  H
  H401     1.0000 0.37420  0.19830  0.58990  Biso   1.000  H
  H402     1.0000 0.62580  0.80170  0.58990  Biso   1.000  H
  H403     1.0000 0.62580  0.19830  0.41010  Biso   1.000  H
  H404     1.0000 0.37420  0.80170  0.41010  Biso   1.000  H
  H405     1.0000 0.37420  0.69830  0.08990  Biso   1.000  H
  H406     1.0000 0.62580  0.30170  0.08990  Biso   1.000  H
  H407     1.0000 0.62580  0.69830  0.91010  Biso   1.000  H
  H408     1.0000 0.37420  0.30170  0.91010  Biso   1.000  H
  H409     1.0000 0.87420  0.19830  0.08990  Biso   1.000  H
  H410     1.0000 0.12580  0.80170  0.08990  Biso   1.000  H
  H411     1.0000 0.12580  0.19830  0.91010  Biso   1.000  H
  H412     1.0000 0.87420  0.80170  0.91010  Biso   1.000  H
  H413     1.0000 0.87420  0.69830  0.58990  Biso   1.000  H
  H414     1.0000 0.12580  0.30170  0.58990  Biso   1.000  H
  H415     1.0000 0.12580  0.69830  0.41010  Biso   1.000  H
  H416     1.0000 0.87420  0.30170  0.41010  Biso   1.000  H
  C737     1.0000 0.60173  0.83551  0.40922  Biso   1.000  C
  C738     1.0000 0.39827  0.16449  0.40922  Biso   1.000  C
  C739     1.0000 0.39827  0.83551  0.59078  Biso   1.000  C
  C740     1.0000 0.60173  0.16449  0.59078  Biso   1.000  C
  C741     1.0000 0.60173  0.33551  0.90922  Biso   1.000  C
  C742     1.0000 0.39827  0.66449  0.90922  Biso   1.000  C
  C743     1.0000 0.39827  0.33551  0.09078  Biso   1.000  C
  C744     1.0000 0.60173  0.66449  0.09078  Biso   1.000  C
  C745     1.0000 0.10173  0.83551  0.90922  Biso   1.000  C
  C746     1.0000 0.89827  0.16449  0.90922  Biso   1.000  C
  C747     1.0000 0.89827  0.83551  0.09078  Biso   1.000  C
  C748     1.0000 0.10173  0.16449  0.09078  Biso   1.000  C
  C749     1.0000 0.10173  0.33551  0.40922  Biso   1.000  C
  C750     1.0000 0.89827  0.66449  0.40922  Biso   1.000  C
  C751     1.0000 0.89827  0.33551  0.59078  Biso   1.000  C
  C752     1.0000 0.10173  0.66449  0.59078  Biso   1.000  C
  C753     1.0000 0.39827  0.16449  0.59078  Biso   1.000  C
  C754     1.0000 0.60173  0.83551  0.59078  Biso   1.000  C
  C755     1.0000 0.60173  0.16449  0.40922  Biso   1.000  C
  C756     1.0000 0.39827  0.83551  0.40922  Biso   1.000  C
  C757     1.0000 0.39827  0.66449  0.09078  Biso   1.000  C
  C758     1.0000 0.60173  0.33551  0.09078  Biso   1.000  C
  C759     1.0000 0.60173  0.66449  0.90922  Biso   1.000  C
  C760     1.0000 0.39827  0.33551  0.90922  Biso   1.000  C
  C761     1.0000 0.89827  0.16449  0.09078  Biso   1.000  C
  C762     1.0000 0.10173  0.83551  0.09078  Biso   1.000  C
  C763     1.0000 0.10173  0.16449  0.90922  Biso   1.000  C
  C764     1.0000 0.89827  0.83551  0.90922  Biso   1.000  C
  C765     1.0000 0.89827  0.66449  0.59078  Biso   1.000  C
  C766     1.0000 0.10173  0.33551  0.59078  Biso   1.000  C
  C767     1.0000 0.10173  0.66449  0.40922  Biso   1.000  C
  C768     1.0000 0.89827  0.33551  0.40922  Biso   1.000  C
  C769     1.0000 0.57817  0.84950  0.38861  Biso   1.000  C
  C770     1.0000 0.42183  0.15050  0.38861  Biso   1.000  C
  C771     1.0000 0.42183  0.84950  0.61139  Biso   1.000  C
  C772     1.0000 0.57817  0.15050  0.61139  Biso   1.000  C
  C773     1.0000 0.57817  0.34950  0.88861  Biso   1.000  C
  C774     1.0000 0.42183  0.65050  0.88861  Biso   1.000  C
  C775     1.0000 0.42183  0.34950  0.11139  Biso   1.000  C
  C776     1.0000 0.57817  0.65050  0.11139  Biso   1.000  C
  C777     1.0000 0.07817  0.84950  0.88861  Biso   1.000  C
  C778     1.0000 0.92183  0.15050  0.88861  Biso   1.000  C
  C779     1.0000 0.92183  0.84950  0.11139  Biso   1.000  C
  C780     1.0000 0.07817  0.15050  0.11139  Biso   1.000  C
  C781     1.0000 0.07817  0.34950  0.38861  Biso   1.000  C
  C782     1.0000 0.92183  0.65050  0.38861  Biso   1.000  C
  C783     1.0000 0.92183  0.34950  0.61139  Biso   1.000  C
  C784     1.0000 0.07817  0.65050  0.61139  Biso   1.000  C
  C785     1.0000 0.42183  0.15050  0.61139  Biso   1.000  C
  C786     1.0000 0.57817  0.84950  0.61139  Biso   1.000  C
  C787     1.0000 0.57817  0.15050  0.38861  Biso   1.000  C
  C788     1.0000 0.42183  0.84950  0.38861  Biso   1.000  C
  C789     1.0000 0.42183  0.65050  0.11139  Biso   1.000  C
  C790     1.0000 0.57817  0.34950  0.11139  Biso   1.000  C
  C791     1.0000 0.57817  0.65050  0.88861  Biso   1.000  C
  C792     1.0000 0.42183  0.34950  0.88861  Biso   1.000  C
  C793     1.0000 0.92183  0.15050  0.11139  Biso   1.000  C
  C794     1.0000 0.07817  0.84950  0.11139  Biso   1.000  C
  C795     1.0000 0.07817  0.15050  0.88861  Biso   1.000  C
  C796     1.0000 0.92183  0.84950  0.88861  Biso   1.000  C
  C797     1.0000 0.92183  0.65050  0.61139  Biso   1.000  C
  C798     1.0000 0.07817  0.34950  0.61139  Biso   1.000  C
  C799     1.0000 0.07817  0.65050  0.38861  Biso   1.000  C
  C800     1.0000 0.92183  0.34950  0.38861  Biso   1.000  C
  H417     1.0000 0.57170  0.86590  0.39840  Biso   1.000  H
  H418     1.0000 0.42830  0.13410  0.39840  Biso   1.000  H
  H419     1.0000 0.42830  0.86590  0.60160  Biso   1.000  H
  H420     1.0000 0.57170  0.13410  0.60160  Biso   1.000  H
  H421     1.0000 0.57170  0.36590  0.89840  Biso   1.000  H
  H422     1.0000 0.42830  0.63410  0.89840  Biso   1.000  H
  H423     1.0000 0.42830  0.36590  0.10160  Biso   1.000  H
  H424     1.0000 0.57170  0.63410  0.10160  Biso   1.000  H
  H425     1.0000 0.07170  0.86590  0.89840  Biso   1.000  H
  H426     1.0000 0.92830  0.13410  0.89840  Biso   1.000  H
  H427     1.0000 0.92830  0.86590  0.10160  Biso   1.000  H
  H428     1.0000 0.07170  0.13410  0.10160  Biso   1.000  H
  H429     1.0000 0.07170  0.36590  0.39840  Biso   1.000  H
  H430     1.0000 0.92830  0.63410  0.39840  Biso   1.000  H
  H431     1.0000 0.92830  0.36590  0.60160  Biso   1.000  H
  H432     1.0000 0.07170  0.63410  0.60160  Biso   1.000  H
  H433     1.0000 0.42830  0.13410  0.60160  Biso   1.000  H
  H434     1.0000 0.57170  0.86590  0.60160  Biso   1.000  H
  H435     1.0000 0.57170  0.13410  0.39840  Biso   1.000  H
  H436     1.0000 0.42830  0.86590  0.39840  Biso   1.000  H
  H437     1.0000 0.42830  0.63410  0.10160  Biso   1.000  H
  H438     1.0000 0.57170  0.36590  0.10160  Biso   1.000  H
  H439     1.0000 0.57170  0.63410  0.89840  Biso   1.000  H
  H440     1.0000 0.42830  0.36590  0.89840  Biso   1.000  H
  H441     1.0000 0.92830  0.13410  0.10160  Biso   1.000  H
  H442     1.0000 0.07170  0.86590  0.10160  Biso   1.000  H
  H443     1.0000 0.07170  0.13410  0.89840  Biso   1.000  H
  H444     1.0000 0.92830  0.86590  0.89840  Biso   1.000  H
  H445     1.0000 0.92830  0.63410  0.60160  Biso   1.000  H
  H446     1.0000 0.07170  0.36590  0.60160  Biso   1.000  H
  H447     1.0000 0.07170  0.63410  0.39840  Biso   1.000  H
  H448     1.0000 0.92830  0.36590  0.39840  Biso   1.000  H
  C801     1.0000 0.56450  0.83879  0.35331  Biso   1.000  C
  C802     1.0000 0.43550  0.16121  0.35331  Biso   1.000  C
  C803     1.0000 0.43550  0.83879  0.64669  Biso   1.000  C
  C804     1.0000 0.56450  0.16121  0.64669  Biso   1.000  C
  C805     1.0000 0.56450  0.33879  0.85331  Biso   1.000  C
  C806     1.0000 0.43550  0.66121  0.85331  Biso   1.000  C
  C807     1.0000 0.43550  0.33879  0.14669  Biso   1.000  C
  C808     1.0000 0.56450  0.66121  0.14669  Biso   1.000  C
  C809     1.0000 0.06450  0.83879  0.85331  Biso   1.000  C
  C810     1.0000 0.93550  0.16121  0.85331  Biso   1.000  C
  C811     1.0000 0.93550  0.83879  0.14669  Biso   1.000  C
  C812     1.0000 0.06450  0.16121  0.14669  Biso   1.000  C
  C813     1.0000 0.06450  0.33879  0.35331  Biso   1.000  C
  C814     1.0000 0.93550  0.66121  0.35331  Biso   1.000  C
  C815     1.0000 0.93550  0.33879  0.64669  Biso   1.000  C
  C816     1.0000 0.06450  0.66121  0.64669  Biso   1.000  C
  C817     1.0000 0.43550  0.16121  0.64669  Biso   1.000  C
  C818     1.0000 0.56450  0.83879  0.64669  Biso   1.000  C
  C819     1.0000 0.56450  0.16121  0.35331  Biso   1.000  C
  C820     1.0000 0.43550  0.83879  0.35331  Biso   1.000  C
  C821     1.0000 0.43550  0.66121  0.14669  Biso   1.000  C
  C822     1.0000 0.56450  0.33879  0.14669  Biso   1.000  C
  C823     1.0000 0.56450  0.66121  0.85331  Biso   1.000  C
  C824     1.0000 0.43550  0.33879  0.85331  Biso   1.000  C
  C825     1.0000 0.93550  0.16121  0.14669  Biso   1.000  C
  C826     1.0000 0.06450  0.83879  0.14669  Biso   1.000  C
  C827     1.0000 0.06450  0.16121  0.85331  Biso   1.000  C
  C828     1.0000 0.93550  0.83879  0.85331  Biso   1.000  C
  C829     1.0000 0.93550  0.66121  0.64669  Biso   1.000  C
  C830     1.0000 0.06450  0.33879  0.64669  Biso   1.000  C
  C831     1.0000 0.06450  0.66121  0.35331  Biso   1.000  C
  C832     1.0000 0.93550  0.33879  0.35331  Biso   1.000  C
  C833     1.0000 0.57217  0.81429  0.34000  Biso   1.000  C
  C834     1.0000 0.42783  0.18571  0.34000  Biso   1.000  C
  C835     1.0000 0.42783  0.81429  0.66000  Biso   1.000  C
  C836     1.0000 0.57217  0.18571  0.66000  Biso   1.000  C
  C837     1.0000 0.57217  0.31429  0.84000  Biso   1.000  C
  C838     1.0000 0.42783  0.68571  0.84000  Biso   1.000  C
  C839     1.0000 0.42783  0.31429  0.16000  Biso   1.000  C
  C840     1.0000 0.57217  0.68571  0.16000  Biso   1.000  C
  C841     1.0000 0.07217  0.81429  0.84000  Biso   1.000  C
  C842     1.0000 0.92783  0.18571  0.84000  Biso   1.000  C
  C843     1.0000 0.92783  0.81429  0.16000  Biso   1.000  C
  C844     1.0000 0.07217  0.18571  0.16000  Biso   1.000  C
  C845     1.0000 0.07217  0.31429  0.34000  Biso   1.000  C
  C846     1.0000 0.92783  0.68571  0.34000  Biso   1.000  C
  C847     1.0000 0.92783  0.31429  0.66000  Biso   1.000  C
  C848     1.0000 0.07217  0.68571  0.66000  Biso   1.000  C
  C849     1.0000 0.42783  0.18571  0.66000  Biso   1.000  C
  C850     1.0000 0.57217  0.81429  0.66000  Biso   1.000  C
  C851     1.0000 0.57217  0.18571  0.34000  Biso   1.000  C
  C852     1.0000 0.42783  0.81429  0.34000  Biso   1.000  C
  C853     1.0000 0.42783  0.68571  0.16000  Biso   1.000  C
  C854     1.0000 0.57217  0.31429  0.16000  Biso   1.000  C
  C855     1.0000 0.57217  0.68571  0.84000  Biso   1.000  C
  C856     1.0000 0.42783  0.31429  0.84000  Biso   1.000  C
  C857     1.0000 0.92783  0.18571  0.16000  Biso   1.000  C
  C858     1.0000 0.07217  0.81429  0.16000  Biso   1.000  C
  C859     1.0000 0.07217  0.18571  0.84000  Biso   1.000  C
  C860     1.0000 0.92783  0.81429  0.84000  Biso   1.000  C
  C861     1.0000 0.92783  0.68571  0.66000  Biso   1.000  C
  C862     1.0000 0.07217  0.31429  0.66000  Biso   1.000  C
  C863     1.0000 0.07217  0.68571  0.34000  Biso   1.000  C
  C864     1.0000 0.92783  0.31429  0.34000  Biso   1.000  C
  H449     1.0000 0.56200  0.80720  0.31650  Biso   1.000  H
  H450     1.0000 0.43800  0.19280  0.31650  Biso   1.000  H
  H451     1.0000 0.43800  0.80720  0.68350  Biso   1.000  H
  H452     1.0000 0.56200  0.19280  0.68350  Biso   1.000  H
  H453     1.0000 0.56200  0.30720  0.81650  Biso   1.000  H
  H454     1.0000 0.43800  0.69280  0.81650  Biso   1.000  H
  H455     1.0000 0.43800  0.30720  0.18350  Biso   1.000  H
  H456     1.0000 0.56200  0.69280  0.18350  Biso   1.000  H
  H457     1.0000 0.06200  0.80720  0.81650  Biso   1.000  H
  H458     1.0000 0.93800  0.19280  0.81650  Biso   1.000  H
  H459     1.0000 0.93800  0.80720  0.18350  Biso   1.000  H
  H460     1.0000 0.06200  0.19280  0.18350  Biso   1.000  H
  H461     1.0000 0.06200  0.30720  0.31650  Biso   1.000  H
  H462     1.0000 0.93800  0.69280  0.31650  Biso   1.000  H
  H463     1.0000 0.93800  0.30720  0.68350  Biso   1.000  H
  H464     1.0000 0.06200  0.69280  0.68350  Biso   1.000  H
  H465     1.0000 0.43800  0.19280  0.68350  Biso   1.000  H
  H466     1.0000 0.56200  0.80720  0.68350  Biso   1.000  H
  H467     1.0000 0.56200  0.19280  0.31650  Biso   1.000  H
  H468     1.0000 0.43800  0.80720  0.31650  Biso   1.000  H
  H469     1.0000 0.43800  0.69280  0.18350  Biso   1.000  H
  H470     1.0000 0.56200  0.30720  0.18350  Biso   1.000  H
  H471     1.0000 0.56200  0.69280  0.81650  Biso   1.000  H
  H472     1.0000 0.43800  0.30720  0.81650  Biso   1.000  H
  H473     1.0000 0.93800  0.19280  0.18350  Biso   1.000  H
  H474     1.0000 0.06200  0.80720  0.18350  Biso   1.000  H
  H475     1.0000 0.06200  0.19280  0.81650  Biso   1.000  H
  H476     1.0000 0.93800  0.80720  0.81650  Biso   1.000  H
  H477     1.0000 0.93800  0.69280  0.68350  Biso   1.000  H
  H478     1.0000 0.06200  0.30720  0.68350  Biso   1.000  H
  H479     1.0000 0.06200  0.69280  0.31650  Biso   1.000  H
  H480     1.0000 0.93800  0.30720  0.31650  Biso   1.000  H
  C865     1.0000 0.54095  0.85378  0.32960  Biso   1.000  C
  C866     1.0000 0.45905  0.14622  0.32960  Biso   1.000  C
  C867     1.0000 0.45905  0.85378  0.67040  Biso   1.000  C
  C868     1.0000 0.54095  0.14622  0.67040  Biso   1.000  C
  C869     1.0000 0.54095  0.35378  0.82960  Biso   1.000  C
  C870     1.0000 0.45905  0.64622  0.82960  Biso   1.000  C
  C871     1.0000 0.45905  0.35378  0.17040  Biso   1.000  C
  C872     1.0000 0.54095  0.64622  0.17040  Biso   1.000  C
  C873     1.0000 0.04095  0.85378  0.82960  Biso   1.000  C
  C874     1.0000 0.95905  0.14622  0.82960  Biso   1.000  C
  C875     1.0000 0.95905  0.85378  0.17040  Biso   1.000  C
  C876     1.0000 0.04095  0.14622  0.17040  Biso   1.000  C
  C877     1.0000 0.04095  0.35378  0.32960  Biso   1.000  C
  C878     1.0000 0.95905  0.64622  0.32960  Biso   1.000  C
  C879     1.0000 0.95905  0.35378  0.67040  Biso   1.000  C
  C880     1.0000 0.04095  0.64622  0.67040  Biso   1.000  C
  C881     1.0000 0.45905  0.14622  0.67040  Biso   1.000  C
  C882     1.0000 0.54095  0.85378  0.67040  Biso   1.000  C
  C883     1.0000 0.54095  0.14622  0.32960  Biso   1.000  C
  C884     1.0000 0.45905  0.85378  0.32960  Biso   1.000  C
  C885     1.0000 0.45905  0.64622  0.17040  Biso   1.000  C
  C886     1.0000 0.54095  0.35378  0.17040  Biso   1.000  C
  C887     1.0000 0.54095  0.64622  0.82960  Biso   1.000  C
  C888     1.0000 0.45905  0.35378  0.82960  Biso   1.000  C
  C889     1.0000 0.95905  0.14622  0.17040  Biso   1.000  C
  C890     1.0000 0.04095  0.85378  0.17040  Biso   1.000  C
  C891     1.0000 0.04095  0.14622  0.82960  Biso   1.000  C
  C892     1.0000 0.95905  0.85378  0.82960  Biso   1.000  C
  C893     1.0000 0.95905  0.64622  0.67040  Biso   1.000  C
  C894     1.0000 0.04095  0.35378  0.67040  Biso   1.000  C
  C895     1.0000 0.04095  0.64622  0.32960  Biso   1.000  C
  C896     1.0000 0.95905  0.35378  0.32960  Biso   1.000  C
  C897     1.0000 0.61920  0.84791  0.44393  Biso   1.000  C
  C898     1.0000 0.38080  0.15209  0.44393  Biso   1.000  C
  C899     1.0000 0.38080  0.84791  0.55607  Biso   1.000  C
  C900     1.0000 0.61920  0.15209  0.55607  Biso   1.000  C
  C901     1.0000 0.61920  0.34791  0.94393  Biso   1.000  C
  C902     1.0000 0.38080  0.65209  0.94393  Biso   1.000  C
  C903     1.0000 0.38080  0.34791  0.05607  Biso   1.000  C
  C904     1.0000 0.61920  0.65209  0.05607  Biso   1.000  C
  C905     1.0000 0.11920  0.84791  0.94393  Biso   1.000  C
  C906     1.0000 0.88080  0.15209  0.94393  Biso   1.000  C
  C907     1.0000 0.88080  0.84791  0.05607  Biso   1.000  C
  C908     1.0000 0.11920  0.15209  0.05607  Biso   1.000  C
  C909     1.0000 0.11920  0.34791  0.44393  Biso   1.000  C
  C910     1.0000 0.88080  0.65209  0.44393  Biso   1.000  C
  C911     1.0000 0.88080  0.34791  0.55607  Biso   1.000  C
  C912     1.0000 0.11920  0.65209  0.55607  Biso   1.000  C
  C913     1.0000 0.38080  0.15209  0.55607  Biso   1.000  C
  C914     1.0000 0.61920  0.84791  0.55607  Biso   1.000  C
  C915     1.0000 0.61920  0.15209  0.44393  Biso   1.000  C
  C916     1.0000 0.38080  0.84791  0.44393  Biso   1.000  C
  C917     1.0000 0.38080  0.65209  0.05607  Biso   1.000  C
  C918     1.0000 0.61920  0.34791  0.05607  Biso   1.000  C
  C919     1.0000 0.61920  0.65209  0.94393  Biso   1.000  C
  C920     1.0000 0.38080  0.34791  0.94393  Biso   1.000  C
  C921     1.0000 0.88080  0.15209  0.05607  Biso   1.000  C
  C922     1.0000 0.11920  0.84791  0.05607  Biso   1.000  C
  C923     1.0000 0.11920  0.15209  0.94393  Biso   1.000  C
  C924     1.0000 0.88080  0.84791  0.94393  Biso   1.000  C
  C925     1.0000 0.88080  0.65209  0.55607  Biso   1.000  C
  C926     1.0000 0.11920  0.34791  0.55607  Biso   1.000  C
  C927     1.0000 0.11920  0.65209  0.44393  Biso   1.000  C
  C928     1.0000 0.88080  0.34791  0.44393  Biso   1.000  C
  O353     1.0000 0.79931  0.52649  0.31226  Biso   1.000  O
  O354     1.0000 0.20069  0.47351  0.31226  Biso   1.000  O
  O355     1.0000 0.20069  0.52649  0.68774  Biso   1.000  O
  O356     1.0000 0.79931  0.47351  0.68774  Biso   1.000  O
  O357     1.0000 0.79931  0.02649  0.81226  Biso   1.000  O
  O358     1.0000 0.20069  0.97351  0.81226  Biso   1.000  O
  O359     1.0000 0.20069  0.02649  0.18774  Biso   1.000  O
  O360     1.0000 0.79931  0.97351  0.18774  Biso   1.000  O
  O361     1.0000 0.29931  0.52649  0.81226  Biso   1.000  O
  O362     1.0000 0.70069  0.47351  0.81226  Biso   1.000  O
  O363     1.0000 0.70069  0.52649  0.18774  Biso   1.000  O
  O364     1.0000 0.29931  0.47351  0.18774  Biso   1.000  O
  O365     1.0000 0.29931  0.02649  0.31226  Biso   1.000  O
  O366     1.0000 0.70069  0.97351  0.31226  Biso   1.000  O
  O367     1.0000 0.70069  0.02649  0.68774  Biso   1.000  O
  O368     1.0000 0.29931  0.97351  0.68774  Biso   1.000  O
  O369     1.0000 0.20069  0.47351  0.68774  Biso   1.000  O
  O370     1.0000 0.79931  0.52649  0.68774  Biso   1.000  O
  O371     1.0000 0.79931  0.47351  0.31226  Biso   1.000  O
  O372     1.0000 0.20069  0.52649  0.31226  Biso   1.000  O
  O373     1.0000 0.20069  0.97351  0.18774  Biso   1.000  O
  O374     1.0000 0.79931  0.02649  0.18774  Biso   1.000  O
  O375     1.0000 0.79931  0.97351  0.81226  Biso   1.000  O
  O376     1.0000 0.20069  0.02649  0.81226  Biso   1.000  O
  O377     1.0000 0.70069  0.47351  0.18774  Biso   1.000  O
  O378     1.0000 0.29931  0.52649  0.18774  Biso   1.000  O
  O379     1.0000 0.29931  0.47351  0.81226  Biso   1.000  O
  O380     1.0000 0.70069  0.52649  0.81226  Biso   1.000  O
  O381     1.0000 0.70069  0.97351  0.68774  Biso   1.000  O
  O382     1.0000 0.29931  0.02649  0.68774  Biso   1.000  O
  O383     1.0000 0.29931  0.97351  0.31226  Biso   1.000  O
  O384     1.0000 0.70069  0.02649  0.31226  Biso   1.000  O
  O385     1.0000 0.83786  0.52641  0.35992  Biso   1.000  O
  O386     1.0000 0.16214  0.47359  0.35992  Biso   1.000  O
  O387     1.0000 0.16214  0.52641  0.64008  Biso   1.000  O
  O388     1.0000 0.83786  0.47359  0.64008  Biso   1.000  O
  O389     1.0000 0.83786  0.02641  0.85992  Biso   1.000  O
  O390     1.0000 0.16214  0.97359  0.85992  Biso   1.000  O
  O391     1.0000 0.16214  0.02641  0.14008  Biso   1.000  O
  O392     1.0000 0.83786  0.97359  0.14008  Biso   1.000  O
  O393     1.0000 0.33786  0.52641  0.85992  Biso   1.000  O
  O394     1.0000 0.66214  0.47359  0.85992  Biso   1.000  O
  O395     1.0000 0.66214  0.52641  0.14008  Biso   1.000  O
  O396     1.0000 0.33786  0.47359  0.14008  Biso   1.000  O
  O397     1.0000 0.33786  0.02641  0.35992  Biso   1.000  O
  O398     1.0000 0.66214  0.97359  0.35992  Biso   1.000  O
  O399     1.0000 0.66214  0.02641  0.64008  Biso   1.000  O
  O400     1.0000 0.33786  0.97359  0.64008  Biso   1.000  O
  O401     1.0000 0.16214  0.47359  0.64008  Biso   1.000  O
  O402     1.0000 0.83786  0.52641  0.64008  Biso   1.000  O
  O403     1.0000 0.83786  0.47359  0.35992  Biso   1.000  O
  O404     1.0000 0.16214  0.52641  0.35992  Biso   1.000  O
  O405     1.0000 0.16214  0.97359  0.14008  Biso   1.000  O
  O406     1.0000 0.83786  0.02641  0.14008  Biso   1.000  O
  O407     1.0000 0.83786  0.97359  0.85992  Biso   1.000  O
  O408     1.0000 0.16214  0.02641  0.85992  Biso   1.000  O
  O409     1.0000 0.66214  0.47359  0.14008  Biso   1.000  O
  O410     1.0000 0.33786  0.52641  0.14008  Biso   1.000  O
  O411     1.0000 0.33786  0.47359  0.85992  Biso   1.000  O
  O412     1.0000 0.66214  0.52641  0.85992  Biso   1.000  O
  O413     1.0000 0.66214  0.97359  0.64008  Biso   1.000  O
  O414     1.0000 0.33786  0.02641  0.64008  Biso   1.000  O
  O415     1.0000 0.33786  0.97359  0.35992  Biso   1.000  O
  O416     1.0000 0.66214  0.02641  0.35992  Biso   1.000  O
  O417     1.0000 0.84424  0.59630  0.45719  Biso   1.000  O
  O418     1.0000 0.15576  0.40370  0.45719  Biso   1.000  O
  O419     1.0000 0.15576  0.59630  0.54281  Biso   1.000  O
  O420     1.0000 0.84424  0.40370  0.54281  Biso   1.000  O
  O421     1.0000 0.84424  0.09630  0.95719  Biso   1.000  O
  O422     1.0000 0.15576  0.90370  0.95719  Biso   1.000  O
  O423     1.0000 0.15576  0.09630  0.04281  Biso   1.000  O
  O424     1.0000 0.84424  0.90370  0.04281  Biso   1.000  O
  O425     1.0000 0.34424  0.59630  0.95719  Biso   1.000  O
  O426     1.0000 0.65576  0.40370  0.95719  Biso   1.000  O
  O427     1.0000 0.65576  0.59630  0.04281  Biso   1.000  O
  O428     1.0000 0.34424  0.40370  0.04281  Biso   1.000  O
  O429     1.0000 0.34424  0.09630  0.45719  Biso   1.000  O
  O430     1.0000 0.65576  0.90370  0.45719  Biso   1.000  O
  O431     1.0000 0.65576  0.09630  0.54281  Biso   1.000  O
  O432     1.0000 0.34424  0.90370  0.54281  Biso   1.000  O
  O433     1.0000 0.15576  0.40370  0.54281  Biso   1.000  O
  O434     1.0000 0.84424  0.59630  0.54281  Biso   1.000  O
  O435     1.0000 0.84424  0.40370  0.45719  Biso   1.000  O
  O436     1.0000 0.15576  0.59630  0.45719  Biso   1.000  O
  O437     1.0000 0.15576  0.90370  0.04281  Biso   1.000  O
  O438     1.0000 0.84424  0.09630  0.04281  Biso   1.000  O
  O439     1.0000 0.84424  0.90370  0.95719  Biso   1.000  O
  O440     1.0000 0.15576  0.09630  0.95719  Biso   1.000  O
  O441     1.0000 0.65576  0.40370  0.04281  Biso   1.000  O
  O442     1.0000 0.34424  0.59630  0.04281  Biso   1.000  O
  O443     1.0000 0.34424  0.40370  0.95719  Biso   1.000  O
  O444     1.0000 0.65576  0.59630  0.95719  Biso   1.000  O
  O445     1.0000 0.65576  0.90370  0.54281  Biso   1.000  O
  O446     1.0000 0.34424  0.09630  0.54281  Biso   1.000  O
  O447     1.0000 0.34424  0.90370  0.45719  Biso   1.000  O
  O448     1.0000 0.65576  0.09630  0.45719  Biso   1.000  O
  O449     1.0000 0.80867  0.62802  0.45683  Biso   1.000  O
  O450     1.0000 0.19133  0.37198  0.45683  Biso   1.000  O
  O451     1.0000 0.19133  0.62802  0.54317  Biso   1.000  O
  O452     1.0000 0.80867  0.37198  0.54317  Biso   1.000  O
  O453     1.0000 0.80867  0.12802  0.95683  Biso   1.000  O
  O454     1.0000 0.19133  0.87198  0.95683  Biso   1.000  O
  O455     1.0000 0.19133  0.12802  0.04317  Biso   1.000  O
  O456     1.0000 0.80867  0.87198  0.04317  Biso   1.000  O
  O457     1.0000 0.30867  0.62802  0.95683  Biso   1.000  O
  O458     1.0000 0.69133  0.37198  0.95683  Biso   1.000  O
  O459     1.0000 0.69133  0.62802  0.04317  Biso   1.000  O
  O460     1.0000 0.30867  0.37198  0.04317  Biso   1.000  O
  O461     1.0000 0.30867  0.12802  0.45683  Biso   1.000  O
  O462     1.0000 0.69133  0.87198  0.45683  Biso   1.000  O
  O463     1.0000 0.69133  0.12802  0.54317  Biso   1.000  O
  O464     1.0000 0.30867  0.87198  0.54317  Biso   1.000  O
  O465     1.0000 0.19133  0.37198  0.54317  Biso   1.000  O
  O466     1.0000 0.80867  0.62802  0.54317  Biso   1.000  O
  O467     1.0000 0.80867  0.37198  0.45683  Biso   1.000  O
  O468     1.0000 0.19133  0.62802  0.45683  Biso   1.000  O
  O469     1.0000 0.19133  0.87198  0.04317  Biso   1.000  O
  O470     1.0000 0.80867  0.12802  0.04317  Biso   1.000  O
  O471     1.0000 0.80867  0.87198  0.95683  Biso   1.000  O
  O472     1.0000 0.19133  0.12802  0.95683  Biso   1.000  O
  O473     1.0000 0.69133  0.37198  0.04317  Biso   1.000  O
  O474     1.0000 0.30867  0.62802  0.04317  Biso   1.000  O
  O475     1.0000 0.30867  0.37198  0.95683  Biso   1.000  O
  O476     1.0000 0.69133  0.62802  0.95683  Biso   1.000  O
  O477     1.0000 0.69133  0.87198  0.54317  Biso   1.000  O
  O478     1.0000 0.30867  0.12802  0.54317  Biso   1.000  O
  O479     1.0000 0.30867  0.87198  0.45683  Biso   1.000  O
  O480     1.0000 0.69133  0.12802  0.45683  Biso   1.000  O
  N65      1.0000 0.73517  0.60361  0.33817  Biso   1.000  N
  N66      1.0000 0.26483  0.39639  0.33817  Biso   1.000  N
  N67      1.0000 0.26483  0.60361  0.66183  Biso   1.000  N
  N68      1.0000 0.73517  0.39639  0.66183  Biso   1.000  N
  N69      1.0000 0.73517  0.10361  0.83817  Biso   1.000  N
  N70      1.0000 0.26483  0.89639  0.83817  Biso   1.000  N
  N71      1.0000 0.26483  0.10361  0.16183  Biso   1.000  N
  N72      1.0000 0.73517  0.89639  0.16183  Biso   1.000  N
  N73      1.0000 0.23517  0.60361  0.83817  Biso   1.000  N
  N74      1.0000 0.76483  0.39639  0.83817  Biso   1.000  N
  N75      1.0000 0.76483  0.60361  0.16183  Biso   1.000  N
  N76      1.0000 0.23517  0.39639  0.16183  Biso   1.000  N
  N77      1.0000 0.23517  0.10361  0.33817  Biso   1.000  N
  N78      1.0000 0.76483  0.89639  0.33817  Biso   1.000  N
  N79      1.0000 0.76483  0.10361  0.66183  Biso   1.000  N
  N80      1.0000 0.23517  0.89639  0.66183  Biso   1.000  N
  N81      1.0000 0.26483  0.39639  0.66183  Biso   1.000  N
  N82      1.0000 0.73517  0.60361  0.66183  Biso   1.000  N
  N83      1.0000 0.73517  0.39639  0.33817  Biso   1.000  N
  N84      1.0000 0.26483  0.60361  0.33817  Biso   1.000  N
  N85      1.0000 0.26483  0.89639  0.16183  Biso   1.000  N
  N86      1.0000 0.73517  0.10361  0.16183  Biso   1.000  N
  N87      1.0000 0.73517  0.89639  0.83817  Biso   1.000  N
  N88      1.0000 0.26483  0.10361  0.83817  Biso   1.000  N
  N89      1.0000 0.76483  0.39639  0.16183  Biso   1.000  N
  N90      1.0000 0.23517  0.60361  0.16183  Biso   1.000  N
  N91      1.0000 0.23517  0.39639  0.83817  Biso   1.000  N
  N92      1.0000 0.76483  0.60361  0.83817  Biso   1.000  N
  N93      1.0000 0.76483  0.89639  0.66183  Biso   1.000  N
  N94      1.0000 0.23517  0.10361  0.66183  Biso   1.000  N
  N95      1.0000 0.23517  0.89639  0.33817  Biso   1.000  N
  N96      1.0000 0.76483  0.10361  0.33817  Biso   1.000  N
  H481     1.0000 0.72510  0.59300  0.32170  Biso   1.000  H
  H482     1.0000 0.27490  0.40700  0.32170  Biso   1.000  H
  H483     1.0000 0.27490  0.59300  0.67830  Biso   1.000  H
  H484     1.0000 0.72510  0.40700  0.67830  Biso   1.000  H
  H485     1.0000 0.72510  0.09300  0.82170  Biso   1.000  H
  H486     1.0000 0.27490  0.90700  0.82170  Biso   1.000  H
  H487     1.0000 0.27490  0.09300  0.17830  Biso   1.000  H
  H488     1.0000 0.72510  0.90700  0.17830  Biso   1.000  H
  H489     1.0000 0.22510  0.59300  0.82170  Biso   1.000  H
  H490     1.0000 0.77490  0.40700  0.82170  Biso   1.000  H
  H491     1.0000 0.77490  0.59300  0.17830  Biso   1.000  H
  H492     1.0000 0.22510  0.40700  0.17830  Biso   1.000  H
  H493     1.0000 0.22510  0.09300  0.32170  Biso   1.000  H
  H494     1.0000 0.77490  0.90700  0.32170  Biso   1.000  H
  H495     1.0000 0.77490  0.09300  0.67830  Biso   1.000  H
  H496     1.0000 0.22510  0.90700  0.67830  Biso   1.000  H
  H497     1.0000 0.27490  0.40700  0.67830  Biso   1.000  H
  H498     1.0000 0.72510  0.59300  0.67830  Biso   1.000  H
  H499     1.0000 0.72510  0.40700  0.32170  Biso   1.000  H
  H500     1.0000 0.27490  0.59300  0.32170  Biso   1.000  H
  H501     1.0000 0.27490  0.90700  0.17830  Biso   1.000  H
  H502     1.0000 0.72510  0.09300  0.17830  Biso   1.000  H
  H503     1.0000 0.72510  0.90700  0.82170  Biso   1.000  H
  H504     1.0000 0.27490  0.09300  0.82170  Biso   1.000  H
  H505     1.0000 0.77490  0.40700  0.17830  Biso   1.000  H
  H506     1.0000 0.22510  0.59300  0.17830  Biso   1.000  H
  H507     1.0000 0.22510  0.40700  0.82170  Biso   1.000  H
  H508     1.0000 0.77490  0.59300  0.82170  Biso   1.000  H
  H509     1.0000 0.77490  0.90700  0.67830  Biso   1.000  H
  H510     1.0000 0.22510  0.09300  0.67830  Biso   1.000  H
  H511     1.0000 0.22510  0.90700  0.32170  Biso   1.000  H
  H512     1.0000 0.77490  0.09300  0.32170  Biso   1.000  H
  C929     1.0000 0.76226  0.59302  0.35906  Biso   1.000  C
  C930     1.0000 0.23774  0.40698  0.35906  Biso   1.000  C
  C931     1.0000 0.23774  0.59302  0.64094  Biso   1.000  C
  C932     1.0000 0.76226  0.40698  0.64094  Biso   1.000  C
  C933     1.0000 0.76226  0.09302  0.85906  Biso   1.000  C
  C934     1.0000 0.23774  0.90698  0.85906  Biso   1.000  C
  C935     1.0000 0.23774  0.09302  0.14094  Biso   1.000  C
  C936     1.0000 0.76226  0.90698  0.14094  Biso   1.000  C
  C937     1.0000 0.26226  0.59302  0.85906  Biso   1.000  C
  C938     1.0000 0.73774  0.40698  0.85906  Biso   1.000  C
  C939     1.0000 0.73774  0.59302  0.14094  Biso   1.000  C
  C940     1.0000 0.26226  0.40698  0.14094  Biso   1.000  C
  C941     1.0000 0.26226  0.09302  0.35906  Biso   1.000  C
  C942     1.0000 0.73774  0.90698  0.35906  Biso   1.000  C
  C943     1.0000 0.73774  0.09302  0.64094  Biso   1.000  C
  C944     1.0000 0.26226  0.90698  0.64094  Biso   1.000  C
  C945     1.0000 0.23774  0.40698  0.64094  Biso   1.000  C
  C946     1.0000 0.76226  0.59302  0.64094  Biso   1.000  C
  C947     1.0000 0.76226  0.40698  0.35906  Biso   1.000  C
  C948     1.0000 0.23774  0.59302  0.35906  Biso   1.000  C
  C949     1.0000 0.23774  0.90698  0.14094  Biso   1.000  C
  C950     1.0000 0.76226  0.09302  0.14094  Biso   1.000  C
  C951     1.0000 0.76226  0.90698  0.85906  Biso   1.000  C
  C952     1.0000 0.23774  0.09302  0.85906  Biso   1.000  C
  C953     1.0000 0.73774  0.40698  0.14094  Biso   1.000  C
  C954     1.0000 0.26226  0.59302  0.14094  Biso   1.000  C
  C955     1.0000 0.26226  0.40698  0.85906  Biso   1.000  C
  C956     1.0000 0.73774  0.59302  0.85906  Biso   1.000  C
  C957     1.0000 0.73774  0.90698  0.64094  Biso   1.000  C
  C958     1.0000 0.26226  0.09302  0.64094  Biso   1.000  C
  C959     1.0000 0.26226  0.90698  0.35906  Biso   1.000  C
  C960     1.0000 0.73774  0.09302  0.35906  Biso   1.000  C
  C961     1.0000 0.77274  0.56964  0.34578  Biso   1.000  C
  C962     1.0000 0.22726  0.43036  0.34578  Biso   1.000  C
  C963     1.0000 0.22726  0.56964  0.65422  Biso   1.000  C
  C964     1.0000 0.77274  0.43036  0.65422  Biso   1.000  C
  C965     1.0000 0.77274  0.06964  0.84578  Biso   1.000  C
  C966     1.0000 0.22726  0.93036  0.84578  Biso   1.000  C
  C967     1.0000 0.22726  0.06964  0.15422  Biso   1.000  C
  C968     1.0000 0.77274  0.93036  0.15422  Biso   1.000  C
  C969     1.0000 0.27274  0.56964  0.84578  Biso   1.000  C
  C970     1.0000 0.72726  0.43036  0.84578  Biso   1.000  C
  C971     1.0000 0.72726  0.56964  0.15422  Biso   1.000  C
  C972     1.0000 0.27274  0.43036  0.15422  Biso   1.000  C
  C973     1.0000 0.27274  0.06964  0.34578  Biso   1.000  C
  C974     1.0000 0.72726  0.93036  0.34578  Biso   1.000  C
  C975     1.0000 0.72726  0.06964  0.65422  Biso   1.000  C
  C976     1.0000 0.27274  0.93036  0.65422  Biso   1.000  C
  C977     1.0000 0.22726  0.43036  0.65422  Biso   1.000  C
  C978     1.0000 0.77274  0.56964  0.65422  Biso   1.000  C
  C979     1.0000 0.77274  0.43036  0.34578  Biso   1.000  C
  C980     1.0000 0.22726  0.56964  0.34578  Biso   1.000  C
  C981     1.0000 0.22726  0.93036  0.15422  Biso   1.000  C
  C982     1.0000 0.77274  0.06964  0.15422  Biso   1.000  C
  C983     1.0000 0.77274  0.93036  0.84578  Biso   1.000  C
  C984     1.0000 0.22726  0.06964  0.84578  Biso   1.000  C
  C985     1.0000 0.72726  0.43036  0.15422  Biso   1.000  C
  C986     1.0000 0.27274  0.56964  0.15422  Biso   1.000  C
  C987     1.0000 0.27274  0.43036  0.84578  Biso   1.000  C
  C988     1.0000 0.72726  0.56964  0.84578  Biso   1.000  C
  C989     1.0000 0.72726  0.93036  0.65422  Biso   1.000  C
  C990     1.0000 0.27274  0.06964  0.65422  Biso   1.000  C
  C991     1.0000 0.27274  0.93036  0.34578  Biso   1.000  C
  C992     1.0000 0.72726  0.06964  0.34578  Biso   1.000  C
  H513     1.0000 0.76160  0.56100  0.32440  Biso   1.000  H
  H514     1.0000 0.23840  0.43900  0.32440  Biso   1.000  H
  H515     1.0000 0.23840  0.56100  0.67560  Biso   1.000  H
  H516     1.0000 0.76160  0.43900  0.67560  Biso   1.000  H
  H517     1.0000 0.76160  0.06100  0.82440  Biso   1.000  H
  H518     1.0000 0.23840  0.93900  0.82440  Biso   1.000  H
  H519     1.0000 0.23840  0.06100  0.17560  Biso   1.000  H
  H520     1.0000 0.76160  0.93900  0.17560  Biso   1.000  H
  H521     1.0000 0.26160  0.56100  0.82440  Biso   1.000  H
  H522     1.0000 0.73840  0.43900  0.82440  Biso   1.000  H
  H523     1.0000 0.73840  0.56100  0.17560  Biso   1.000  H
  H524     1.0000 0.26160  0.43900  0.17560  Biso   1.000  H
  H525     1.0000 0.26160  0.06100  0.32440  Biso   1.000  H
  H526     1.0000 0.73840  0.93900  0.32440  Biso   1.000  H
  H527     1.0000 0.73840  0.06100  0.67560  Biso   1.000  H
  H528     1.0000 0.26160  0.93900  0.67560  Biso   1.000  H
  H529     1.0000 0.23840  0.43900  0.67560  Biso   1.000  H
  H530     1.0000 0.76160  0.56100  0.67560  Biso   1.000  H
  H531     1.0000 0.76160  0.43900  0.32440  Biso   1.000  H
  H532     1.0000 0.23840  0.56100  0.32440  Biso   1.000  H
  H533     1.0000 0.23840  0.93900  0.17560  Biso   1.000  H
  H534     1.0000 0.76160  0.06100  0.17560  Biso   1.000  H
  H535     1.0000 0.76160  0.93900  0.82440  Biso   1.000  H
  H536     1.0000 0.23840  0.06100  0.82440  Biso   1.000  H
  H537     1.0000 0.73840  0.43900  0.17560  Biso   1.000  H
  H538     1.0000 0.26160  0.56100  0.17560  Biso   1.000  H
  H539     1.0000 0.26160  0.43900  0.82440  Biso   1.000  H
  H540     1.0000 0.73840  0.56100  0.82440  Biso   1.000  H
  H541     1.0000 0.73840  0.93900  0.67560  Biso   1.000  H
  H542     1.0000 0.26160  0.06100  0.67560  Biso   1.000  H
  H543     1.0000 0.26160  0.93900  0.32440  Biso   1.000  H
  H544     1.0000 0.73840  0.06100  0.32440  Biso   1.000  H
  C993     1.0000 0.79894  0.55839  0.36277  Biso   1.000  C
  C994     1.0000 0.20106  0.44161  0.36277  Biso   1.000  C
  C995     1.0000 0.20106  0.55839  0.63723  Biso   1.000  C
  C996     1.0000 0.79894  0.44161  0.63723  Biso   1.000  C
  C997     1.0000 0.79894  0.05839  0.86277  Biso   1.000  C
  C998     1.0000 0.20106  0.94161  0.86277  Biso   1.000  C
  C999     1.0000 0.20106  0.05839  0.13723  Biso   1.000  C
  C1000    1.0000 0.79894  0.94161  0.13723  Biso   1.000  C
  C1001    1.0000 0.29894  0.55839  0.86277  Biso   1.000  C
  C1002    1.0000 0.70106  0.44161  0.86277  Biso   1.000  C
  C1003    1.0000 0.70106  0.55839  0.13723  Biso   1.000  C
  C1004    1.0000 0.29894  0.44161  0.13723  Biso   1.000  C
  C1005    1.0000 0.29894  0.05839  0.36277  Biso   1.000  C
  C1006    1.0000 0.70106  0.94161  0.36277  Biso   1.000  C
  C1007    1.0000 0.70106  0.05839  0.63723  Biso   1.000  C
  C1008    1.0000 0.29894  0.94161  0.63723  Biso   1.000  C
  C1009    1.0000 0.20106  0.44161  0.63723  Biso   1.000  C
  C1010    1.0000 0.79894  0.55839  0.63723  Biso   1.000  C
  C1011    1.0000 0.79894  0.44161  0.36277  Biso   1.000  C
  C1012    1.0000 0.20106  0.55839  0.36277  Biso   1.000  C
  C1013    1.0000 0.20106  0.94161  0.13723  Biso   1.000  C
  C1014    1.0000 0.79894  0.05839  0.13723  Biso   1.000  C
  C1015    1.0000 0.79894  0.94161  0.86277  Biso   1.000  C
  C1016    1.0000 0.20106  0.05839  0.86277  Biso   1.000  C
  C1017    1.0000 0.70106  0.44161  0.13723  Biso   1.000  C
  C1018    1.0000 0.29894  0.55839  0.13723  Biso   1.000  C
  C1019    1.0000 0.29894  0.44161  0.86277  Biso   1.000  C
  C1020    1.0000 0.70106  0.55839  0.86277  Biso   1.000  C
  C1021    1.0000 0.70106  0.94161  0.63723  Biso   1.000  C
  C1022    1.0000 0.29894  0.05839  0.63723  Biso   1.000  C
  C1023    1.0000 0.29894  0.94161  0.36277  Biso   1.000  C
  C1024    1.0000 0.70106  0.05839  0.36277  Biso   1.000  C
  C1025    1.0000 0.81404  0.57093  0.39559  Biso   1.000  C
  C1026    1.0000 0.18596  0.42907  0.39559  Biso   1.000  C
  C1027    1.0000 0.18596  0.57093  0.60441  Biso   1.000  C
  C1028    1.0000 0.81404  0.42907  0.60441  Biso   1.000  C
  C1029    1.0000 0.81404  0.07093  0.89559  Biso   1.000  C
  C1030    1.0000 0.18596  0.92907  0.89559  Biso   1.000  C
  C1031    1.0000 0.18596  0.07093  0.10441  Biso   1.000  C
  C1032    1.0000 0.81404  0.92907  0.10441  Biso   1.000  C
  C1033    1.0000 0.31404  0.57093  0.89559  Biso   1.000  C
  C1034    1.0000 0.68596  0.42907  0.89559  Biso   1.000  C
  C1035    1.0000 0.68596  0.57093  0.10441  Biso   1.000  C
  C1036    1.0000 0.31404  0.42907  0.10441  Biso   1.000  C
  C1037    1.0000 0.31404  0.07093  0.39559  Biso   1.000  C
  C1038    1.0000 0.68596  0.92907  0.39559  Biso   1.000  C
  C1039    1.0000 0.68596  0.07093  0.60441  Biso   1.000  C
  C1040    1.0000 0.31404  0.92907  0.60441  Biso   1.000  C
  C1041    1.0000 0.18596  0.42907  0.60441  Biso   1.000  C
  C1042    1.0000 0.81404  0.57093  0.60441  Biso   1.000  C
  C1043    1.0000 0.81404  0.42907  0.39559  Biso   1.000  C
  C1044    1.0000 0.18596  0.57093  0.39559  Biso   1.000  C
  C1045    1.0000 0.18596  0.92907  0.10441  Biso   1.000  C
  C1046    1.0000 0.81404  0.07093  0.10441  Biso   1.000  C
  C1047    1.0000 0.81404  0.92907  0.89559  Biso   1.000  C
  C1048    1.0000 0.18596  0.07093  0.89559  Biso   1.000  C
  C1049    1.0000 0.68596  0.42907  0.10441  Biso   1.000  C
  C1050    1.0000 0.31404  0.57093  0.10441  Biso   1.000  C
  C1051    1.0000 0.31404  0.42907  0.89559  Biso   1.000  C
  C1052    1.0000 0.68596  0.57093  0.89559  Biso   1.000  C
  C1053    1.0000 0.68596  0.92907  0.60441  Biso   1.000  C
  C1054    1.0000 0.31404  0.07093  0.60441  Biso   1.000  C
  C1055    1.0000 0.31404  0.92907  0.39559  Biso   1.000  C
  C1056    1.0000 0.68596  0.07093  0.39559  Biso   1.000  C
  H545     1.0000 0.83230  0.56360  0.40790  Biso   1.000  H
  H546     1.0000 0.16770  0.43640  0.40790  Biso   1.000  H
  H547     1.0000 0.16770  0.56360  0.59210  Biso   1.000  H
  H548     1.0000 0.83230  0.43640  0.59210  Biso   1.000  H
  H549     1.0000 0.83230  0.06360  0.90790  Biso   1.000  H
  H550     1.0000 0.16770  0.93640  0.90790  Biso   1.000  H
  H551     1.0000 0.16770  0.06360  0.09210  Biso   1.000  H
  H552     1.0000 0.83230  0.93640  0.09210  Biso   1.000  H
  H553     1.0000 0.33230  0.56360  0.90790  Biso   1.000  H
  H554     1.0000 0.66770  0.43640  0.90790  Biso   1.000  H
  H555     1.0000 0.66770  0.56360  0.09210  Biso   1.000  H
  H556     1.0000 0.33230  0.43640  0.09210  Biso   1.000  H
  H557     1.0000 0.33230  0.06360  0.40790  Biso   1.000  H
  H558     1.0000 0.66770  0.93640  0.40790  Biso   1.000  H
  H559     1.0000 0.66770  0.06360  0.59210  Biso   1.000  H
  H560     1.0000 0.33230  0.93640  0.59210  Biso   1.000  H
  H561     1.0000 0.16770  0.43640  0.59210  Biso   1.000  H
  H562     1.0000 0.83230  0.56360  0.59210  Biso   1.000  H
  H563     1.0000 0.83230  0.43640  0.40790  Biso   1.000  H
  H564     1.0000 0.16770  0.56360  0.40790  Biso   1.000  H
  H565     1.0000 0.16770  0.93640  0.09210  Biso   1.000  H
  H566     1.0000 0.83230  0.06360  0.09210  Biso   1.000  H
  H567     1.0000 0.83230  0.93640  0.90790  Biso   1.000  H
  H568     1.0000 0.16770  0.06360  0.90790  Biso   1.000  H
  H569     1.0000 0.66770  0.43640  0.09210  Biso   1.000  H
  H570     1.0000 0.33230  0.56360  0.09210  Biso   1.000  H
  H571     1.0000 0.33230  0.43640  0.90790  Biso   1.000  H
  H572     1.0000 0.66770  0.56360  0.90790  Biso   1.000  H
  H573     1.0000 0.66770  0.93640  0.59210  Biso   1.000  H
  H574     1.0000 0.33230  0.06360  0.59210  Biso   1.000  H
  H575     1.0000 0.33230  0.93640  0.40790  Biso   1.000  H
  H576     1.0000 0.66770  0.06360  0.40790  Biso   1.000  H
  C1057    1.0000 0.80232  0.59381  0.40998  Biso   1.000  C
  C1058    1.0000 0.19768  0.40619  0.40998  Biso   1.000  C
  C1059    1.0000 0.19768  0.59381  0.59002  Biso   1.000  C
  C1060    1.0000 0.80232  0.40619  0.59002  Biso   1.000  C
  C1061    1.0000 0.80232  0.09381  0.90998  Biso   1.000  C
  C1062    1.0000 0.19768  0.90619  0.90998  Biso   1.000  C
  C1063    1.0000 0.19768  0.09381  0.09002  Biso   1.000  C
  C1064    1.0000 0.80232  0.90619  0.09002  Biso   1.000  C
  C1065    1.0000 0.30232  0.59381  0.90998  Biso   1.000  C
  C1066    1.0000 0.69768  0.40619  0.90998  Biso   1.000  C
  C1067    1.0000 0.69768  0.59381  0.09002  Biso   1.000  C
  C1068    1.0000 0.30232  0.40619  0.09002  Biso   1.000  C
  C1069    1.0000 0.30232  0.09381  0.40998  Biso   1.000  C
  C1070    1.0000 0.69768  0.90619  0.40998  Biso   1.000  C
  C1071    1.0000 0.69768  0.09381  0.59002  Biso   1.000  C
  C1072    1.0000 0.30232  0.90619  0.59002  Biso   1.000  C
  C1073    1.0000 0.19768  0.40619  0.59002  Biso   1.000  C
  C1074    1.0000 0.80232  0.59381  0.59002  Biso   1.000  C
  C1075    1.0000 0.80232  0.40619  0.40998  Biso   1.000  C
  C1076    1.0000 0.19768  0.59381  0.40998  Biso   1.000  C
  C1077    1.0000 0.19768  0.90619  0.09002  Biso   1.000  C
  C1078    1.0000 0.80232  0.09381  0.09002  Biso   1.000  C
  C1079    1.0000 0.80232  0.90619  0.90998  Biso   1.000  C
  C1080    1.0000 0.19768  0.09381  0.90998  Biso   1.000  C
  C1081    1.0000 0.69768  0.40619  0.09002  Biso   1.000  C
  C1082    1.0000 0.30232  0.59381  0.09002  Biso   1.000  C
  C1083    1.0000 0.30232  0.40619  0.90998  Biso   1.000  C
  C1084    1.0000 0.69768  0.59381  0.90998  Biso   1.000  C
  C1085    1.0000 0.69768  0.90619  0.59002  Biso   1.000  C
  C1086    1.0000 0.30232  0.09381  0.59002  Biso   1.000  C
  C1087    1.0000 0.30232  0.90619  0.40998  Biso   1.000  C
  C1088    1.0000 0.69768  0.09381  0.40998  Biso   1.000  C
  C1089    1.0000 0.77704  0.60528  0.39145  Biso   1.000  C
  C1090    1.0000 0.22296  0.39472  0.39145  Biso   1.000  C
  C1091    1.0000 0.22296  0.60528  0.60855  Biso   1.000  C
  C1092    1.0000 0.77704  0.39472  0.60855  Biso   1.000  C
  C1093    1.0000 0.77704  0.10528  0.89145  Biso   1.000  C
  C1094    1.0000 0.22296  0.89472  0.89145  Biso   1.000  C
  C1095    1.0000 0.22296  0.10528  0.10855  Biso   1.000  C
  C1096    1.0000 0.77704  0.89472  0.10855  Biso   1.000  C
  C1097    1.0000 0.27704  0.60528  0.89145  Biso   1.000  C
  C1098    1.0000 0.72296  0.39472  0.89145  Biso   1.000  C
  C1099    1.0000 0.72296  0.60528  0.10855  Biso   1.000  C
  C1100    1.0000 0.27704  0.39472  0.10855  Biso   1.000  C
  C1101    1.0000 0.27704  0.10528  0.39145  Biso   1.000  C
  C1102    1.0000 0.72296  0.89472  0.39145  Biso   1.000  C
  C1103    1.0000 0.72296  0.10528  0.60855  Biso   1.000  C
  C1104    1.0000 0.27704  0.89472  0.60855  Biso   1.000  C
  C1105    1.0000 0.22296  0.39472  0.60855  Biso   1.000  C
  C1106    1.0000 0.77704  0.60528  0.60855  Biso   1.000  C
  C1107    1.0000 0.77704  0.39472  0.39145  Biso   1.000  C
  C1108    1.0000 0.22296  0.60528  0.39145  Biso   1.000  C
  C1109    1.0000 0.22296  0.89472  0.10855  Biso   1.000  C
  C1110    1.0000 0.77704  0.10528  0.10855  Biso   1.000  C
  C1111    1.0000 0.77704  0.89472  0.89145  Biso   1.000  C
  C1112    1.0000 0.22296  0.10528  0.89145  Biso   1.000  C
  C1113    1.0000 0.72296  0.39472  0.10855  Biso   1.000  C
  C1114    1.0000 0.27704  0.60528  0.10855  Biso   1.000  C
  C1115    1.0000 0.27704  0.39472  0.89145  Biso   1.000  C
  C1116    1.0000 0.72296  0.60528  0.89145  Biso   1.000  C
  C1117    1.0000 0.72296  0.89472  0.60855  Biso   1.000  C
  C1118    1.0000 0.27704  0.10528  0.60855  Biso   1.000  C
  C1119    1.0000 0.27704  0.89472  0.39145  Biso   1.000  C
  C1120    1.0000 0.72296  0.10528  0.39145  Biso   1.000  C
  H577     1.0000 0.76970  0.62150  0.40080  Biso   1.000  H
  H578     1.0000 0.23030  0.37850  0.40080  Biso   1.000  H
  H579     1.0000 0.23030  0.62150  0.59920  Biso   1.000  H
  H580     1.0000 0.76970  0.37850  0.59920  Biso   1.000  H
  H581     1.0000 0.76970  0.12150  0.90080  Biso   1.000  H
  H582     1.0000 0.23030  0.87850  0.90080  Biso   1.000  H
  H583     1.0000 0.23030  0.12150  0.09920  Biso   1.000  H
  H584     1.0000 0.76970  0.87850  0.09920  Biso   1.000  H
  H585     1.0000 0.26970  0.62150  0.90080  Biso   1.000  H
  H586     1.0000 0.73030  0.37850  0.90080  Biso   1.000  H
  H587     1.0000 0.73030  0.62150  0.09920  Biso   1.000  H
  H588     1.0000 0.26970  0.37850  0.09920  Biso   1.000  H
  H589     1.0000 0.26970  0.12150  0.40080  Biso   1.000  H
  H590     1.0000 0.73030  0.87850  0.40080  Biso   1.000  H
  H591     1.0000 0.73030  0.12150  0.59920  Biso   1.000  H
  H592     1.0000 0.26970  0.87850  0.59920  Biso   1.000  H
  H593     1.0000 0.23030  0.37850  0.59920  Biso   1.000  H
  H594     1.0000 0.76970  0.62150  0.59920  Biso   1.000  H
  H595     1.0000 0.76970  0.37850  0.40080  Biso   1.000  H
  H596     1.0000 0.23030  0.62150  0.40080  Biso   1.000  H
  H597     1.0000 0.23030  0.87850  0.09920  Biso   1.000  H
  H598     1.0000 0.76970  0.12150  0.09920  Biso   1.000  H
  H599     1.0000 0.76970  0.87850  0.90080  Biso   1.000  H
  H600     1.0000 0.23030  0.12150  0.90080  Biso   1.000  H
  H601     1.0000 0.73030  0.37850  0.09920  Biso   1.000  H
  H602     1.0000 0.26970  0.62150  0.09920  Biso   1.000  H
  H603     1.0000 0.26970  0.37850  0.90080  Biso   1.000  H
  H604     1.0000 0.73030  0.62150  0.90080  Biso   1.000  H
  H605     1.0000 0.73030  0.87850  0.59920  Biso   1.000  H
  H606     1.0000 0.26970  0.12150  0.59920  Biso   1.000  H
  H607     1.0000 0.26970  0.87850  0.40080  Biso   1.000  H
  H608     1.0000 0.73030  0.12150  0.40080  Biso   1.000  H
  C1121    1.0000 0.81289  0.53533  0.34469  Biso   1.000  C
  C1122    1.0000 0.18711  0.46467  0.34469  Biso   1.000  C
  C1123    1.0000 0.18711  0.53533  0.65531  Biso   1.000  C
  C1124    1.0000 0.81289  0.46467  0.65531  Biso   1.000  C
  C1125    1.0000 0.81289  0.03533  0.84469  Biso   1.000  C
  C1126    1.0000 0.18711  0.96467  0.84469  Biso   1.000  C
  C1127    1.0000 0.18711  0.03533  0.15531  Biso   1.000  C
  C1128    1.0000 0.81289  0.96467  0.15531  Biso   1.000  C
  C1129    1.0000 0.31289  0.53533  0.84469  Biso   1.000  C
  C1130    1.0000 0.68711  0.46467  0.84469  Biso   1.000  C
  C1131    1.0000 0.68711  0.53533  0.15531  Biso   1.000  C
  C1132    1.0000 0.31289  0.46467  0.15531  Biso   1.000  C
  C1133    1.0000 0.31289  0.03533  0.34469  Biso   1.000  C
  C1134    1.0000 0.68711  0.96467  0.34469  Biso   1.000  C
  C1135    1.0000 0.68711  0.03533  0.65531  Biso   1.000  C
  C1136    1.0000 0.31289  0.96467  0.65531  Biso   1.000  C
  C1137    1.0000 0.18711  0.46467  0.65531  Biso   1.000  C
  C1138    1.0000 0.81289  0.53533  0.65531  Biso   1.000  C
  C1139    1.0000 0.81289  0.46467  0.34469  Biso   1.000  C
  C1140    1.0000 0.18711  0.53533  0.34469  Biso   1.000  C
  C1141    1.0000 0.18711  0.96467  0.15531  Biso   1.000  C
  C1142    1.0000 0.81289  0.03533  0.15531  Biso   1.000  C
  C1143    1.0000 0.81289  0.96467  0.84469  Biso   1.000  C
  C1144    1.0000 0.18711  0.03533  0.84469  Biso   1.000  C
  C1145    1.0000 0.68711  0.46467  0.15531  Biso   1.000  C
  C1146    1.0000 0.31289  0.53533  0.15531  Biso   1.000  C
  C1147    1.0000 0.31289  0.46467  0.84469  Biso   1.000  C
  C1148    1.0000 0.68711  0.53533  0.84469  Biso   1.000  C
  C1149    1.0000 0.68711  0.96467  0.65531  Biso   1.000  C
  C1150    1.0000 0.31289  0.03533  0.65531  Biso   1.000  C
  C1151    1.0000 0.31289  0.96467  0.34469  Biso   1.000  C
  C1152    1.0000 0.68711  0.03533  0.34469  Biso   1.000  C
  C1153    1.0000 0.81943  0.60676  0.44402  Biso   1.000  C
  C1154    1.0000 0.18057  0.39324  0.44402  Biso   1.000  C
  C1155    1.0000 0.18057  0.60676  0.55598  Biso   1.000  C
  C1156    1.0000 0.81943  0.39324  0.55598  Biso   1.000  C
  C1157    1.0000 0.81943  0.10676  0.94402  Biso   1.000  C
  C1158    1.0000 0.18057  0.89324  0.94402  Biso   1.000  C
  C1159    1.0000 0.18057  0.10676  0.05598  Biso   1.000  C
  C1160    1.0000 0.81943  0.89324  0.05598  Biso   1.000  C
  C1161    1.0000 0.31943  0.60676  0.94402  Biso   1.000  C
  C1162    1.0000 0.68057  0.39324  0.94402  Biso   1.000  C
  C1163    1.0000 0.68057  0.60676  0.05598  Biso   1.000  C
  C1164    1.0000 0.31943  0.39324  0.05598  Biso   1.000  C
  C1165    1.0000 0.31943  0.10676  0.44402  Biso   1.000  C
  C1166    1.0000 0.68057  0.89324  0.44402  Biso   1.000  C
  C1167    1.0000 0.68057  0.10676  0.55598  Biso   1.000  C
  C1168    1.0000 0.31943  0.89324  0.55598  Biso   1.000  C
  C1169    1.0000 0.18057  0.39324  0.55598  Biso   1.000  C
  C1170    1.0000 0.81943  0.60676  0.55598  Biso   1.000  C
  C1171    1.0000 0.81943  0.39324  0.44402  Biso   1.000  C
  C1172    1.0000 0.18057  0.60676  0.44402  Biso   1.000  C
  C1173    1.0000 0.18057  0.89324  0.05598  Biso   1.000  C
  C1174    1.0000 0.81943  0.10676  0.05598  Biso   1.000  C
  C1175    1.0000 0.81943  0.89324  0.94402  Biso   1.000  C
  C1176    1.0000 0.18057  0.10676  0.94402  Biso   1.000  C
  C1177    1.0000 0.68057  0.39324  0.05598  Biso   1.000  C
  C1178    1.0000 0.31943  0.60676  0.05598  Biso   1.000  C
  C1179    1.0000 0.31943  0.39324  0.94402  Biso   1.000  C
  C1180    1.0000 0.68057  0.60676  0.94402  Biso   1.000  C
  C1181    1.0000 0.68057  0.89324  0.55598  Biso   1.000  C
  C1182    1.0000 0.31943  0.10676  0.55598  Biso   1.000  C
  C1183    1.0000 0.31943  0.89324  0.44402  Biso   1.000  C
  C1184    1.0000 0.68057  0.10676  0.44402  Biso   1.000  C
  O481     1.0000 0.70397  0.82037  0.50000  Biso   1.000  O
  O482     1.0000 0.29603  0.17963  0.50000  Biso   1.000  O
  O483     1.0000 0.29603  0.82037  0.50000  Biso   1.000  O
  O484     1.0000 0.70397  0.17963  0.50000  Biso   1.000  O
  O485     1.0000 0.70397  0.32037  0.00000  Biso   1.000  O
  O486     1.0000 0.29603  0.67963  0.00000  Biso   1.000  O
  O487     1.0000 0.29603  0.32037  0.00000  Biso   1.000  O
  O488     1.0000 0.70397  0.67963  0.00000  Biso   1.000  O
  O489     1.0000 0.20397  0.82037  0.00000  Biso   1.000  O
  O490     1.0000 0.79603  0.17963  0.00000  Biso   1.000  O
  O491     1.0000 0.79603  0.82037  0.00000  Biso   1.000  O
  O492     1.0000 0.20397  0.17963  0.00000  Biso   1.000  O
  O493     1.0000 0.20397  0.32037  0.50000  Biso   1.000  O
  O494     1.0000 0.79603  0.67963  0.50000  Biso   1.000  O
  O495     1.0000 0.79603  0.32037  0.50000  Biso   1.000  O
  O496     1.0000 0.20397  0.67963  0.50000  Biso   1.000  O
  O497     1.0000 0.59539  0.91911  0.50000  Biso   1.000  O
  O498     1.0000 0.40461  0.08089  0.50000  Biso   1.000  O
  O499     1.0000 0.40461  0.91911  0.50000  Biso   1.000  O
  O500     1.0000 0.59539  0.08089  0.50000  Biso   1.000  O
  O501     1.0000 0.59539  0.41911  0.00000  Biso   1.000  O
  O502     1.0000 0.40461  0.58089  0.00000  Biso   1.000  O
  O503     1.0000 0.40461  0.41911  0.00000  Biso   1.000  O
  O504     1.0000 0.59539  0.58089  0.00000  Biso   1.000  O
  O505     1.0000 0.09539  0.91911  0.00000  Biso   1.000  O
  O506     1.0000 0.90461  0.08089  0.00000  Biso   1.000  O
  O507     1.0000 0.90461  0.91911  0.00000  Biso   1.000  O
  O508     1.0000 0.09539  0.08089  0.00000  Biso   1.000  O
  O509     1.0000 0.09539  0.41911  0.50000  Biso   1.000  O
  O510     1.0000 0.90461  0.58089  0.50000  Biso   1.000  O
  O511     1.0000 0.90461  0.41911  0.50000  Biso   1.000  O
  O512     1.0000 0.09539  0.58089  0.50000  Biso   1.000  O
  O513     1.0000 0.50000  0.92475  0.36920  Biso   1.000  O
  O514     1.0000 0.50000  0.07525  0.36920  Biso   1.000  O
  O515     1.0000 0.50000  0.92475  0.63080  Biso   1.000  O
  O516     1.0000 0.50000  0.07525  0.63080  Biso   1.000  O
  O517     1.0000 0.50000  0.42475  0.86920  Biso   1.000  O
  O518     1.0000 0.50000  0.57525  0.86920  Biso   1.000  O
  O519     1.0000 0.50000  0.42475  0.13080  Biso   1.000  O
  O520     1.0000 0.50000  0.57525  0.13080  Biso   1.000  O
  O521     1.0000 0.00000  0.92475  0.86920  Biso   1.000  O
  O522     1.0000 0.00000  0.07525  0.86920  Biso   1.000  O
  O523     1.0000 0.00000  0.92475  0.13080  Biso   1.000  O
  O524     1.0000 0.00000  0.07525  0.13080  Biso   1.000  O
  O525     1.0000 0.00000  0.42475  0.36920  Biso   1.000  O
  O526     1.0000 0.00000  0.57525  0.36920  Biso   1.000  O
  O527     1.0000 0.00000  0.42475  0.63080  Biso   1.000  O
  O528     1.0000 0.00000  0.57525  0.63080  Biso   1.000  O
  O529     1.0000 0.50000  0.83388  0.21260  Biso   1.000  O
  O530     1.0000 0.50000  0.16612  0.21260  Biso   1.000  O
  O531     1.0000 0.50000  0.83388  0.78740  Biso   1.000  O
  O532     1.0000 0.50000  0.16612  0.78740  Biso   1.000  O
  O533     1.0000 0.50000  0.33388  0.71260  Biso   1.000  O
  O534     1.0000 0.50000  0.66612  0.71260  Biso   1.000  O
  O535     1.0000 0.50000  0.33388  0.28740  Biso   1.000  O
  O536     1.0000 0.50000  0.66612  0.28740  Biso   1.000  O
  O537     1.0000 0.00000  0.83388  0.71260  Biso   1.000  O
  O538     1.0000 0.00000  0.16612  0.71260  Biso   1.000  O
  O539     1.0000 0.00000  0.83388  0.28740  Biso   1.000  O
  O540     1.0000 0.00000  0.16612  0.28740  Biso   1.000  O
  O541     1.0000 0.00000  0.33388  0.21260  Biso   1.000  O
  O542     1.0000 0.00000  0.66612  0.21260  Biso   1.000  O
  O543     1.0000 0.00000  0.33388  0.78740  Biso   1.000  O
  O544     1.0000 0.00000  0.66612  0.78740  Biso   1.000  O
  O545     1.0000 0.77994  0.50000  0.23170  Biso   1.000  O
  O546     1.0000 0.22006  0.50000  0.23170  Biso   1.000  O
  O547     1.0000 0.22006  0.50000  0.76830  Biso   1.000  O
  O548     1.0000 0.77994  0.50000  0.76830  Biso   1.000  O
  O549     1.0000 0.77994  0.00000  0.73170  Biso   1.000  O
  O550     1.0000 0.22006  0.00000  0.73170  Biso   1.000  O
  O551     1.0000 0.22006  0.00000  0.26830  Biso   1.000  O
  O552     1.0000 0.77994  0.00000  0.26830  Biso   1.000  O
  O553     1.0000 0.27994  0.50000  0.73170  Biso   1.000  O
  O554     1.0000 0.72006  0.50000  0.73170  Biso   1.000  O
  O555     1.0000 0.72006  0.50000  0.26830  Biso   1.000  O
  O556     1.0000 0.27994  0.50000  0.26830  Biso   1.000  O
  O557     1.0000 0.27994  0.00000  0.23170  Biso   1.000  O
  O558     1.0000 0.72006  0.00000  0.23170  Biso   1.000  O
  O559     1.0000 0.72006  0.00000  0.76830  Biso   1.000  O
  O560     1.0000 0.27994  0.00000  0.76830  Biso   1.000  O
  O561     1.0000 0.90080  0.50000  0.37720  Biso   1.000  O
  O562     1.0000 0.09920  0.50000  0.37720  Biso   1.000  O
  O563     1.0000 0.09920  0.50000  0.62280  Biso   1.000  O
  O564     1.0000 0.90080  0.50000  0.62280  Biso   1.000  O
  O565     1.0000 0.90080  0.00000  0.87720  Biso   1.000  O
  O566     1.0000 0.09920  0.00000  0.87720  Biso   1.000  O
  O567     1.0000 0.09920  0.00000  0.12280  Biso   1.000  O
  O568     1.0000 0.90080  0.00000  0.12280  Biso   1.000  O
  O569     1.0000 0.40080  0.50000  0.87720  Biso   1.000  O
  O570     1.0000 0.59920  0.50000  0.87720  Biso   1.000  O
  O571     1.0000 0.59920  0.50000  0.12280  Biso   1.000  O
  O572     1.0000 0.40080  0.50000  0.12280  Biso   1.000  O
  O573     1.0000 0.40080  0.00000  0.37720  Biso   1.000  O
  O574     1.0000 0.59920  0.00000  0.37720  Biso   1.000  O
  O575     1.0000 0.59920  0.00000  0.62280  Biso   1.000  O
  O576     1.0000 0.40080  0.00000  0.62280  Biso   1.000  O
  O577     1.0000 0.57600  0.88570  0.10130  Biso   1.000  O
  O578     1.0000 0.42400  0.11430  0.10130  Biso   1.000  O
  O579     1.0000 0.42400  0.88570  0.89870  Biso   1.000  O
  O580     1.0000 0.57600  0.11430  0.89870  Biso   1.000  O
  O581     1.0000 0.57600  0.38570  0.60130  Biso   1.000  O
  O582     1.0000 0.42400  0.61430  0.60130  Biso   1.000  O
  O583     1.0000 0.42400  0.38570  0.39870  Biso   1.000  O
  O584     1.0000 0.57600  0.61430  0.39870  Biso   1.000  O
  O585     1.0000 0.07600  0.88570  0.60130  Biso   1.000  O
  O586     1.0000 0.92400  0.11430  0.60130  Biso   1.000  O
  O587     1.0000 0.92400  0.88570  0.39870  Biso   1.000  O
  O588     1.0000 0.07600  0.11430  0.39870  Biso   1.000  O
  O589     1.0000 0.07600  0.38570  0.10130  Biso   1.000  O
  O590     1.0000 0.92400  0.61430  0.10130  Biso   1.000  O
  O591     1.0000 0.92400  0.38570  0.89870  Biso   1.000  O
  O592     1.0000 0.07600  0.61430  0.89870  Biso   1.000  O
  O593     1.0000 0.42400  0.11430  0.89870  Biso   1.000  O
  O594     1.0000 0.57600  0.88570  0.89870  Biso   1.000  O
  O595     1.0000 0.57600  0.11430  0.10130  Biso   1.000  O
  O596     1.0000 0.42400  0.88570  0.10130  Biso   1.000  O
  O597     1.0000 0.42400  0.61430  0.39870  Biso   1.000  O
  O598     1.0000 0.57600  0.38570  0.39870  Biso   1.000  O
  O599     1.0000 0.57600  0.61430  0.60130  Biso   1.000  O
  O600     1.0000 0.42400  0.38570  0.60130  Biso   1.000  O
  O601     1.0000 0.92400  0.11430  0.39870  Biso   1.000  O
  O602     1.0000 0.07600  0.88570  0.39870  Biso   1.000  O
  O603     1.0000 0.07600  0.11430  0.60130  Biso   1.000  O
  O604     1.0000 0.92400  0.88570  0.60130  Biso   1.000  O
  O605     1.0000 0.92400  0.61430  0.89870  Biso   1.000  O
  O606     1.0000 0.07600  0.38570  0.89870  Biso   1.000  O
  O607     1.0000 0.07600  0.61430  0.10130  Biso   1.000  O
  O608     1.0000 0.92400  0.38570  0.10130  Biso   1.000  O
  C1185    1.0000 0.59110  0.89350  0.11120  Biso   1.000  C
  C1186    1.0000 0.40890  0.10650  0.11120  Biso   1.000  C
  C1187    1.0000 0.40890  0.89350  0.88880  Biso   1.000  C
  C1188    1.0000 0.59110  0.10650  0.88880  Biso   1.000  C
  C1189    1.0000 0.59110  0.39350  0.61120  Biso   1.000  C
  C1190    1.0000 0.40890  0.60650  0.61120  Biso   1.000  C
  C1191    1.0000 0.40890  0.39350  0.38880  Biso   1.000  C
  C1192    1.0000 0.59110  0.60650  0.38880  Biso   1.000  C
  C1193    1.0000 0.09110  0.89350  0.61120  Biso   1.000  C
  C1194    1.0000 0.90890  0.10650  0.61120  Biso   1.000  C
  C1195    1.0000 0.90890  0.89350  0.38880  Biso   1.000  C
  C1196    1.0000 0.09110  0.10650  0.38880  Biso   1.000  C
  C1197    1.0000 0.09110  0.39350  0.11120  Biso   1.000  C
  C1198    1.0000 0.90890  0.60650  0.11120  Biso   1.000  C
  C1199    1.0000 0.90890  0.39350  0.88880  Biso   1.000  C
  C1200    1.0000 0.09110  0.60650  0.88880  Biso   1.000  C
  C1201    1.0000 0.40890  0.10650  0.88880  Biso   1.000  C
  C1202    1.0000 0.59110  0.89350  0.88880  Biso   1.000  C
  C1203    1.0000 0.59110  0.10650  0.11120  Biso   1.000  C
  C1204    1.0000 0.40890  0.89350  0.11120  Biso   1.000  C
  C1205    1.0000 0.40890  0.60650  0.38880  Biso   1.000  C
  C1206    1.0000 0.59110  0.39350  0.38880  Biso   1.000  C
  C1207    1.0000 0.59110  0.60650  0.61120  Biso   1.000  C
  C1208    1.0000 0.40890  0.39350  0.61120  Biso   1.000  C
  C1209    1.0000 0.90890  0.10650  0.38880  Biso   1.000  C
  C1210    1.0000 0.09110  0.89350  0.38880  Biso   1.000  C
  C1211    1.0000 0.09110  0.10650  0.61120  Biso   1.000  C
  C1212    1.0000 0.90890  0.89350  0.61120  Biso   1.000  C
  C1213    1.0000 0.90890  0.60650  0.88880  Biso   1.000  C
  C1214    1.0000 0.09110  0.39350  0.88880  Biso   1.000  C
  C1215    1.0000 0.09110  0.60650  0.11120  Biso   1.000  C
  C1216    1.0000 0.90890  0.39350  0.11120  Biso   1.000  C
  C1217    1.0000 0.71100  0.86960  0.04610  Biso   1.000  C
  C1218    1.0000 0.28900  0.13040  0.04610  Biso   1.000  C
  C1219    1.0000 0.28900  0.86960  0.95390  Biso   1.000  C
  C1220    1.0000 0.71100  0.13040  0.95390  Biso   1.000  C
  C1221    1.0000 0.71100  0.36960  0.54610  Biso   1.000  C
  C1222    1.0000 0.28900  0.63040  0.54610  Biso   1.000  C
  C1223    1.0000 0.28900  0.36960  0.45390  Biso   1.000  C
  C1224    1.0000 0.71100  0.63040  0.45390  Biso   1.000  C
  C1225    1.0000 0.21100  0.86960  0.54610  Biso   1.000  C
  C1226    1.0000 0.78900  0.13040  0.54610  Biso   1.000  C
  C1227    1.0000 0.78900  0.86960  0.45390  Biso   1.000  C
  C1228    1.0000 0.21100  0.13040  0.45390  Biso   1.000  C
  C1229    1.0000 0.21100  0.36960  0.04610  Biso   1.000  C
  C1230    1.0000 0.78900  0.63040  0.04610  Biso   1.000  C
  C1231    1.0000 0.78900  0.36960  0.95390  Biso   1.000  C
  C1232    1.0000 0.21100  0.63040  0.95390  Biso   1.000  C
  C1233    1.0000 0.28900  0.13040  0.95390  Biso   1.000  C
  C1234    1.0000 0.71100  0.86960  0.95390  Biso   1.000  C
  C1235    1.0000 0.71100  0.13040  0.04610  Biso   1.000  C
  C1236    1.0000 0.28900  0.86960  0.04610  Biso   1.000  C
  C1237    1.0000 0.28900  0.63040  0.45390  Biso   1.000  C
  C1238    1.0000 0.71100  0.36960  0.45390  Biso   1.000  C
  C1239    1.0000 0.71100  0.63040  0.54610  Biso   1.000  C
  C1240    1.0000 0.28900  0.36960  0.54610  Biso   1.000  C
  C1241    1.0000 0.78900  0.13040  0.45390  Biso   1.000  C
  C1242    1.0000 0.21100  0.86960  0.45390  Biso   1.000  C
  C1243    1.0000 0.21100  0.13040  0.54610  Biso   1.000  C
  C1244    1.0000 0.78900  0.86960  0.54610  Biso   1.000  C
  C1245    1.0000 0.78900  0.63040  0.95390  Biso   1.000  C
  C1246    1.0000 0.21100  0.36960  0.95390  Biso   1.000  C
  C1247    1.0000 0.21100  0.63040  0.04610  Biso   1.000  C
  C1248    1.0000 0.78900  0.36960  0.04610  Biso   1.000  C
  C1249    1.0000 0.68560  0.89500  0.06900  Biso   1.000  C
  C1250    1.0000 0.31440  0.10500  0.06900  Biso   1.000  C
  C1251    1.0000 0.31440  0.89500  0.93100  Biso   1.000  C
  C1252    1.0000 0.68560  0.10500  0.93100  Biso   1.000  C
  C1253    1.0000 0.68560  0.39500  0.56900  Biso   1.000  C
  C1254    1.0000 0.31440  0.60500  0.56900  Biso   1.000  C
  C1255    1.0000 0.31440  0.39500  0.43100  Biso   1.000  C
  C1256    1.0000 0.68560  0.60500  0.43100  Biso   1.000  C
  C1257    1.0000 0.18560  0.89500  0.56900  Biso   1.000  C
  C1258    1.0000 0.81440  0.10500  0.56900  Biso   1.000  C
  C1259    1.0000 0.81440  0.89500  0.43100  Biso   1.000  C
  C1260    1.0000 0.18560  0.10500  0.43100  Biso   1.000  C
  C1261    1.0000 0.18560  0.39500  0.06900  Biso   1.000  C
  C1262    1.0000 0.81440  0.60500  0.06900  Biso   1.000  C
  C1263    1.0000 0.81440  0.39500  0.93100  Biso   1.000  C
  C1264    1.0000 0.18560  0.60500  0.93100  Biso   1.000  C
  C1265    1.0000 0.31440  0.10500  0.93100  Biso   1.000  C
  C1266    1.0000 0.68560  0.89500  0.93100  Biso   1.000  C
  C1267    1.0000 0.68560  0.10500  0.06900  Biso   1.000  C
  C1268    1.0000 0.31440  0.89500  0.06900  Biso   1.000  C
  C1269    1.0000 0.31440  0.60500  0.43100  Biso   1.000  C
  C1270    1.0000 0.68560  0.39500  0.43100  Biso   1.000  C
  C1271    1.0000 0.68560  0.60500  0.56900  Biso   1.000  C
  C1272    1.0000 0.31440  0.39500  0.56900  Biso   1.000  C
  C1273    1.0000 0.81440  0.10500  0.43100  Biso   1.000  C
  C1274    1.0000 0.18560  0.89500  0.43100  Biso   1.000  C
  C1275    1.0000 0.18560  0.10500  0.56900  Biso   1.000  C
  C1276    1.0000 0.81440  0.89500  0.56900  Biso   1.000  C
  C1277    1.0000 0.81440  0.60500  0.93100  Biso   1.000  C
  C1278    1.0000 0.18560  0.39500  0.93100  Biso   1.000  C
  C1279    1.0000 0.18560  0.60500  0.06900  Biso   1.000  C
  C1280    1.0000 0.81440  0.39500  0.06900  Biso   1.000  C
  C1281    1.0000 0.62650  0.89300  0.07230  Biso   1.000  C
  C1282    1.0000 0.37350  0.10700  0.07230  Biso   1.000  C
  C1283    1.0000 0.37350  0.89300  0.92770  Biso   1.000  C
  C1284    1.0000 0.62650  0.10700  0.92770  Biso   1.000  C
  C1285    1.0000 0.62650  0.39300  0.57230  Biso   1.000  C
  C1286    1.0000 0.37350  0.60700  0.57230  Biso   1.000  C
  C1287    1.0000 0.37350  0.39300  0.42770  Biso   1.000  C
  C1288    1.0000 0.62650  0.60700  0.42770  Biso   1.000  C
  C1289    1.0000 0.12650  0.89300  0.57230  Biso   1.000  C
  C1290    1.0000 0.87350  0.10700  0.57230  Biso   1.000  C
  C1291    1.0000 0.87350  0.89300  0.42770  Biso   1.000  C
  C1292    1.0000 0.12650  0.10700  0.42770  Biso   1.000  C
  C1293    1.0000 0.12650  0.39300  0.07230  Biso   1.000  C
  C1294    1.0000 0.87350  0.60700  0.07230  Biso   1.000  C
  C1295    1.0000 0.87350  0.39300  0.92770  Biso   1.000  C
  C1296    1.0000 0.12650  0.60700  0.92770  Biso   1.000  C
  C1297    1.0000 0.37350  0.10700  0.92770  Biso   1.000  C
  C1298    1.0000 0.62650  0.89300  0.92770  Biso   1.000  C
  C1299    1.0000 0.62650  0.10700  0.07230  Biso   1.000  C
  C1300    1.0000 0.37350  0.89300  0.07230  Biso   1.000  C
  C1301    1.0000 0.37350  0.60700  0.42770  Biso   1.000  C
  C1302    1.0000 0.62650  0.39300  0.42770  Biso   1.000  C
  C1303    1.0000 0.62650  0.60700  0.57230  Biso   1.000  C
  C1304    1.0000 0.37350  0.39300  0.57230  Biso   1.000  C
  C1305    1.0000 0.87350  0.10700  0.42770  Biso   1.000  C
  C1306    1.0000 0.12650  0.89300  0.42770  Biso   1.000  C
  C1307    1.0000 0.12650  0.10700  0.57230  Biso   1.000  C
  C1308    1.0000 0.87350  0.89300  0.57230  Biso   1.000  C
  C1309    1.0000 0.87350  0.60700  0.92770  Biso   1.000  C
  C1310    1.0000 0.12650  0.39300  0.92770  Biso   1.000  C
  C1311    1.0000 0.12650  0.60700  0.07230  Biso   1.000  C
  C1312    1.0000 0.87350  0.39300  0.07230  Biso   1.000  C
  C1313    1.0000 0.65510  0.89390  0.08000  Biso   1.000  C
  C1314    1.0000 0.34490  0.10610  0.08000  Biso   1.000  C
  C1315    1.0000 0.34490  0.89390  0.92000  Biso   1.000  C
  C1316    1.0000 0.65510  0.10610  0.92000  Biso   1.000  C
  C1317    1.0000 0.65510  0.39390  0.58000  Biso   1.000  C
  C1318    1.0000 0.34490  0.60610  0.58000  Biso   1.000  C
  C1319    1.0000 0.34490  0.39390  0.42000  Biso   1.000  C
  C1320    1.0000 0.65510  0.60610  0.42000  Biso   1.000  C
  C1321    1.0000 0.15510  0.89390  0.58000  Biso   1.000  C
  C1322    1.0000 0.84490  0.10610  0.58000  Biso   1.000  C
  C1323    1.0000 0.84490  0.89390  0.42000  Biso   1.000  C
  C1324    1.0000 0.15510  0.10610  0.42000  Biso   1.000  C
  C1325    1.0000 0.15510  0.39390  0.08000  Biso   1.000  C
  C1326    1.0000 0.84490  0.60610  0.08000  Biso   1.000  C
  C1327    1.0000 0.84490  0.39390  0.92000  Biso   1.000  C
  C1328    1.0000 0.15510  0.60610  0.92000  Biso   1.000  C
  C1329    1.0000 0.34490  0.10610  0.92000  Biso   1.000  C
  C1330    1.0000 0.65510  0.89390  0.92000  Biso   1.000  C
  C1331    1.0000 0.65510  0.10610  0.08000  Biso   1.000  C
  C1332    1.0000 0.34490  0.89390  0.08000  Biso   1.000  C
  C1333    1.0000 0.34490  0.60610  0.42000  Biso   1.000  C
  C1334    1.0000 0.65510  0.39390  0.42000  Biso   1.000  C
  C1335    1.0000 0.65510  0.60610  0.58000  Biso   1.000  C
  C1336    1.0000 0.34490  0.39390  0.58000  Biso   1.000  C
  C1337    1.0000 0.84490  0.10610  0.42000  Biso   1.000  C
  C1338    1.0000 0.15510  0.89390  0.42000  Biso   1.000  C
  C1339    1.0000 0.15510  0.10610  0.58000  Biso   1.000  C
  C1340    1.0000 0.84490  0.89390  0.58000  Biso   1.000  C
  C1341    1.0000 0.84490  0.60610  0.92000  Biso   1.000  C
  C1342    1.0000 0.15510  0.39390  0.92000  Biso   1.000  C
  C1343    1.0000 0.15510  0.60610  0.08000  Biso   1.000  C
  C1344    1.0000 0.84490  0.39390  0.08000  Biso   1.000  C
  C1345    1.0000 0.68740  0.88370  0.03530  Biso   1.000  C
  C1346    1.0000 0.31260  0.11630  0.03530  Biso   1.000  C
  C1347    1.0000 0.31260  0.88370  0.96470  Biso   1.000  C
  C1348    1.0000 0.68740  0.11630  0.96470  Biso   1.000  C
  C1349    1.0000 0.68740  0.38370  0.53530  Biso   1.000  C
  C1350    1.0000 0.31260  0.61630  0.53530  Biso   1.000  C
  C1351    1.0000 0.31260  0.38370  0.46470  Biso   1.000  C
  C1352    1.0000 0.68740  0.61630  0.46470  Biso   1.000  C
  C1353    1.0000 0.18740  0.88370  0.53530  Biso   1.000  C
  C1354    1.0000 0.81260  0.11630  0.53530  Biso   1.000  C
  C1355    1.0000 0.81260  0.88370  0.46470  Biso   1.000  C
  C1356    1.0000 0.18740  0.11630  0.46470  Biso   1.000  C
  C1357    1.0000 0.18740  0.38370  0.03530  Biso   1.000  C
  C1358    1.0000 0.81260  0.61630  0.03530  Biso   1.000  C
  C1359    1.0000 0.81260  0.38370  0.96470  Biso   1.000  C
  C1360    1.0000 0.18740  0.61630  0.96470  Biso   1.000  C
  C1361    1.0000 0.31260  0.11630  0.96470  Biso   1.000  C
  C1362    1.0000 0.68740  0.88370  0.96470  Biso   1.000  C
  C1363    1.0000 0.68740  0.11630  0.03530  Biso   1.000  C
  C1364    1.0000 0.31260  0.88370  0.03530  Biso   1.000  C
  C1365    1.0000 0.31260  0.61630  0.46470  Biso   1.000  C
  C1366    1.0000 0.68740  0.38370  0.46470  Biso   1.000  C
  C1367    1.0000 0.68740  0.61630  0.53530  Biso   1.000  C
  C1368    1.0000 0.31260  0.38370  0.53530  Biso   1.000  C
  C1369    1.0000 0.81260  0.11630  0.46470  Biso   1.000  C
  C1370    1.0000 0.18740  0.88370  0.46470  Biso   1.000  C
  C1371    1.0000 0.18740  0.11630  0.53530  Biso   1.000  C
  C1372    1.0000 0.81260  0.88370  0.53530  Biso   1.000  C
  C1373    1.0000 0.81260  0.61630  0.96470  Biso   1.000  C
  C1374    1.0000 0.18740  0.38370  0.96470  Biso   1.000  C
  C1375    1.0000 0.18740  0.61630  0.03530  Biso   1.000  C
  C1376    1.0000 0.81260  0.38370  0.03530  Biso   1.000  C
  C1377    1.0000 0.72630  0.87160  0.01750  Biso   1.000  C
  C1378    1.0000 0.27370  0.12840  0.01750  Biso   1.000  C
  C1379    1.0000 0.27370  0.87160  0.98250  Biso   1.000  C
  C1380    1.0000 0.72630  0.12840  0.98250  Biso   1.000  C
  C1381    1.0000 0.72630  0.37160  0.51750  Biso   1.000  C
  C1382    1.0000 0.27370  0.62840  0.51750  Biso   1.000  C
  C1383    1.0000 0.27370  0.37160  0.48250  Biso   1.000  C
  C1384    1.0000 0.72630  0.62840  0.48250  Biso   1.000  C
  C1385    1.0000 0.22630  0.87160  0.51750  Biso   1.000  C
  C1386    1.0000 0.77370  0.12840  0.51750  Biso   1.000  C
  C1387    1.0000 0.77370  0.87160  0.48250  Biso   1.000  C
  C1388    1.0000 0.22630  0.12840  0.48250  Biso   1.000  C
  C1389    1.0000 0.22630  0.37160  0.01750  Biso   1.000  C
  C1390    1.0000 0.77370  0.62840  0.01750  Biso   1.000  C
  C1391    1.0000 0.77370  0.37160  0.98250  Biso   1.000  C
  C1392    1.0000 0.22630  0.62840  0.98250  Biso   1.000  C
  C1393    1.0000 0.27370  0.12840  0.98250  Biso   1.000  C
  C1394    1.0000 0.72630  0.87160  0.98250  Biso   1.000  C
  C1395    1.0000 0.72630  0.12840  0.01750  Biso   1.000  C
  C1396    1.0000 0.27370  0.87160  0.01750  Biso   1.000  C
  C1397    1.0000 0.27370  0.62840  0.48250  Biso   1.000  C
  C1398    1.0000 0.72630  0.37160  0.48250  Biso   1.000  C
  C1399    1.0000 0.72630  0.62840  0.51750  Biso   1.000  C
  C1400    1.0000 0.27370  0.37160  0.51750  Biso   1.000  C
  C1401    1.0000 0.77370  0.12840  0.48250  Biso   1.000  C
  C1402    1.0000 0.22630  0.87160  0.48250  Biso   1.000  C
  C1403    1.0000 0.22630  0.12840  0.51750  Biso   1.000  C
  C1404    1.0000 0.77370  0.87160  0.51750  Biso   1.000  C
  C1405    1.0000 0.77370  0.62840  0.98250  Biso   1.000  C
  C1406    1.0000 0.22630  0.37160  0.98250  Biso   1.000  C
  C1407    1.0000 0.22630  0.62840  0.01750  Biso   1.000  C
  C1408    1.0000 0.77370  0.37160  0.01750  Biso   1.000  C
  C1409    1.0000 0.67030  0.89080  0.00000  Biso   1.000  C
  C1410    1.0000 0.32970  0.10920  0.00000  Biso   1.000  C
  C1411    1.0000 0.32970  0.89080  0.00000  Biso   1.000  C
  C1412    1.0000 0.67030  0.10920  0.00000  Biso   1.000  C
  C1413    1.0000 0.67030  0.39080  0.50000  Biso   1.000  C
  C1414    1.0000 0.32970  0.60920  0.50000  Biso   1.000  C
  C1415    1.0000 0.32970  0.39080  0.50000  Biso   1.000  C
  C1416    1.0000 0.67030  0.60920  0.50000  Biso   1.000  C
  C1417    1.0000 0.17030  0.89080  0.50000  Biso   1.000  C
  C1418    1.0000 0.82970  0.10920  0.50000  Biso   1.000  C
  C1419    1.0000 0.82970  0.89080  0.50000  Biso   1.000  C
  C1420    1.0000 0.17030  0.10920  0.50000  Biso   1.000  C
  C1421    1.0000 0.17030  0.39080  0.00000  Biso   1.000  C
  C1422    1.0000 0.82970  0.60920  0.00000  Biso   1.000  C
  C1423    1.0000 0.82970  0.39080  0.00000  Biso   1.000  C
  C1424    1.0000 0.17030  0.60920  0.00000  Biso   1.000  C
