data_image0
_cell_length_a       8.7394
_cell_length_b       27.7882
_cell_length_c       31.3773
_cell_angle_alpha    90
_cell_angle_beta     90
_cell_angle_gamma    90

_symmetry_space_group_name_H-M    "P 1"
_symmetry_int_tables_number       1

loop_
  _symmetry_equiv_pos_as_xyz
  'x, y, z'

loop_
  _atom_site_label
  _atom_site_occupancy
  _atom_site_fract_x
  _atom_site_fract_y
  _atom_site_fract_z
  _atom_site_thermal_displace_type
  _atom_site_B_iso_or_equiv
  _atom_site_type_symbol
  N1       1.0000 0.56820  0.86260  0.30180  Biso   1.000  N
  N2       1.0000 0.43180  0.13740  0.80180  Biso   1.000  N
  N3       1.0000 0.43180  0.36260  0.19820  Biso   1.000  N
  N4       1.0000 0.56820  0.63740  0.69820  Biso   1.000  N
  N5       1.0000 0.43180  0.13740  0.69820  Biso   1.000  N
  N6       1.0000 0.56820  0.86260  0.19820  Biso   1.000  N
  N7       1.0000 0.56820  0.63740  0.80180  Biso   1.000  N
  N8       1.0000 0.43180  0.36260  0.30180  Biso   1.000  N
  C1       1.0000 0.66760  0.88710  0.32600  Biso   1.000  C
  C2       1.0000 0.33240  0.11290  0.82600  Biso   1.000  C
  C3       1.0000 0.33240  0.38710  0.17400  Biso   1.000  C
  C4       1.0000 0.66760  0.61290  0.67400  Biso   1.000  C
  C5       1.0000 0.33240  0.11290  0.67400  Biso   1.000  C
  C6       1.0000 0.66760  0.88710  0.17400  Biso   1.000  C
  C7       1.0000 0.66760  0.61290  0.82600  Biso   1.000  C
  C8       1.0000 0.33240  0.38710  0.32600  Biso   1.000  C
  C9       1.0000 0.42320  0.87460  0.30790  Biso   1.000  C
  C10      1.0000 0.57680  0.12540  0.80790  Biso   1.000  C
  C11      1.0000 0.57680  0.37460  0.19210  Biso   1.000  C
  C12      1.0000 0.42320  0.62540  0.69210  Biso   1.000  C
  C13      1.0000 0.57680  0.12540  0.69210  Biso   1.000  C
  C14      1.0000 0.42320  0.87460  0.19210  Biso   1.000  C
  C15      1.0000 0.42320  0.62540  0.80790  Biso   1.000  C
  C16      1.0000 0.57680  0.37460  0.30790  Biso   1.000  C
  Cd1      1.0000 0.64990  0.80597  0.25000  Biso   1.000  Cd
  Cd2      1.0000 0.35010  0.19403  0.75000  Biso   1.000  Cd
  Cd3      1.0000 0.35010  0.30597  0.25000  Biso   1.000  Cd
  Cd4      1.0000 0.64990  0.69403  0.75000  Biso   1.000  Cd
  Cu1      1.0000 0.24290  0.04230  0.46686  Biso   1.000  Cu
  Cu2      1.0000 0.75710  0.95770  0.96686  Biso   1.000  Cu
  Cu3      1.0000 0.75710  0.54230  0.03314  Biso   1.000  Cu
  Cu4      1.0000 0.24290  0.45770  0.53314  Biso   1.000  Cu
  Cu5      1.0000 0.75710  0.95770  0.53314  Biso   1.000  Cu
  Cu6      1.0000 0.24290  0.04230  0.03314  Biso   1.000  Cu
  Cu7      1.0000 0.24290  0.45770  0.96686  Biso   1.000  Cu
  Cu8      1.0000 0.75710  0.54230  0.46686  Biso   1.000  Cu
  N9       1.0000 0.17590  0.11050  0.46650  Biso   1.000  N
  N10      1.0000 0.82410  0.88950  0.96650  Biso   1.000  N
  N11      1.0000 0.82410  0.61050  0.03350  Biso   1.000  N
  N12      1.0000 0.17590  0.38950  0.53350  Biso   1.000  N
  N13      1.0000 0.82410  0.88950  0.53350  Biso   1.000  N
  N14      1.0000 0.17590  0.11050  0.03350  Biso   1.000  N
  N15      1.0000 0.17590  0.38950  0.96650  Biso   1.000  N
  N16      1.0000 0.82410  0.61050  0.46650  Biso   1.000  N
  N17      1.0000 0.30320  0.04750  0.40630  Biso   1.000  N
  N18      1.0000 0.69680  0.95250  0.90630  Biso   1.000  N
  N19      1.0000 0.69680  0.54750  0.09370  Biso   1.000  N
  N20      1.0000 0.30320  0.45250  0.59370  Biso   1.000  N
  N21      1.0000 0.69680  0.95250  0.59370  Biso   1.000  N
  N22      1.0000 0.30320  0.04750  0.09370  Biso   1.000  N
  N23      1.0000 0.30320  0.45250  0.90630  Biso   1.000  N
  N24      1.0000 0.69680  0.54750  0.40630  Biso   1.000  N
  N25      1.0000 0.33240  0.97730  0.46950  Biso   1.000  N
  N26      1.0000 0.66760  0.02270  0.96950  Biso   1.000  N
  N27      1.0000 0.66760  0.47730  0.03050  Biso   1.000  N
  N28      1.0000 0.33240  0.52270  0.53050  Biso   1.000  N
  N29      1.0000 0.66760  0.02270  0.53050  Biso   1.000  N
  N30      1.0000 0.33240  0.97730  0.03050  Biso   1.000  N
  N31      1.0000 0.33240  0.52270  0.96950  Biso   1.000  N
  N32      1.0000 0.66760  0.47730  0.46950  Biso   1.000  N
  N33      1.0000 0.16110  0.03420  0.52510  Biso   1.000  N
  N34      1.0000 0.83890  0.96580  0.02510  Biso   1.000  N
  N35      1.0000 0.83890  0.53420  0.97490  Biso   1.000  N
  N36      1.0000 0.16110  0.46580  0.47490  Biso   1.000  N
  N37      1.0000 0.83890  0.96580  0.47490  Biso   1.000  N
  N38      1.0000 0.16110  0.03420  0.97490  Biso   1.000  N
  N39      1.0000 0.16110  0.46580  0.02510  Biso   1.000  N
  N40      1.0000 0.83890  0.53420  0.52510  Biso   1.000  N
  C17      1.0000 0.11300  0.13550  0.50000  Biso   1.000  C
  C18      1.0000 0.88700  0.86450  0.00000  Biso   1.000  C
  C19      1.0000 0.88700  0.63550  0.00000  Biso   1.000  C
  C20      1.0000 0.11300  0.36450  0.50000  Biso   1.000  C
  C21      1.0000 0.88700  0.86450  0.50000  Biso   1.000  C
  C22      1.0000 0.11300  0.13550  0.00000  Biso   1.000  C
  C23      1.0000 0.11300  0.36450  0.00000  Biso   1.000  C
  C24      1.0000 0.88700  0.63550  0.50000  Biso   1.000  C
  C25      1.0000 0.09700  0.18560  0.48950  Biso   1.000  C
  C26      1.0000 0.90300  0.81440  0.98950  Biso   1.000  C
  C27      1.0000 0.90300  0.68560  0.01050  Biso   1.000  C
  C28      1.0000 0.09700  0.31440  0.51050  Biso   1.000  C
  C29      1.0000 0.90300  0.81440  0.51050  Biso   1.000  C
  C30      1.0000 0.09700  0.18560  0.01050  Biso   1.000  C
  C31      1.0000 0.09700  0.31440  0.98950  Biso   1.000  C
  C32      1.0000 0.90300  0.68560  0.48950  Biso   1.000  C
  H1       1.0000 0.05640  0.21020  0.50730  Biso   1.000  H
  H2       1.0000 0.94360  0.78980  0.00730  Biso   1.000  H
  H3       1.0000 0.94360  0.71020  0.99270  Biso   1.000  H
  H4       1.0000 0.05640  0.28980  0.49270  Biso   1.000  H
  H5       1.0000 0.94360  0.78980  0.49270  Biso   1.000  H
  H6       1.0000 0.05640  0.21020  0.99270  Biso   1.000  H
  H7       1.0000 0.05640  0.28980  0.00730  Biso   1.000  H
  H8       1.0000 0.94360  0.71020  0.50730  Biso   1.000  H
  C33      1.0000 0.15200  0.19070  0.44910  Biso   1.000  C
  C34      1.0000 0.84800  0.80930  0.94910  Biso   1.000  C
  C35      1.0000 0.84800  0.69070  0.05090  Biso   1.000  C
  C36      1.0000 0.15200  0.30930  0.55090  Biso   1.000  C
  C37      1.0000 0.84800  0.80930  0.55090  Biso   1.000  C
  C38      1.0000 0.15200  0.19070  0.05090  Biso   1.000  C
  C39      1.0000 0.15200  0.30930  0.94910  Biso   1.000  C
  C40      1.0000 0.84800  0.69070  0.44910  Biso   1.000  C
  H9       1.0000 0.15840  0.21990  0.43330  Biso   1.000  H
  H10      1.0000 0.84160  0.78010  0.93330  Biso   1.000  H
  H11      1.0000 0.84160  0.71990  0.06670  Biso   1.000  H
  H12      1.0000 0.15840  0.28010  0.56670  Biso   1.000  H
  H13      1.0000 0.84160  0.78010  0.56670  Biso   1.000  H
  H14      1.0000 0.15840  0.21990  0.06670  Biso   1.000  H
  H15      1.0000 0.15840  0.28010  0.93330  Biso   1.000  H
  H16      1.0000 0.84160  0.71990  0.43330  Biso   1.000  H
  C41      1.0000 0.19820  0.14390  0.43480  Biso   1.000  C
  C42      1.0000 0.80180  0.85610  0.93480  Biso   1.000  C
  C43      1.0000 0.80180  0.64390  0.06520  Biso   1.000  C
  C44      1.0000 0.19820  0.35610  0.56520  Biso   1.000  C
  C45      1.0000 0.80180  0.85610  0.56520  Biso   1.000  C
  C46      1.0000 0.19820  0.14390  0.06520  Biso   1.000  C
  C47      1.0000 0.19820  0.35610  0.93480  Biso   1.000  C
  C48      1.0000 0.80180  0.64390  0.43480  Biso   1.000  C
  C49      1.0000 0.25120  0.13370  0.39390  Biso   1.000  C
  C50      1.0000 0.74880  0.86630  0.89390  Biso   1.000  C
  C51      1.0000 0.74880  0.63370  0.10610  Biso   1.000  C
  C52      1.0000 0.25120  0.36630  0.60610  Biso   1.000  C
  C53      1.0000 0.74880  0.86630  0.60610  Biso   1.000  C
  C54      1.0000 0.25120  0.13370  0.10610  Biso   1.000  C
  C55      1.0000 0.25120  0.36630  0.89390  Biso   1.000  C
  C56      1.0000 0.74880  0.63370  0.39390  Biso   1.000  C
  C57      1.0000 0.28990  0.08850  0.37970  Biso   1.000  C
  C58      1.0000 0.71010  0.91150  0.87970  Biso   1.000  C
  C59      1.0000 0.71010  0.58850  0.12030  Biso   1.000  C
  C60      1.0000 0.28990  0.41150  0.62030  Biso   1.000  C
  C61      1.0000 0.71010  0.91150  0.62030  Biso   1.000  C
  C62      1.0000 0.28990  0.08850  0.12030  Biso   1.000  C
  C63      1.0000 0.28990  0.41150  0.87970  Biso   1.000  C
  C64      1.0000 0.71010  0.58850  0.37970  Biso   1.000  C
  C65      1.0000 0.33040  0.07470  0.33640  Biso   1.000  C
  C66      1.0000 0.66960  0.92530  0.83640  Biso   1.000  C
  C67      1.0000 0.66960  0.57470  0.16360  Biso   1.000  C
  C68      1.0000 0.33040  0.42530  0.66360  Biso   1.000  C
  C69      1.0000 0.66960  0.92530  0.66360  Biso   1.000  C
  C70      1.0000 0.33040  0.07470  0.16360  Biso   1.000  C
  C71      1.0000 0.33040  0.42530  0.83640  Biso   1.000  C
  C72      1.0000 0.66960  0.57470  0.33640  Biso   1.000  C
  H17      1.0000 0.32880  0.09520  0.31210  Biso   1.000  H
  H18      1.0000 0.67120  0.90480  0.81210  Biso   1.000  H
  H19      1.0000 0.67120  0.59520  0.18790  Biso   1.000  H
  H20      1.0000 0.32880  0.40480  0.68790  Biso   1.000  H
  H21      1.0000 0.67120  0.90480  0.68790  Biso   1.000  H
  H22      1.0000 0.32880  0.09520  0.18790  Biso   1.000  H
  H23      1.0000 0.32880  0.40480  0.81210  Biso   1.000  H
  H24      1.0000 0.67120  0.59520  0.31210  Biso   1.000  H
  C73      1.0000 0.37050  0.02820  0.33680  Biso   1.000  C
  C74      1.0000 0.62950  0.97180  0.83680  Biso   1.000  C
  C75      1.0000 0.62950  0.52820  0.16320  Biso   1.000  C
  C76      1.0000 0.37050  0.47180  0.66320  Biso   1.000  C
  C77      1.0000 0.62950  0.97180  0.66320  Biso   1.000  C
  C78      1.0000 0.37050  0.02820  0.16320  Biso   1.000  C
  C79      1.0000 0.37050  0.47180  0.83680  Biso   1.000  C
  C80      1.0000 0.62950  0.52820  0.33680  Biso   1.000  C
  H25      1.0000 0.40220  0.00980  0.31290  Biso   1.000  H
  H26      1.0000 0.59780  0.99020  0.81290  Biso   1.000  H
  H27      1.0000 0.59780  0.50980  0.18710  Biso   1.000  H
  H28      1.0000 0.40220  0.49020  0.68710  Biso   1.000  H
  H29      1.0000 0.59780  0.99020  0.68710  Biso   1.000  H
  H30      1.0000 0.40220  0.00980  0.18710  Biso   1.000  H
  H31      1.0000 0.40220  0.49020  0.81290  Biso   1.000  H
  H32      1.0000 0.59780  0.50980  0.31290  Biso   1.000  H
  C81      1.0000 0.35690  0.01100  0.38010  Biso   1.000  C
  C82      1.0000 0.64310  0.98900  0.88010  Biso   1.000  C
  C83      1.0000 0.64310  0.51100  0.11990  Biso   1.000  C
  C84      1.0000 0.35690  0.48900  0.61990  Biso   1.000  C
  C85      1.0000 0.64310  0.98900  0.61990  Biso   1.000  C
  C86      1.0000 0.35690  0.01100  0.11990  Biso   1.000  C
  C87      1.0000 0.35690  0.48900  0.88010  Biso   1.000  C
  C88      1.0000 0.64310  0.51100  0.38010  Biso   1.000  C
  C89      1.0000 0.41260  0.96760  0.39530  Biso   1.000  C
  C90      1.0000 0.58740  0.03240  0.89530  Biso   1.000  C
  C91      1.0000 0.58740  0.46760  0.10470  Biso   1.000  C
  C92      1.0000 0.41260  0.53240  0.60470  Biso   1.000  C
  C93      1.0000 0.58740  0.03240  0.60470  Biso   1.000  C
  C94      1.0000 0.41260  0.96760  0.10470  Biso   1.000  C
  C95      1.0000 0.41260  0.53240  0.89530  Biso   1.000  C
  C96      1.0000 0.58740  0.46760  0.39530  Biso   1.000  C
  C97      1.0000 0.41350  0.95330  0.43770  Biso   1.000  C
  C98      1.0000 0.58650  0.04670  0.93770  Biso   1.000  C
  C99      1.0000 0.58650  0.45330  0.06230  Biso   1.000  C
  C100     1.0000 0.41350  0.54670  0.56230  Biso   1.000  C
  C101     1.0000 0.58650  0.04670  0.56230  Biso   1.000  C
  C102     1.0000 0.41350  0.95330  0.06230  Biso   1.000  C
  C103     1.0000 0.41350  0.54670  0.93770  Biso   1.000  C
  C104     1.0000 0.58650  0.45330  0.43770  Biso   1.000  C
  C105     1.0000 0.48520  0.91180  0.45430  Biso   1.000  C
  C106     1.0000 0.51480  0.08820  0.95430  Biso   1.000  C
  C107     1.0000 0.51480  0.41180  0.04570  Biso   1.000  C
  C108     1.0000 0.48520  0.58820  0.54570  Biso   1.000  C
  C109     1.0000 0.51480  0.08820  0.54570  Biso   1.000  C
  C110     1.0000 0.48520  0.91180  0.04570  Biso   1.000  C
  C111     1.0000 0.48520  0.58820  0.95430  Biso   1.000  C
  C112     1.0000 0.51480  0.41180  0.45430  Biso   1.000  C
  H33      1.0000 0.55070  0.89030  0.43940  Biso   1.000  H
  H34      1.0000 0.44930  0.10970  0.93940  Biso   1.000  H
  H35      1.0000 0.44930  0.39030  0.06060  Biso   1.000  H
  H36      1.0000 0.55070  0.60970  0.56060  Biso   1.000  H
  H37      1.0000 0.44930  0.10970  0.56060  Biso   1.000  H
  H38      1.0000 0.55070  0.89030  0.06060  Biso   1.000  H
  H39      1.0000 0.55070  0.60970  0.93940  Biso   1.000  H
  H40      1.0000 0.44930  0.39030  0.43940  Biso   1.000  H
  C113     1.0000 0.44190  0.90880  0.49600  Biso   1.000  C
  C114     1.0000 0.55810  0.09120  0.99600  Biso   1.000  C
  C115     1.0000 0.55810  0.40880  0.00400  Biso   1.000  C
  C116     1.0000 0.44190  0.59120  0.50400  Biso   1.000  C
  C117     1.0000 0.55810  0.09120  0.50400  Biso   1.000  C
  C118     1.0000 0.44190  0.90880  0.00400  Biso   1.000  C
  C119     1.0000 0.44190  0.59120  0.99600  Biso   1.000  C
  C120     1.0000 0.55810  0.40880  0.49600  Biso   1.000  C
  H41      1.0000 0.47300  0.88470  0.51560  Biso   1.000  H
  H42      1.0000 0.52700  0.11530  0.01560  Biso   1.000  H
  H43      1.0000 0.52700  0.38470  0.98440  Biso   1.000  H
  H44      1.0000 0.47300  0.61530  0.48440  Biso   1.000  H
  H45      1.0000 0.52700  0.11530  0.48440  Biso   1.000  H
  H46      1.0000 0.47300  0.88470  0.98440  Biso   1.000  H
  H47      1.0000 0.47300  0.61530  0.01560  Biso   1.000  H
  H48      1.0000 0.52700  0.38470  0.51560  Biso   1.000  H
  C121     1.0000 0.34380  0.94720  0.50480  Biso   1.000  C
  C122     1.0000 0.65620  0.05280  0.00480  Biso   1.000  C
  C123     1.0000 0.65620  0.44720  0.99520  Biso   1.000  C
  C124     1.0000 0.34380  0.55280  0.49520  Biso   1.000  C
  C125     1.0000 0.65620  0.05280  0.49520  Biso   1.000  C
  C126     1.0000 0.34380  0.94720  0.99520  Biso   1.000  C
  C127     1.0000 0.34380  0.55280  0.00480  Biso   1.000  C
  C128     1.0000 0.65620  0.44720  0.50480  Biso   1.000  C
  C129     1.0000 0.25470  0.95160  0.54240  Biso   1.000  C
  C130     1.0000 0.74530  0.04840  0.04240  Biso   1.000  C
  C131     1.0000 0.74530  0.45160  0.95760  Biso   1.000  C
  C132     1.0000 0.25470  0.54840  0.45760  Biso   1.000  C
  C133     1.0000 0.74530  0.04840  0.45760  Biso   1.000  C
  C134     1.0000 0.25470  0.95160  0.95760  Biso   1.000  C
  C135     1.0000 0.25470  0.54840  0.04240  Biso   1.000  C
  C136     1.0000 0.74530  0.45160  0.54240  Biso   1.000  C
  C137     1.0000 0.16310  0.99330  0.54990  Biso   1.000  C
  C138     1.0000 0.83690  0.00670  0.04990  Biso   1.000  C
  C139     1.0000 0.83690  0.49330  0.95010  Biso   1.000  C
  C140     1.0000 0.16310  0.50670  0.45010  Biso   1.000  C
  C141     1.0000 0.83690  0.00670  0.45010  Biso   1.000  C
  C142     1.0000 0.16310  0.99330  0.95010  Biso   1.000  C
  C143     1.0000 0.16310  0.50670  0.04990  Biso   1.000  C
  C144     1.0000 0.83690  0.49330  0.54990  Biso   1.000  C
  C145     1.0000 0.06740  0.99790  0.58690  Biso   1.000  C
  C146     1.0000 0.93260  0.00210  0.08690  Biso   1.000  C
  C147     1.0000 0.93260  0.49790  0.91310  Biso   1.000  C
  C148     1.0000 0.06740  0.50210  0.41310  Biso   1.000  C
  C149     1.0000 0.93260  0.00210  0.41310  Biso   1.000  C
  C150     1.0000 0.06740  0.99790  0.91310  Biso   1.000  C
  C151     1.0000 0.06740  0.50210  0.08690  Biso   1.000  C
  C152     1.0000 0.93260  0.49790  0.58690  Biso   1.000  C
  H49      1.0000 0.04600  0.97430  0.60790  Biso   1.000  H
  H50      1.0000 0.95400  0.02570  0.10790  Biso   1.000  H
  H51      1.0000 0.95400  0.47430  0.89210  Biso   1.000  H
  H52      1.0000 0.04600  0.52570  0.39210  Biso   1.000  H
  H53      1.0000 0.95400  0.02570  0.39210  Biso   1.000  H
  H54      1.0000 0.04600  0.97430  0.89210  Biso   1.000  H
  H55      1.0000 0.04600  0.52570  0.10790  Biso   1.000  H
  H56      1.0000 0.95400  0.47430  0.60790  Biso   1.000  H
  C153     1.0000 0.01470  0.04360  0.58490  Biso   1.000  C
  C154     1.0000 0.98530  0.95640  0.08490  Biso   1.000  C
  C155     1.0000 0.98530  0.54360  0.91510  Biso   1.000  C
  C156     1.0000 0.01470  0.45640  0.41510  Biso   1.000  C
  C157     1.0000 0.98530  0.95640  0.41510  Biso   1.000  C
  C158     1.0000 0.01470  0.04360  0.91510  Biso   1.000  C
  C159     1.0000 0.01470  0.45640  0.08490  Biso   1.000  C
  C160     1.0000 0.98530  0.54360  0.58490  Biso   1.000  C
  H57      1.0000 0.94800  0.05780  0.60530  Biso   1.000  H
  H58      1.0000 0.05200  0.94220  0.10530  Biso   1.000  H
  H59      1.0000 0.05200  0.55780  0.89470  Biso   1.000  H
  H60      1.0000 0.94800  0.44220  0.39470  Biso   1.000  H
  H61      1.0000 0.05200  0.94220  0.39470  Biso   1.000  H
  H62      1.0000 0.94800  0.05780  0.89470  Biso   1.000  H
  H63      1.0000 0.94800  0.44220  0.10530  Biso   1.000  H
  H64      1.0000 0.05200  0.55780  0.60530  Biso   1.000  H
  C161     1.0000 0.07290  0.06780  0.54800  Biso   1.000  C
  C162     1.0000 0.92710  0.93220  0.04800  Biso   1.000  C
  C163     1.0000 0.92710  0.56780  0.95200  Biso   1.000  C
  C164     1.0000 0.07290  0.43220  0.45200  Biso   1.000  C
  C165     1.0000 0.92710  0.93220  0.45200  Biso   1.000  C
  C166     1.0000 0.07290  0.06780  0.95200  Biso   1.000  C
  C167     1.0000 0.07290  0.43220  0.04800  Biso   1.000  C
  C168     1.0000 0.92710  0.56780  0.54800  Biso   1.000  C
  C169     1.0000 0.05730  0.11550  0.53740  Biso   1.000  C
  C170     1.0000 0.94270  0.88450  0.03740  Biso   1.000  C
  C171     1.0000 0.94270  0.61550  0.96260  Biso   1.000  C
  C172     1.0000 0.05730  0.38450  0.46260  Biso   1.000  C
  C173     1.0000 0.94270  0.88450  0.46260  Biso   1.000  C
  C174     1.0000 0.05730  0.11550  0.96260  Biso   1.000  C
  C175     1.0000 0.05730  0.38450  0.03740  Biso   1.000  C
  C176     1.0000 0.94270  0.61550  0.53740  Biso   1.000  C
  C177     1.0000 0.38720  0.20460  0.36360  Biso   1.000  C
  C178     1.0000 0.61280  0.79540  0.86360  Biso   1.000  C
  C179     1.0000 0.61280  0.70460  0.13640  Biso   1.000  C
  C180     1.0000 0.38720  0.29540  0.63640  Biso   1.000  C
  C181     1.0000 0.61280  0.79540  0.63640  Biso   1.000  C
  C182     1.0000 0.38720  0.20460  0.13640  Biso   1.000  C
  C183     1.0000 0.38720  0.29540  0.86360  Biso   1.000  C
  C184     1.0000 0.61280  0.70460  0.36360  Biso   1.000  C
  H65      1.0000 0.46620  0.19980  0.38400  Biso   1.000  H
  H66      1.0000 0.53380  0.80020  0.88400  Biso   1.000  H
  H67      1.0000 0.53380  0.69980  0.11600  Biso   1.000  H
  H68      1.0000 0.46620  0.30020  0.61600  Biso   1.000  H
  H69      1.0000 0.53380  0.80020  0.61600  Biso   1.000  H
  H70      1.0000 0.46620  0.19980  0.11600  Biso   1.000  H
  H71      1.0000 0.46620  0.30020  0.88400  Biso   1.000  H
  H72      1.0000 0.53380  0.69980  0.38400  Biso   1.000  H
  C185     1.0000 0.39960  0.24230  0.33420  Biso   1.000  C
  C186     1.0000 0.60040  0.75770  0.83420  Biso   1.000  C
  C187     1.0000 0.60040  0.74230  0.16580  Biso   1.000  C
  C188     1.0000 0.39960  0.25770  0.66580  Biso   1.000  C
  C189     1.0000 0.60040  0.75770  0.66580  Biso   1.000  C
  C190     1.0000 0.39960  0.24230  0.16580  Biso   1.000  C
  C191     1.0000 0.39960  0.25770  0.83420  Biso   1.000  C
  C192     1.0000 0.60040  0.74230  0.33420  Biso   1.000  C
  H73      1.0000 0.48570  0.26310  0.33600  Biso   1.000  H
  H74      1.0000 0.51430  0.73690  0.83600  Biso   1.000  H
  H75      1.0000 0.51430  0.76310  0.16400  Biso   1.000  H
  H76      1.0000 0.48570  0.23690  0.66400  Biso   1.000  H
  H77      1.0000 0.51430  0.73690  0.66400  Biso   1.000  H
  H78      1.0000 0.48570  0.26310  0.16400  Biso   1.000  H
  H79      1.0000 0.48570  0.23690  0.83600  Biso   1.000  H
  H80      1.0000 0.51430  0.76310  0.33600  Biso   1.000  H
  N41      1.0000 0.29690  0.25040  0.30400  Biso   1.000  N
  N42      1.0000 0.70310  0.74960  0.80400  Biso   1.000  N
  N43      1.0000 0.70310  0.75040  0.19600  Biso   1.000  N
  N44      1.0000 0.29690  0.24960  0.69600  Biso   1.000  N
  N45      1.0000 0.70310  0.74960  0.69600  Biso   1.000  N
  N46      1.0000 0.29690  0.25040  0.19600  Biso   1.000  N
  N47      1.0000 0.29690  0.24960  0.80400  Biso   1.000  N
  N48      1.0000 0.70310  0.75040  0.30400  Biso   1.000  N
  C193     1.0000 0.17510  0.22040  0.30430  Biso   1.000  C
  C194     1.0000 0.82490  0.77960  0.80430  Biso   1.000  C
  C195     1.0000 0.82490  0.72040  0.19570  Biso   1.000  C
  C196     1.0000 0.17510  0.27960  0.69570  Biso   1.000  C
  C197     1.0000 0.82490  0.77960  0.69570  Biso   1.000  C
  C198     1.0000 0.17510  0.22040  0.19570  Biso   1.000  C
  C199     1.0000 0.17510  0.27960  0.80430  Biso   1.000  C
  C200     1.0000 0.82490  0.72040  0.30430  Biso   1.000  C
  H81      1.0000 0.09940  0.22560  0.28310  Biso   1.000  H
  H82      1.0000 0.90060  0.77440  0.78310  Biso   1.000  H
  H83      1.0000 0.90060  0.72560  0.21690  Biso   1.000  H
  H84      1.0000 0.09940  0.27440  0.71690  Biso   1.000  H
  H85      1.0000 0.90060  0.77440  0.71690  Biso   1.000  H
  H86      1.0000 0.09940  0.22560  0.21690  Biso   1.000  H
  H87      1.0000 0.09940  0.27440  0.78310  Biso   1.000  H
  H88      1.0000 0.90060  0.72560  0.28310  Biso   1.000  H
  C201     1.0000 0.15010  0.18380  0.33160  Biso   1.000  C
  C202     1.0000 0.84990  0.81620  0.83160  Biso   1.000  C
  C203     1.0000 0.84990  0.68380  0.16840  Biso   1.000  C
  C204     1.0000 0.15010  0.31620  0.66840  Biso   1.000  C
  C205     1.0000 0.84990  0.81620  0.66840  Biso   1.000  C
  C206     1.0000 0.15010  0.18380  0.16840  Biso   1.000  C
  C207     1.0000 0.15010  0.31620  0.83160  Biso   1.000  C
  C208     1.0000 0.84990  0.68380  0.33160  Biso   1.000  C
  H89      1.0000 0.06010  0.16470  0.32980  Biso   1.000  H
  H90      1.0000 0.93990  0.83530  0.82980  Biso   1.000  H
  H91      1.0000 0.93990  0.66470  0.17020  Biso   1.000  H
  H92      1.0000 0.06010  0.33530  0.67020  Biso   1.000  H
  H93      1.0000 0.93990  0.83530  0.67020  Biso   1.000  H
  H94      1.0000 0.06010  0.16470  0.17020  Biso   1.000  H
  H95      1.0000 0.06010  0.33530  0.82980  Biso   1.000  H
  H96      1.0000 0.93990  0.66470  0.32980  Biso   1.000  H
  C209     1.0000 0.26400  0.17460  0.36350  Biso   1.000  C
  C210     1.0000 0.73600  0.82540  0.86350  Biso   1.000  C
  C211     1.0000 0.73600  0.67460  0.13650  Biso   1.000  C
  C212     1.0000 0.26400  0.32540  0.63650  Biso   1.000  C
  C213     1.0000 0.73600  0.82540  0.63650  Biso   1.000  C
  C214     1.0000 0.26400  0.17460  0.13650  Biso   1.000  C
  C215     1.0000 0.26400  0.32540  0.86350  Biso   1.000  C
  C216     1.0000 0.73600  0.67460  0.36350  Biso   1.000  C
  C217     1.0000 0.46920  0.93120  0.36260  Biso   1.000  C
  C218     1.0000 0.53080  0.06880  0.86260  Biso   1.000  C
  C219     1.0000 0.53080  0.43120  0.13740  Biso   1.000  C
  C220     1.0000 0.46920  0.56880  0.63740  Biso   1.000  C
  C221     1.0000 0.53080  0.06880  0.63740  Biso   1.000  C
  C222     1.0000 0.46920  0.93120  0.13740  Biso   1.000  C
  C223     1.0000 0.46920  0.56880  0.86260  Biso   1.000  C
  C224     1.0000 0.53080  0.43120  0.36260  Biso   1.000  C
  C225     1.0000 0.62620  0.92130  0.35690  Biso   1.000  C
  C226     1.0000 0.37380  0.07870  0.85690  Biso   1.000  C
  C227     1.0000 0.37380  0.42130  0.14310  Biso   1.000  C
  C228     1.0000 0.62620  0.57870  0.64310  Biso   1.000  C
  C229     1.0000 0.37380  0.07870  0.64310  Biso   1.000  C
  C230     1.0000 0.62620  0.92130  0.14310  Biso   1.000  C
  C231     1.0000 0.62620  0.57870  0.85690  Biso   1.000  C
  C232     1.0000 0.37380  0.42130  0.35690  Biso   1.000  C
  H97      1.0000 0.70170  0.93720  0.37360  Biso   1.000  H
  H98      1.0000 0.29830  0.06280  0.87360  Biso   1.000  H
  H99      1.0000 0.29830  0.43720  0.12640  Biso   1.000  H
  H100     1.0000 0.70170  0.56280  0.62640  Biso   1.000  H
  H101     1.0000 0.29830  0.06280  0.62640  Biso   1.000  H
  H102     1.0000 0.70170  0.93720  0.12640  Biso   1.000  H
  H103     1.0000 0.70170  0.56280  0.87360  Biso   1.000  H
  H104     1.0000 0.29830  0.43720  0.37360  Biso   1.000  H
  H105     1.0000 0.35100  0.85800  0.29080  Biso   1.000  H
  H106     1.0000 0.64900  0.14200  0.79080  Biso   1.000  H
  H107     1.0000 0.64900  0.35800  0.20920  Biso   1.000  H
  H108     1.0000 0.35100  0.64200  0.70920  Biso   1.000  H
  H109     1.0000 0.64900  0.14200  0.70920  Biso   1.000  H
  H110     1.0000 0.35100  0.85800  0.20920  Biso   1.000  H
  H111     1.0000 0.35100  0.64200  0.79080  Biso   1.000  H
  H112     1.0000 0.64900  0.35800  0.29080  Biso   1.000  H
  H113     1.0000 0.77370  0.88090  0.32150  Biso   1.000  H
  H114     1.0000 0.22630  0.11910  0.82150  Biso   1.000  H
  H115     1.0000 0.22630  0.38090  0.17850  Biso   1.000  H
  H116     1.0000 0.77370  0.61910  0.67850  Biso   1.000  H
  H117     1.0000 0.22630  0.11910  0.67850  Biso   1.000  H
  H118     1.0000 0.77370  0.88090  0.17850  Biso   1.000  H
  H119     1.0000 0.77370  0.61910  0.82150  Biso   1.000  H
  H120     1.0000 0.22630  0.38090  0.32150  Biso   1.000  H
  C233     1.0000 0.36930  0.90780  0.33620  Biso   1.000  C
  C234     1.0000 0.63070  0.09220  0.83620  Biso   1.000  C
  C235     1.0000 0.63070  0.40780  0.16380  Biso   1.000  C
  C236     1.0000 0.36930  0.59220  0.66380  Biso   1.000  C
  C237     1.0000 0.63070  0.09220  0.66380  Biso   1.000  C
  C238     1.0000 0.36930  0.90780  0.16380  Biso   1.000  C
  C239     1.0000 0.36930  0.59220  0.83620  Biso   1.000  C
  C240     1.0000 0.63070  0.40780  0.33620  Biso   1.000  C
  H121     1.0000 0.26290  0.91470  0.33760  Biso   1.000  H
  H122     1.0000 0.73710  0.08530  0.83760  Biso   1.000  H
  H123     1.0000 0.73710  0.41470  0.16240  Biso   1.000  H
  H124     1.0000 0.26290  0.58530  0.66240  Biso   1.000  H
  H125     1.0000 0.73710  0.08530  0.66240  Biso   1.000  H
  H126     1.0000 0.26290  0.91470  0.16240  Biso   1.000  H
  H127     1.0000 0.26290  0.58530  0.83760  Biso   1.000  H
  H128     1.0000 0.73710  0.41470  0.33760  Biso   1.000  H
  C241     1.0000 0.25860  0.91510  0.57510  Biso   1.000  C
  C242     1.0000 0.74140  0.08490  0.07510  Biso   1.000  C
  C243     1.0000 0.74140  0.41510  0.92490  Biso   1.000  C
  C244     1.0000 0.25860  0.58490  0.42490  Biso   1.000  C
  C245     1.0000 0.74140  0.08490  0.42490  Biso   1.000  C
  C246     1.0000 0.25860  0.91510  0.92490  Biso   1.000  C
  C247     1.0000 0.25860  0.58490  0.07510  Biso   1.000  C
  C248     1.0000 0.74140  0.41510  0.57510  Biso   1.000  C
  C249     1.0000 0.29840  0.92450  0.61670  Biso   1.000  C
  C250     1.0000 0.70160  0.07550  0.11670  Biso   1.000  C
  C251     1.0000 0.70160  0.42450  0.88330  Biso   1.000  C
  C252     1.0000 0.29840  0.57550  0.38330  Biso   1.000  C
  C253     1.0000 0.70160  0.07550  0.38330  Biso   1.000  C
  C254     1.0000 0.29840  0.92450  0.88330  Biso   1.000  C
  C255     1.0000 0.29840  0.57550  0.11670  Biso   1.000  C
  C256     1.0000 0.70160  0.42450  0.61670  Biso   1.000  C
  H129     1.0000 0.33080  0.95610  0.62390  Biso   1.000  H
  H130     1.0000 0.66920  0.04390  0.12390  Biso   1.000  H
  H131     1.0000 0.66920  0.45610  0.87610  Biso   1.000  H
  H132     1.0000 0.33080  0.54390  0.37610  Biso   1.000  H
  H133     1.0000 0.66920  0.04390  0.37610  Biso   1.000  H
  H134     1.0000 0.33080  0.95610  0.87610  Biso   1.000  H
  H135     1.0000 0.33080  0.54390  0.12390  Biso   1.000  H
  H136     1.0000 0.66920  0.45610  0.62390  Biso   1.000  H
  C257     1.0000 0.29350  0.89010  0.64850  Biso   1.000  C
  C258     1.0000 0.70650  0.10990  0.14850  Biso   1.000  C
  C259     1.0000 0.70650  0.39010  0.85150  Biso   1.000  C
  C260     1.0000 0.29350  0.60990  0.35150  Biso   1.000  C
  C261     1.0000 0.70650  0.10990  0.35150  Biso   1.000  C
  C262     1.0000 0.29350  0.89010  0.85150  Biso   1.000  C
  C263     1.0000 0.29350  0.60990  0.14850  Biso   1.000  C
  C264     1.0000 0.70650  0.39010  0.64850  Biso   1.000  C
  H137     1.0000 0.32190  0.89800  0.67690  Biso   1.000  H
  H138     1.0000 0.67810  0.10200  0.17690  Biso   1.000  H
  H139     1.0000 0.67810  0.39800  0.82310  Biso   1.000  H
  H140     1.0000 0.32190  0.60200  0.32310  Biso   1.000  H
  H141     1.0000 0.67810  0.10200  0.32310  Biso   1.000  H
  H142     1.0000 0.32190  0.89800  0.82310  Biso   1.000  H
  H143     1.0000 0.32190  0.60200  0.17690  Biso   1.000  H
  H144     1.0000 0.67810  0.39800  0.67690  Biso   1.000  H
  C265     1.0000 0.24730  0.84480  0.63850  Biso   1.000  C
  C266     1.0000 0.75270  0.15520  0.13850  Biso   1.000  C
  C267     1.0000 0.75270  0.34480  0.86150  Biso   1.000  C
  C268     1.0000 0.24730  0.65520  0.36150  Biso   1.000  C
  C269     1.0000 0.75270  0.15520  0.36150  Biso   1.000  C
  C270     1.0000 0.24730  0.84480  0.86150  Biso   1.000  C
  C271     1.0000 0.24730  0.65520  0.13850  Biso   1.000  C
  C272     1.0000 0.75270  0.34480  0.63850  Biso   1.000  C
  H145     1.0000 0.24230  0.82080  0.65990  Biso   1.000  H
  H146     1.0000 0.75770  0.17920  0.15990  Biso   1.000  H
  H147     1.0000 0.75770  0.32080  0.84010  Biso   1.000  H
  H148     1.0000 0.24230  0.67920  0.34010  Biso   1.000  H
  H149     1.0000 0.75770  0.17920  0.34010  Biso   1.000  H
  H150     1.0000 0.24230  0.82080  0.84010  Biso   1.000  H
  H151     1.0000 0.24230  0.67920  0.15990  Biso   1.000  H
  H152     1.0000 0.75770  0.32080  0.65990  Biso   1.000  H
  C273     1.0000 0.20750  0.83380  0.59680  Biso   1.000  C
  C274     1.0000 0.79250  0.16620  0.09680  Biso   1.000  C
  C275     1.0000 0.79250  0.33380  0.90320  Biso   1.000  C
  C276     1.0000 0.20750  0.66620  0.40320  Biso   1.000  C
  C277     1.0000 0.79250  0.16620  0.40320  Biso   1.000  C
  C278     1.0000 0.20750  0.83380  0.90320  Biso   1.000  C
  C279     1.0000 0.20750  0.66620  0.09680  Biso   1.000  C
  C280     1.0000 0.79250  0.33380  0.59680  Biso   1.000  C
  H153     1.0000 0.17590  0.80210  0.58990  Biso   1.000  H
  H154     1.0000 0.82410  0.19790  0.08990  Biso   1.000  H
  H155     1.0000 0.82410  0.30210  0.91010  Biso   1.000  H
  H156     1.0000 0.17590  0.69790  0.41010  Biso   1.000  H
  H157     1.0000 0.82410  0.19790  0.41010  Biso   1.000  H
  H158     1.0000 0.17590  0.80210  0.91010  Biso   1.000  H
  H159     1.0000 0.17590  0.69790  0.08990  Biso   1.000  H
  H160     1.0000 0.82410  0.30210  0.58990  Biso   1.000  H
  C281     1.0000 0.21300  0.86840  0.56530  Biso   1.000  C
  C282     1.0000 0.78700  0.13160  0.06530  Biso   1.000  C
  C283     1.0000 0.78700  0.36840  0.93470  Biso   1.000  C
  C284     1.0000 0.21300  0.63160  0.43470  Biso   1.000  C
  C285     1.0000 0.78700  0.13160  0.43470  Biso   1.000  C
  C286     1.0000 0.21300  0.86840  0.93470  Biso   1.000  C
  C287     1.0000 0.21300  0.63160  0.06530  Biso   1.000  C
  C288     1.0000 0.78700  0.36840  0.56530  Biso   1.000  C
  H161     1.0000 0.18550  0.86030  0.53690  Biso   1.000  H
  H162     1.0000 0.81450  0.13970  0.03690  Biso   1.000  H
  H163     1.0000 0.81450  0.36030  0.96310  Biso   1.000  H
  H164     1.0000 0.18550  0.63970  0.46310  Biso   1.000  H
  H165     1.0000 0.81450  0.13970  0.46310  Biso   1.000  H
  H166     1.0000 0.18550  0.86030  0.96310  Biso   1.000  H
  H167     1.0000 0.18550  0.63970  0.03690  Biso   1.000  H
  H168     1.0000 0.81450  0.36030  0.53690  Biso   1.000  H
  C289     1.0000 0.98190  0.14660  0.57040  Biso   1.000  C
  C290     1.0000 0.01810  0.85340  0.07040  Biso   1.000  C
  C291     1.0000 0.01810  0.64660  0.92960  Biso   1.000  C
  C292     1.0000 0.98190  0.35340  0.42960  Biso   1.000  C
  C293     1.0000 0.01810  0.85340  0.42960  Biso   1.000  C
  C294     1.0000 0.98190  0.14660  0.92960  Biso   1.000  C
  C295     1.0000 0.98190  0.35340  0.07040  Biso   1.000  C
  C296     1.0000 0.01810  0.64660  0.57040  Biso   1.000  C
  C297     1.0000 0.06310  0.16190  0.60460  Biso   1.000  C
  C298     1.0000 0.93690  0.83810  0.10460  Biso   1.000  C
  C299     1.0000 0.93690  0.66190  0.89540  Biso   1.000  C
  C300     1.0000 0.06310  0.33810  0.39540  Biso   1.000  C
  C301     1.0000 0.93690  0.83810  0.39540  Biso   1.000  C
  C302     1.0000 0.06310  0.16190  0.89540  Biso   1.000  C
  C303     1.0000 0.06310  0.33810  0.10460  Biso   1.000  C
  C304     1.0000 0.93690  0.66190  0.60460  Biso   1.000  C
  H169     1.0000 0.16710  0.15250  0.60760  Biso   1.000  H
  H170     1.0000 0.83290  0.84750  0.10760  Biso   1.000  H
  H171     1.0000 0.83290  0.65250  0.89240  Biso   1.000  H
  H172     1.0000 0.16710  0.34750  0.39240  Biso   1.000  H
  H173     1.0000 0.83290  0.84750  0.39240  Biso   1.000  H
  H174     1.0000 0.16710  0.15250  0.89240  Biso   1.000  H
  H175     1.0000 0.16710  0.34750  0.10760  Biso   1.000  H
  H176     1.0000 0.83290  0.65250  0.60760  Biso   1.000  H
  C305     1.0000 0.99460  0.19220  0.63660  Biso   1.000  C
  C306     1.0000 0.00540  0.80780  0.13660  Biso   1.000  C
  C307     1.0000 0.00540  0.69220  0.86340  Biso   1.000  C
  C308     1.0000 0.99460  0.30780  0.36340  Biso   1.000  C
  C309     1.0000 0.00540  0.80780  0.36340  Biso   1.000  C
  C310     1.0000 0.99460  0.19220  0.86340  Biso   1.000  C
  C311     1.0000 0.99460  0.30780  0.13660  Biso   1.000  C
  C312     1.0000 0.00540  0.69220  0.63660  Biso   1.000  C
  H177     1.0000 0.05350  0.20300  0.66020  Biso   1.000  H
  H178     1.0000 0.94650  0.79700  0.16020  Biso   1.000  H
  H179     1.0000 0.94650  0.70300  0.83980  Biso   1.000  H
  H180     1.0000 0.05350  0.29700  0.33980  Biso   1.000  H
  H181     1.0000 0.94650  0.79700  0.33980  Biso   1.000  H
  H182     1.0000 0.05350  0.20300  0.83980  Biso   1.000  H
  H183     1.0000 0.05350  0.29700  0.16020  Biso   1.000  H
  H184     1.0000 0.94650  0.70300  0.66020  Biso   1.000  H
  C313     1.0000 0.85310  0.20470  0.63310  Biso   1.000  C
  C314     1.0000 0.14690  0.79530  0.13310  Biso   1.000  C
  C315     1.0000 0.14690  0.70470  0.86690  Biso   1.000  C
  C316     1.0000 0.85310  0.29530  0.36690  Biso   1.000  C
  C317     1.0000 0.14690  0.79530  0.36690  Biso   1.000  C
  C318     1.0000 0.85310  0.20470  0.86690  Biso   1.000  C
  C319     1.0000 0.85310  0.29530  0.13310  Biso   1.000  C
  C320     1.0000 0.14690  0.70470  0.63310  Biso   1.000  C
  H185     1.0000 0.80820  0.22450  0.65440  Biso   1.000  H
  H186     1.0000 0.19180  0.77550  0.15440  Biso   1.000  H
  H187     1.0000 0.19180  0.72450  0.84560  Biso   1.000  H
  H188     1.0000 0.80820  0.27550  0.34560  Biso   1.000  H
  H189     1.0000 0.19180  0.77550  0.34560  Biso   1.000  H
  H190     1.0000 0.80820  0.22450  0.84560  Biso   1.000  H
  H191     1.0000 0.80820  0.27550  0.15440  Biso   1.000  H
  H192     1.0000 0.19180  0.72450  0.65440  Biso   1.000  H
  C321     1.0000 0.76500  0.18960  0.59870  Biso   1.000  C
  C322     1.0000 0.23500  0.81040  0.09870  Biso   1.000  C
  C323     1.0000 0.23500  0.68960  0.90130  Biso   1.000  C
  C324     1.0000 0.76500  0.31040  0.40130  Biso   1.000  C
  C325     1.0000 0.23500  0.81040  0.40130  Biso   1.000  C
  C326     1.0000 0.76500  0.18960  0.90130  Biso   1.000  C
  C327     1.0000 0.76500  0.31040  0.09870  Biso   1.000  C
  C328     1.0000 0.23500  0.68960  0.59870  Biso   1.000  C
  H193     1.0000 0.66070  0.19870  0.59630  Biso   1.000  H
  H194     1.0000 0.33930  0.80130  0.09630  Biso   1.000  H
  H195     1.0000 0.33930  0.69870  0.90370  Biso   1.000  H
  H196     1.0000 0.66070  0.30130  0.40370  Biso   1.000  H
  H197     1.0000 0.33930  0.80130  0.40370  Biso   1.000  H
  H198     1.0000 0.66070  0.19870  0.90370  Biso   1.000  H
  H199     1.0000 0.66070  0.30130  0.09630  Biso   1.000  H
  H200     1.0000 0.33930  0.69870  0.59630  Biso   1.000  H
  C329     1.0000 0.83220  0.16110  0.56820  Biso   1.000  C
  C330     1.0000 0.16780  0.83890  0.06820  Biso   1.000  C
  C331     1.0000 0.16780  0.66110  0.93180  Biso   1.000  C
  C332     1.0000 0.83220  0.33890  0.43180  Biso   1.000  C
  C333     1.0000 0.16780  0.83890  0.43180  Biso   1.000  C
  C334     1.0000 0.83220  0.16110  0.93180  Biso   1.000  C
  C335     1.0000 0.83220  0.33890  0.06820  Biso   1.000  C
  C336     1.0000 0.16780  0.66110  0.56820  Biso   1.000  C
  H201     1.0000 0.77230  0.15100  0.54460  Biso   1.000  H
  H202     1.0000 0.22770  0.84900  0.04460  Biso   1.000  H
  H203     1.0000 0.22770  0.65100  0.95540  Biso   1.000  H
  H204     1.0000 0.77230  0.34900  0.45540  Biso   1.000  H
  H205     1.0000 0.22770  0.84900  0.45540  Biso   1.000  H
  H206     1.0000 0.77230  0.15100  0.95540  Biso   1.000  H
  H207     1.0000 0.77230  0.34900  0.04460  Biso   1.000  H
  H208     1.0000 0.22770  0.65100  0.54460  Biso   1.000  H
  N49      1.0000 0.00820  0.83680  0.25000  Biso   1.000  N
  N50      1.0000 0.99180  0.16320  0.75000  Biso   1.000  N
  N51      1.0000 0.99180  0.33680  0.25000  Biso   1.000  N
  N52      1.0000 0.00820  0.66320  0.75000  Biso   1.000  N
  O1       1.0000 0.87170  0.85100  0.25000  Biso   1.000  O
  O2       1.0000 0.12830  0.14900  0.75000  Biso   1.000  O
  O3       1.0000 0.12830  0.35100  0.25000  Biso   1.000  O
  O4       1.0000 0.87170  0.64900  0.75000  Biso   1.000  O
  O5       1.0000 0.04400  0.79330  0.25000  Biso   1.000  O
  O6       1.0000 0.95600  0.20670  0.75000  Biso   1.000  O
  O7       1.0000 0.95600  0.29330  0.25000  Biso   1.000  O
  O8       1.0000 0.04400  0.70670  0.75000  Biso   1.000  O
  O9       1.0000 0.10760  0.86840  0.25000  Biso   1.000  O
  O10      1.0000 0.89240  0.13160  0.75000  Biso   1.000  O
  O11      1.0000 0.89240  0.36840  0.25000  Biso   1.000  O
  O12      1.0000 0.10760  0.63160  0.75000  Biso   1.000  O
  N53      1.0000 0.35400  0.75820  0.25000  Biso   1.000  N
  N54      1.0000 0.64600  0.24180  0.75000  Biso   1.000  N
  N55      1.0000 0.64600  0.25820  0.25000  Biso   1.000  N
  N56      1.0000 0.35400  0.74180  0.75000  Biso   1.000  N
  O13      1.0000 0.39200  0.77870  0.25000  Biso   1.000  O
  O14      1.0000 0.60800  0.22130  0.75000  Biso   1.000  O
  O15      1.0000 0.60800  0.27870  0.25000  Biso   1.000  O
  O16      1.0000 0.39200  0.72130  0.75000  Biso   1.000  O
  O17      1.0000 0.28400  0.73710  0.28260  Biso   1.000  O
  O18      1.0000 0.71600  0.26290  0.78260  Biso   1.000  O
  O19      1.0000 0.71600  0.23710  0.21740  Biso   1.000  O
  O20      1.0000 0.28400  0.76290  0.71740  Biso   1.000  O
  O21      1.0000 0.71600  0.26290  0.71740  Biso   1.000  O
  O22      1.0000 0.28400  0.73710  0.21740  Biso   1.000  O
  O23      1.0000 0.28400  0.76290  0.78260  Biso   1.000  O
  O24      1.0000 0.71600  0.23710  0.28260  Biso   1.000  O
  N57      1.0000 0.52900  0.14620  0.25000  Biso   1.000  N
  N58      1.0000 0.47100  0.85380  0.75000  Biso   1.000  N
  N59      1.0000 0.47100  0.64620  0.25000  Biso   1.000  N
  N60      1.0000 0.52900  0.35380  0.75000  Biso   1.000  N
  O25      1.0000 0.62600  0.17940  0.25000  Biso   1.000  O
  O26      1.0000 0.37400  0.82060  0.75000  Biso   1.000  O
  O27      1.0000 0.37400  0.67940  0.25000  Biso   1.000  O
  O28      1.0000 0.62600  0.32060  0.75000  Biso   1.000  O
  O29      1.0000 0.39700  0.15920  0.25000  Biso   1.000  O
  O30      1.0000 0.60300  0.84080  0.75000  Biso   1.000  O
  O31      1.0000 0.60300  0.65920  0.25000  Biso   1.000  O
  O32      1.0000 0.39700  0.34080  0.75000  Biso   1.000  O
  O33      1.0000 0.56200  0.10310  0.25000  Biso   1.000  O
  O34      1.0000 0.43800  0.89690  0.75000  Biso   1.000  O
  O35      1.0000 0.43800  0.60310  0.25000  Biso   1.000  O
  O36      1.0000 0.56200  0.39690  0.75000  Biso   1.000  O
  C337     1.0000 0.89200  0.96590  0.25000  Biso   1.000  C
  C338     1.0000 0.10800  0.03410  0.75000  Biso   1.000  C
  C339     1.0000 0.10800  0.46590  0.25000  Biso   1.000  C
  C340     1.0000 0.89200  0.53410  0.75000  Biso   1.000  C
  Cl1      1.0000 0.99500  0.98320  0.20346  Biso   1.000  Cl
  Cl2      1.0000 0.00500  0.01680  0.70346  Biso   1.000  Cl
  Cl3      1.0000 0.00500  0.48320  0.29654  Biso   1.000  Cl
  Cl4      1.0000 0.99500  0.51680  0.79654  Biso   1.000  Cl
  Cl5      1.0000 0.00500  0.01680  0.79654  Biso   1.000  Cl
  Cl6      1.0000 0.99500  0.98320  0.29654  Biso   1.000  Cl
  Cl7      1.0000 0.99500  0.51680  0.70346  Biso   1.000  Cl
  Cl8      1.0000 0.00500  0.48320  0.20346  Biso   1.000  Cl
  Cl9      1.0000 0.72010  0.99570  0.25000  Biso   1.000  Cl
  Cl10     1.0000 0.27990  0.00430  0.75000  Biso   1.000  Cl
  Cl11     1.0000 0.27990  0.49570  0.25000  Biso   1.000  Cl
  Cl12     1.0000 0.72010  0.50430  0.75000  Biso   1.000  Cl
  C341     1.0000 0.97500  0.11150  0.25000  Biso   1.000  C
  C342     1.0000 0.02500  0.88850  0.75000  Biso   1.000  C
  C343     1.0000 0.02500  0.61150  0.25000  Biso   1.000  C
  C344     1.0000 0.97500  0.38850  0.75000  Biso   1.000  C
  O37      1.0000 0.93300  0.15730  0.25000  Biso   1.000  O
  O38      1.0000 0.06700  0.84270  0.75000  Biso   1.000  O
  O39      1.0000 0.06700  0.65730  0.25000  Biso   1.000  O
  O40      1.0000 0.93300  0.34270  0.75000  Biso   1.000  O
  Cl13     1.0000 0.56020  0.71840  0.53860  Biso   1.000  Cl
  Cl14     1.0000 0.43980  0.28160  0.03860  Biso   1.000  Cl
  Cl15     1.0000 0.43980  0.21840  0.96140  Biso   1.000  Cl
  Cl16     1.0000 0.56020  0.78160  0.46140  Biso   1.000  Cl
  Cl17     1.0000 0.43980  0.28160  0.46140  Biso   1.000  Cl
  Cl18     1.0000 0.56020  0.71840  0.96140  Biso   1.000  Cl
  Cl19     1.0000 0.56020  0.78160  0.03860  Biso   1.000  Cl
  Cl20     1.0000 0.43980  0.21840  0.53860  Biso   1.000  Cl
  Cl21     1.0000 0.45700  0.70590  0.46370  Biso   1.000  Cl
  Cl22     1.0000 0.54300  0.29410  0.96370  Biso   1.000  Cl
  Cl23     1.0000 0.54300  0.20590  0.03630  Biso   1.000  Cl
  Cl24     1.0000 0.45700  0.79410  0.53630  Biso   1.000  Cl
  Cl25     1.0000 0.54300  0.29410  0.53630  Biso   1.000  Cl
  Cl26     1.0000 0.45700  0.70590  0.03630  Biso   1.000  Cl
  Cl27     1.0000 0.45700  0.79410  0.96370  Biso   1.000  Cl
  Cl28     1.0000 0.54300  0.20590  0.46370  Biso   1.000  Cl
  C345     1.0000 0.47200  0.75000  0.50000  Biso   1.000  C
  C346     1.0000 0.52800  0.25000  0.00000  Biso   1.000  C
  C347     1.0000 0.52800  0.25000  0.50000  Biso   1.000  C
  C348     1.0000 0.47200  0.75000  0.00000  Biso   1.000  C
  Cl29     1.0000 0.27900  0.75520  0.50970  Biso   1.000  Cl
  Cl30     1.0000 0.72100  0.24480  0.00970  Biso   1.000  Cl
  Cl31     1.0000 0.72100  0.25520  0.99030  Biso   1.000  Cl
  Cl32     1.0000 0.27900  0.74480  0.49030  Biso   1.000  Cl
  Cl33     1.0000 0.72100  0.24480  0.49030  Biso   1.000  Cl
  Cl34     1.0000 0.27900  0.75520  0.99030  Biso   1.000  Cl
  Cl35     1.0000 0.27900  0.74480  0.00970  Biso   1.000  Cl
  Cl36     1.0000 0.72100  0.25520  0.50970  Biso   1.000  Cl
