data_image0
_cell_length_a       20.944
_cell_length_b       20.52
_cell_length_c       19.008
_cell_angle_alpha    90
_cell_angle_beta     95.45
_cell_angle_gamma    90

_symmetry_space_group_name_H-M    "P 1"
_symmetry_int_tables_number       1

loop_
  _symmetry_equiv_pos_as_xyz
  'x, y, z'

loop_
  _atom_site_label
  _atom_site_occupancy
  _atom_site_fract_x
  _atom_site_fract_y
  _atom_site_fract_z
  _atom_site_thermal_displace_type
  _atom_site_B_iso_or_equiv
  _atom_site_type_symbol
  Dy1      1.0000 0.74873  0.17314  0.04551  Biso   1.000  Dy
  Dy2      1.0000 0.25127  0.67314  0.45449  Biso   1.000  Dy
  Dy3      1.0000 0.25127  0.82686  0.95449  Biso   1.000  Dy
  Dy4      1.0000 0.74873  0.32686  0.54551  Biso   1.000  Dy
  Cu1      1.0000 0.00000  0.50000  0.00000  Biso   1.000  Cu
  Cu2      1.0000 0.00000  0.00000  0.50000  Biso   1.000  Cu
  Cu3      1.0000 0.50000  0.50000  0.00000  Biso   1.000  Cu
  Cu4      1.0000 0.50000  0.00000  0.50000  Biso   1.000  Cu
  Cu5      1.0000 0.74396  0.67785  0.27025  Biso   1.000  Cu
  Cu6      1.0000 0.25604  0.17785  0.22975  Biso   1.000  Cu
  Cu7      1.0000 0.25604  0.32215  0.72975  Biso   1.000  Cu
  Cu8      1.0000 0.74396  0.82215  0.77025  Biso   1.000  Cu
  F1       1.0000 0.78580  0.51440  0.91560  Biso   1.000  F
  F2       1.0000 0.21420  0.01440  0.58440  Biso   1.000  F
  F3       1.0000 0.21420  0.48560  0.08440  Biso   1.000  F
  F4       1.0000 0.78580  0.98560  0.41560  Biso   1.000  F
  F5       1.0000 0.54540  0.05080  0.02000  Biso   1.000  F
  F6       1.0000 0.45460  0.55080  0.48000  Biso   1.000  F
  F7       1.0000 0.45460  0.94920  0.98000  Biso   1.000  F
  F8       1.0000 0.54540  0.44920  0.52000  Biso   1.000  F
  F9       1.0000 0.82140  0.61110  0.90400  Biso   1.000  F
  F10      1.0000 0.17860  0.11110  0.59600  Biso   1.000  F
  F11      1.0000 0.17860  0.38890  0.09600  Biso   1.000  F
  F12      1.0000 0.82140  0.88890  0.40400  Biso   1.000  F
  F13      1.0000 0.71090  0.16670  0.30110  Biso   1.000  F
  F14      1.0000 0.28910  0.66670  0.19890  Biso   1.000  F
  F15      1.0000 0.28910  0.83330  0.69890  Biso   1.000  F
  F16      1.0000 0.71090  0.33330  0.80110  Biso   1.000  F
  F17      1.0000 0.78180  0.09440  0.29540  Biso   1.000  F
  F18      1.0000 0.21820  0.59440  0.20460  Biso   1.000  F
  F19      1.0000 0.21820  0.90560  0.70460  Biso   1.000  F
  F20      1.0000 0.78180  0.40560  0.79540  Biso   1.000  F
  F21      1.0000 0.61490  0.97700  0.01800  Biso   1.000  F
  F22      1.0000 0.38510  0.47700  0.48200  Biso   1.000  F
  F23      1.0000 0.38510  0.02300  0.98200  Biso   1.000  F
  F24      1.0000 0.61490  0.52300  0.51800  Biso   1.000  F
  F25      1.0000 0.60180  0.35460  0.11330  Biso   1.000  F
  F26      1.0000 0.39820  0.85460  0.38670  Biso   1.000  F
  F27      1.0000 0.39820  0.64540  0.88670  Biso   1.000  F
  F28      1.0000 0.60180  0.14540  0.61330  Biso   1.000  F
  F29      1.0000 0.58540  0.27230  0.17780  Biso   1.000  F
  F30      1.0000 0.41460  0.77230  0.32220  Biso   1.000  F
  F31      1.0000 0.41460  0.72770  0.82220  Biso   1.000  F
  F32      1.0000 0.58540  0.22770  0.67780  Biso   1.000  F
  F33      1.0000 0.32350  0.35850  0.10240  Biso   1.000  F
  F34      1.0000 0.67650  0.85850  0.39760  Biso   1.000  F
  F35      1.0000 0.67650  0.64150  0.89760  Biso   1.000  F
  F36      1.0000 0.32350  0.14150  0.60240  Biso   1.000  F
  F37      1.0000 0.80500  0.54940  0.81420  Biso   1.000  F
  F38      1.0000 0.19500  0.04940  0.68580  Biso   1.000  F
  F39      1.0000 0.19500  0.45060  0.18580  Biso   1.000  F
  F40      1.0000 0.80500  0.95060  0.31420  Biso   1.000  F
  F41      1.0000 0.79770  0.78070  0.48870  Biso   1.000  F
  F42      1.0000 0.20230  0.28070  0.01130  Biso   1.000  F
  F43      1.0000 0.20230  0.21930  0.51130  Biso   1.000  F
  F44      1.0000 0.79770  0.71930  0.98870  Biso   1.000  F
  F45      1.0000 0.83450  0.68610  0.50250  Biso   1.000  F
  F46      1.0000 0.16550  0.18610  0.99750  Biso   1.000  F
  F47      1.0000 0.16550  0.31390  0.49750  Biso   1.000  F
  F48      1.0000 0.83450  0.81390  0.00250  Biso   1.000  F
  F49      1.0000 0.63620  0.35650  0.22190  Biso   1.000  F
  F50      1.0000 0.36380  0.85650  0.27810  Biso   1.000  F
  F51      1.0000 0.36380  0.64350  0.77810  Biso   1.000  F
  F52      1.0000 0.63620  0.14350  0.72190  Biso   1.000  F
  F53      1.0000 0.76400  0.96720  0.84850  Biso   1.000  F
  F54      1.0000 0.23600  0.46720  0.65150  Biso   1.000  F
  F55      1.0000 0.23600  0.03280  0.15150  Biso   1.000  F
  F56      1.0000 0.76400  0.53280  0.34850  Biso   1.000  F
  F57      1.0000 0.36160  0.32320  0.01400  Biso   1.000  F
  F58      1.0000 0.63840  0.82320  0.48600  Biso   1.000  F
  F59      1.0000 0.63840  0.67680  0.98600  Biso   1.000  F
  F60      1.0000 0.36160  0.17680  0.51400  Biso   1.000  F
  F61      1.0000 0.30230  0.40600  0.00560  Biso   1.000  F
  F62      1.0000 0.69770  0.90600  0.49440  Biso   1.000  F
  F63      1.0000 0.69770  0.59400  0.99440  Biso   1.000  F
  F64      1.0000 0.30230  0.09400  0.50560  Biso   1.000  F
  F65      1.0000 0.93900  0.75390  0.24040  Biso   1.000  F
  F66      1.0000 0.06100  0.25390  0.25960  Biso   1.000  F
  F67      1.0000 0.06100  0.24610  0.75960  Biso   1.000  F
  F68      1.0000 0.93900  0.74610  0.74040  Biso   1.000  F
  F69      1.0000 0.90010  0.24350  0.23940  Biso   1.000  F
  F70      1.0000 0.09990  0.74350  0.26060  Biso   1.000  F
  F71      1.0000 0.09990  0.75650  0.76060  Biso   1.000  F
  F72      1.0000 0.90010  0.25650  0.73940  Biso   1.000  F
  F73      1.0000 0.91180  0.85220  0.24630  Biso   1.000  F
  F74      1.0000 0.08820  0.35220  0.25370  Biso   1.000  F
  F75      1.0000 0.08820  0.14780  0.75370  Biso   1.000  F
  F76      1.0000 0.91180  0.64780  0.74630  Biso   1.000  F
  F77      1.0000 0.56290  0.98410  0.10670  Biso   1.000  F
  F78      1.0000 0.43710  0.48410  0.39330  Biso   1.000  F
  F79      1.0000 0.43710  0.01590  0.89330  Biso   1.000  F
  F80      1.0000 0.56290  0.51590  0.60670  Biso   1.000  F
  F81      1.0000 0.68620  0.06530  0.30970  Biso   1.000  F
  F82      1.0000 0.31380  0.56530  0.19030  Biso   1.000  F
  F83      1.0000 0.31380  0.93470  0.69030  Biso   1.000  F
  F84      1.0000 0.68620  0.43470  0.80970  Biso   1.000  F
  F85      1.0000 0.93570  0.01810  0.09880  Biso   1.000  F
  F86      1.0000 0.06430  0.51810  0.40120  Biso   1.000  F
  F87      1.0000 0.06430  0.98190  0.90120  Biso   1.000  F
  F88      1.0000 0.93570  0.48190  0.59880  Biso   1.000  F
  F89      1.0000 0.85530  0.33050  0.27280  Biso   1.000  F
  F90      1.0000 0.14470  0.83050  0.22720  Biso   1.000  F
  F91      1.0000 0.14470  0.66950  0.72720  Biso   1.000  F
  F92      1.0000 0.85530  0.16950  0.77280  Biso   1.000  F
  F93      1.0000 0.62930  0.84080  0.13070  Biso   1.000  F
  F94      1.0000 0.37070  0.34080  0.36930  Biso   1.000  F
  F95      1.0000 0.37070  0.15920  0.86930  Biso   1.000  F
  F96      1.0000 0.62930  0.65920  0.63070  Biso   1.000  F
  F97      1.0000 0.69870  0.90870  0.14310  Biso   1.000  F
  F98      1.0000 0.30130  0.40870  0.35690  Biso   1.000  F
  F99      1.0000 0.30130  0.09130  0.85690  Biso   1.000  F
  F100     1.0000 0.69870  0.59130  0.64310  Biso   1.000  F
  F101     1.0000 0.74730  0.71480  0.54540  Biso   1.000  F
  F102     1.0000 0.25270  0.21480  0.95460  Biso   1.000  F
  F103     1.0000 0.25270  0.28520  0.45460  Biso   1.000  F
  F104     1.0000 0.74730  0.78520  0.04540  Biso   1.000  F
  F105     1.0000 0.55990  0.63940  0.43250  Biso   1.000  F
  F106     1.0000 0.44010  0.13940  0.06750  Biso   1.000  F
  F107     1.0000 0.44010  0.36060  0.56750  Biso   1.000  F
  F108     1.0000 0.55990  0.86060  0.93250  Biso   1.000  F
  F109     1.0000 0.57220  0.56690  0.36190  Biso   1.000  F
  F110     1.0000 0.42780  0.06690  0.13810  Biso   1.000  F
  F111     1.0000 0.42780  0.43310  0.63810  Biso   1.000  F
  F112     1.0000 0.57220  0.93310  0.86190  Biso   1.000  F
  F113     1.0000 0.85670  0.98430  0.15560  Biso   1.000  F
  F114     1.0000 0.14330  0.48430  0.34440  Biso   1.000  F
  F115     1.0000 0.14330  0.01570  0.84440  Biso   1.000  F
  F116     1.0000 0.85670  0.51570  0.65560  Biso   1.000  F
  F117     1.0000 0.88370  0.93340  0.06660  Biso   1.000  F
  F118     1.0000 0.11630  0.43340  0.43340  Biso   1.000  F
  F119     1.0000 0.11630  0.06660  0.93340  Biso   1.000  F
  F120     1.0000 0.88370  0.56660  0.56660  Biso   1.000  F
  F121     1.0000 0.64720  0.89230  0.22470  Biso   1.000  F
  F122     1.0000 0.35280  0.39230  0.27530  Biso   1.000  F
  F123     1.0000 0.35280  0.10770  0.77530  Biso   1.000  F
  F124     1.0000 0.64720  0.60770  0.72470  Biso   1.000  F
  F125     1.0000 0.77600  0.05750  0.81030  Biso   1.000  F
  F126     1.0000 0.22400  0.55750  0.68970  Biso   1.000  F
  F127     1.0000 0.22400  0.94250  0.18970  Biso   1.000  F
  F128     1.0000 0.77600  0.44250  0.31030  Biso   1.000  F
  F129     1.0000 0.69410  0.03140  0.83930  Biso   1.000  F
  F130     1.0000 0.30590  0.53140  0.66070  Biso   1.000  F
  F131     1.0000 0.30590  0.96860  0.16070  Biso   1.000  F
  F132     1.0000 0.69410  0.46860  0.33930  Biso   1.000  F
  F133     1.0000 0.90950  0.80740  0.15460  Biso   1.000  F
  F134     1.0000 0.09050  0.30740  0.34540  Biso   1.000  F
  F135     1.0000 0.09050  0.19260  0.84540  Biso   1.000  F
  F136     1.0000 0.90950  0.69260  0.65460  Biso   1.000  F
  F137     1.0000 0.90550  0.32990  0.18180  Biso   1.000  F
  F138     1.0000 0.09450  0.82990  0.31820  Biso   1.000  F
  F139     1.0000 0.09450  0.67010  0.81820  Biso   1.000  F
  F140     1.0000 0.90550  0.17010  0.68180  Biso   1.000  F
  O1       1.0000 0.83180  0.21370  0.98150  Biso   1.000  O
  O2       1.0000 0.16820  0.71370  0.51850  Biso   1.000  O
  O3       1.0000 0.16820  0.78630  0.01850  Biso   1.000  O
  O4       1.0000 0.83180  0.28630  0.48150  Biso   1.000  O
  O5       1.0000 0.68240  0.22100  0.95030  Biso   1.000  O
  O6       1.0000 0.31760  0.72100  0.54970  Biso   1.000  O
  O7       1.0000 0.31760  0.77900  0.04970  Biso   1.000  O
  O8       1.0000 0.68240  0.27900  0.45030  Biso   1.000  O
  O9       1.0000 0.91570  0.52790  0.96160  Biso   1.000  O
  O10      1.0000 0.08430  0.02790  0.53840  Biso   1.000  O
  O11      1.0000 0.08430  0.47210  0.03840  Biso   1.000  O
  O12      1.0000 0.91570  0.97210  0.46160  Biso   1.000  O
  O13      1.0000 0.52700  0.48770  0.09950  Biso   1.000  O
  O14      1.0000 0.47300  0.98770  0.40050  Biso   1.000  O
  O15      1.0000 0.47300  0.51230  0.90050  Biso   1.000  O
  O16      1.0000 0.52700  0.01230  0.59950  Biso   1.000  O
  O17      1.0000 0.42610  0.44490  0.00310  Biso   1.000  O
  O18      1.0000 0.57390  0.94490  0.49690  Biso   1.000  O
  O19      1.0000 0.57390  0.55510  0.99690  Biso   1.000  O
  O20      1.0000 0.42610  0.05510  0.50310  Biso   1.000  O
  O21      1.0000 0.68290  0.25190  0.09160  Biso   1.000  O
  O22      1.0000 0.31710  0.75190  0.40840  Biso   1.000  O
  O23      1.0000 0.31710  0.74810  0.90840  Biso   1.000  O
  O24      1.0000 0.68290  0.24810  0.59160  Biso   1.000  O
  O25      1.0000 0.75170  0.10850  0.94230  Biso   1.000  O
  O26      1.0000 0.24830  0.60850  0.55770  Biso   1.000  O
  O27      1.0000 0.24830  0.89150  0.05770  Biso   1.000  O
  O28      1.0000 0.75170  0.39150  0.44230  Biso   1.000  O
  O29      1.0000 0.02410  0.47470  0.90790  Biso   1.000  O
  O30      1.0000 0.97590  0.97470  0.59210  Biso   1.000  O
  O31      1.0000 0.97590  0.52530  0.09210  Biso   1.000  O
  O32      1.0000 0.02410  0.02530  0.40790  Biso   1.000  O
  O33      1.0000 0.66530  0.10060  0.04710  Biso   1.000  O
  O34      1.0000 0.33470  0.60060  0.45290  Biso   1.000  O
  O35      1.0000 0.33470  0.89940  0.95290  Biso   1.000  O
  O36      1.0000 0.66530  0.39940  0.54710  Biso   1.000  O
  O37      1.0000 0.69110  0.75820  0.22400  Biso   1.000  O
  O38      1.0000 0.30890  0.25820  0.27600  Biso   1.000  O
  O39      1.0000 0.30890  0.24180  0.77600  Biso   1.000  O
  O40      1.0000 0.69110  0.74180  0.72400  Biso   1.000  O
  O41      1.0000 0.66400  0.64740  0.30180  Biso   1.000  O
  O42      1.0000 0.33600  0.14740  0.19820  Biso   1.000  O
  O43      1.0000 0.33600  0.35260  0.69820  Biso   1.000  O
  O44      1.0000 0.66400  0.85260  0.80180  Biso   1.000  O
  O45      1.0000 0.82270  0.71690  0.24370  Biso   1.000  O
  O46      1.0000 0.17730  0.21690  0.25630  Biso   1.000  O
  O47      1.0000 0.17730  0.28310  0.75630  Biso   1.000  O
  O48      1.0000 0.82270  0.78310  0.74370  Biso   1.000  O
  O49      1.0000 0.81610  0.24090  0.12110  Biso   1.000  O
  O50      1.0000 0.18390  0.74090  0.37890  Biso   1.000  O
  O51      1.0000 0.18390  0.75910  0.87890  Biso   1.000  O
  O52      1.0000 0.81610  0.25910  0.62110  Biso   1.000  O
  O53      1.0000 0.57330  0.41660  0.94280  Biso   1.000  O
  O54      1.0000 0.42670  0.91660  0.55720  Biso   1.000  O
  O55      1.0000 0.42670  0.58340  0.05720  Biso   1.000  O
  O56      1.0000 0.57330  0.08340  0.44280  Biso   1.000  O
  O57      1.0000 0.77560  0.70330  0.36870  Biso   1.000  O
  O58      1.0000 0.22440  0.20330  0.13130  Biso   1.000  O
  O59      1.0000 0.22440  0.29670  0.63130  Biso   1.000  O
  O60      1.0000 0.77560  0.79670  0.86870  Biso   1.000  O
  O61      1.0000 0.73940  0.14360  0.16490  Biso   1.000  O
  O62      1.0000 0.26060  0.64360  0.33510  Biso   1.000  O
  O63      1.0000 0.26060  0.85640  0.83510  Biso   1.000  O
  O64      1.0000 0.73940  0.35640  0.66490  Biso   1.000  O
  O65      1.0000 0.81920  0.08860  0.07320  Biso   1.000  O
  O66      1.0000 0.18080  0.58860  0.42680  Biso   1.000  O
  O67      1.0000 0.18080  0.91140  0.92680  Biso   1.000  O
  O68      1.0000 0.81920  0.41140  0.57320  Biso   1.000  O
  O69      1.0000 0.95180  0.39990  0.03100  Biso   1.000  O
  O70      1.0000 0.04820  0.89990  0.46900  Biso   1.000  O
  O71      1.0000 0.04820  0.60010  0.96900  Biso   1.000  O
  O72      1.0000 0.95180  0.10010  0.53100  Biso   1.000  O
  N1       1.0000 0.63760  0.26430  0.94090  Biso   1.000  N
  N2       1.0000 0.36240  0.76430  0.55910  Biso   1.000  N
  N3       1.0000 0.36240  0.73570  0.05910  Biso   1.000  N
  N4       1.0000 0.63760  0.23570  0.44090  Biso   1.000  N
  N5       1.0000 0.74580  0.60630  0.19610  Biso   1.000  N
  N6       1.0000 0.25420  0.10630  0.30390  Biso   1.000  N
  N7       1.0000 0.25420  0.39370  0.80390  Biso   1.000  N
  N8       1.0000 0.74580  0.89370  0.69610  Biso   1.000  N
  N9       1.0000 0.87980  0.25390  0.99330  Biso   1.000  N
  N10      1.0000 0.12020  0.75390  0.50670  Biso   1.000  N
  N11      1.0000 0.12020  0.74610  0.00670  Biso   1.000  N
  N12      1.0000 0.87980  0.24610  0.49330  Biso   1.000  N
  N13      1.0000 0.58570  0.35650  0.93640  Biso   1.000  N
  N14      1.0000 0.41430  0.85650  0.56360  Biso   1.000  N
  N15      1.0000 0.41430  0.64350  0.06360  Biso   1.000  N
  N16      1.0000 0.58570  0.14350  0.43640  Biso   1.000  N
  N17      1.0000 0.93710  0.34220  0.01350  Biso   1.000  N
  N18      1.0000 0.06290  0.84220  0.48650  Biso   1.000  N
  N19      1.0000 0.06290  0.65780  0.98650  Biso   1.000  N
  N20      1.0000 0.93710  0.15780  0.51350  Biso   1.000  N
  C1       1.0000 0.70050  0.41710  0.02340  Biso   1.000  C
  C2       1.0000 0.29950  0.91710  0.47660  Biso   1.000  C
  C3       1.0000 0.29950  0.58290  0.97660  Biso   1.000  C
  C4       1.0000 0.70050  0.08290  0.52340  Biso   1.000  C
  H1       1.0000 0.66160  0.43770  0.02820  Biso   1.000  H
  H2       1.0000 0.33840  0.93770  0.47180  Biso   1.000  H
  H3       1.0000 0.33840  0.56230  0.97180  Biso   1.000  H
  H4       1.0000 0.66160  0.06230  0.52820  Biso   1.000  H
  F141     1.0000 0.57480  0.48800  0.23060  Biso   1.000  F
  F142     1.0000 0.42520  0.98800  0.26940  Biso   1.000  F
  F143     1.0000 0.42520  0.51200  0.76940  Biso   1.000  F
  F144     1.0000 0.57480  0.01200  0.73060  Biso   1.000  F
  C5       1.0000 0.75330  0.49970  0.10510  Biso   1.000  C
  C6       1.0000 0.24670  0.99970  0.39490  Biso   1.000  C
  C7       1.0000 0.24670  0.50030  0.89490  Biso   1.000  C
  C8       1.0000 0.75330  0.00030  0.60510  Biso   1.000  C
  C9       1.0000 0.70250  0.36090  0.98130  Biso   1.000  C
  C10      1.0000 0.29750  0.86090  0.51870  Biso   1.000  C
  C11      1.0000 0.29750  0.63910  0.01870  Biso   1.000  C
  C12      1.0000 0.70250  0.13910  0.48130  Biso   1.000  C
  C13      1.0000 0.76160  0.33220  0.97140  Biso   1.000  C
  C14      1.0000 0.23840  0.83220  0.52860  Biso   1.000  C
  C15      1.0000 0.23840  0.66780  0.02860  Biso   1.000  C
  C16      1.0000 0.76160  0.16780  0.47140  Biso   1.000  C
  H5       1.0000 0.76390  0.29760  0.94010  Biso   1.000  H
  H6       1.0000 0.23610  0.79760  0.55990  Biso   1.000  H
  H7       1.0000 0.23610  0.70240  0.05990  Biso   1.000  H
  H8       1.0000 0.76390  0.20240  0.44010  Biso   1.000  H
  C17      1.0000 0.82880  0.77610  0.22640  Biso   1.000  C
  C18      1.0000 0.17120  0.27610  0.27360  Biso   1.000  C
  C19      1.0000 0.17120  0.22390  0.77360  Biso   1.000  C
  C20      1.0000 0.82880  0.72390  0.72640  Biso   1.000  C
  C21      1.0000 0.64420  0.32860  0.95210  Biso   1.000  C
  C22      1.0000 0.35580  0.82860  0.54790  Biso   1.000  C
  C23      1.0000 0.35580  0.67140  0.04790  Biso   1.000  C
  C24      1.0000 0.64420  0.17140  0.45210  Biso   1.000  C
  C25      1.0000 0.69930  0.51220  0.14030  Biso   1.000  C
  C26      1.0000 0.30070  0.01220  0.35970  Biso   1.000  C
  C27      1.0000 0.30070  0.48780  0.85970  Biso   1.000  C
  C28      1.0000 0.69930  0.98780  0.64030  Biso   1.000  C
  H9       1.0000 0.66410  0.48450  0.13350  Biso   1.000  H
  H10      1.0000 0.33590  0.98450  0.36650  Biso   1.000  H
  H11      1.0000 0.33590  0.51550  0.86650  Biso   1.000  H
  H12      1.0000 0.66410  0.01550  0.63350  Biso   1.000  H
  C29      1.0000 0.89490  0.52600  0.89730  Biso   1.000  C
  C30      1.0000 0.10510  0.02600  0.60270  Biso   1.000  C
  C31      1.0000 0.10510  0.47400  0.10270  Biso   1.000  C
  C32      1.0000 0.89490  0.97400  0.39730  Biso   1.000  C
  C33      1.0000 0.64090  0.06540  0.09220  Biso   1.000  C
  C34      1.0000 0.35910  0.56540  0.40780  Biso   1.000  C
  C35      1.0000 0.35910  0.93460  0.90780  Biso   1.000  C
  C36      1.0000 0.64090  0.43460  0.59220  Biso   1.000  C
  C37      1.0000 0.81700  0.35620  0.00900  Biso   1.000  C
  C38      1.0000 0.18300  0.85620  0.49100  Biso   1.000  C
  C39      1.0000 0.18300  0.64380  0.99100  Biso   1.000  C
  C40      1.0000 0.81700  0.14380  0.50900  Biso   1.000  C
  C41      1.0000 0.79790  0.59600  0.16120  Biso   1.000  C
  C42      1.0000 0.20210  0.09600  0.33880  Biso   1.000  C
  C43      1.0000 0.20210  0.40400  0.83880  Biso   1.000  C
  C44      1.0000 0.79790  0.90400  0.66120  Biso   1.000  C
  H13      1.0000 0.83190  0.62510  0.16810  Biso   1.000  H
  H14      1.0000 0.16810  0.12510  0.33190  Biso   1.000  H
  H15      1.0000 0.16810  0.37490  0.83190  Biso   1.000  H
  H16      1.0000 0.83190  0.87490  0.66810  Biso   1.000  H
  C45      1.0000 0.65680  0.06550  0.16400  Biso   1.000  C
  C46      1.0000 0.34320  0.56550  0.33600  Biso   1.000  C
  C47      1.0000 0.34320  0.93450  0.83600  Biso   1.000  C
  C48      1.0000 0.65680  0.43450  0.66400  Biso   1.000  C
  H17      1.0000 0.63480  0.03820  0.19240  Biso   1.000  H
  H18      1.0000 0.36520  0.53820  0.30760  Biso   1.000  H
  H19      1.0000 0.36520  0.96180  0.80760  Biso   1.000  H
  H20      1.0000 0.63480  0.46180  0.69240  Biso   1.000  H
  C49      1.0000 0.75700  0.44180  0.05790  Biso   1.000  C
  C50      1.0000 0.24300  0.94180  0.44210  Biso   1.000  C
  C51      1.0000 0.24300  0.55820  0.94210  Biso   1.000  C
  C52      1.0000 0.75700  0.05820  0.55790  Biso   1.000  C
  C53      1.0000 0.43530  0.42520  0.12630  Biso   1.000  C
  C54      1.0000 0.56470  0.92520  0.37370  Biso   1.000  C
  C55      1.0000 0.56470  0.57480  0.87370  Biso   1.000  C
  C56      1.0000 0.43530  0.07480  0.62630  Biso   1.000  C
  H21      1.0000 0.41570  0.40510  0.16250  Biso   1.000  H
  H22      1.0000 0.58430  0.90510  0.33750  Biso   1.000  H
  H23      1.0000 0.58430  0.59490  0.83750  Biso   1.000  H
  H24      1.0000 0.41570  0.09490  0.66250  Biso   1.000  H
  C57      1.0000 0.70530  0.10590  0.19530  Biso   1.000  C
  C58      1.0000 0.29470  0.60590  0.30470  Biso   1.000  C
  C59      1.0000 0.29470  0.89410  0.80470  Biso   1.000  C
  C60      1.0000 0.70530  0.39410  0.69530  Biso   1.000  C
  C61      1.0000 0.81540  0.41100  0.05170  Biso   1.000  C
  C62      1.0000 0.18460  0.91100  0.44830  Biso   1.000  C
  C63      1.0000 0.18460  0.58900  0.94830  Biso   1.000  C
  C64      1.0000 0.81540  0.08900  0.55170  Biso   1.000  C
  H25      1.0000 0.85290  0.42700  0.07570  Biso   1.000  H
  H26      1.0000 0.14710  0.92700  0.42430  Biso   1.000  H
  H27      1.0000 0.14710  0.57300  0.92430  Biso   1.000  H
  H28      1.0000 0.85290  0.07300  0.57570  Biso   1.000  H
  C65      1.0000 0.69700  0.56460  0.18480  Biso   1.000  C
  C66      1.0000 0.30300  0.06460  0.31520  Biso   1.000  C
  C67      1.0000 0.30300  0.43540  0.81520  Biso   1.000  C
  C68      1.0000 0.69700  0.93540  0.68480  Biso   1.000  C
  H29      1.0000 0.66030  0.57130  0.20780  Biso   1.000  H
  H30      1.0000 0.33970  0.07130  0.29220  Biso   1.000  H
  H31      1.0000 0.33970  0.42870  0.79220  Biso   1.000  H
  H32      1.0000 0.66030  0.92870  0.70780  Biso   1.000  H
  C69      1.0000 0.49260  0.46060  0.14250  Biso   1.000  C
  C70      1.0000 0.50740  0.96060  0.35750  Biso   1.000  C
  C71      1.0000 0.50740  0.53940  0.85750  Biso   1.000  C
  C72      1.0000 0.49260  0.03940  0.64250  Biso   1.000  C
  C73      1.0000 0.40810  0.42020  0.05850  Biso   1.000  C
  C74      1.0000 0.59190  0.92020  0.44150  Biso   1.000  C
  C75      1.0000 0.59190  0.57980  0.94150  Biso   1.000  C
  C76      1.0000 0.40810  0.07980  0.55850  Biso   1.000  C
  C77      1.0000 0.80300  0.54470  0.11600  Biso   1.000  C
  C78      1.0000 0.19700  0.04470  0.38400  Biso   1.000  C
  C79      1.0000 0.19700  0.45530  0.88400  Biso   1.000  C
  C80      1.0000 0.80300  0.95530  0.61600  Biso   1.000  C
  H33      1.0000 0.83970  0.53990  0.09250  Biso   1.000  H
  H34      1.0000 0.16030  0.03990  0.40750  Biso   1.000  H
  H35      1.0000 0.16030  0.46010  0.90750  Biso   1.000  H
  H36      1.0000 0.83970  0.96010  0.59250  Biso   1.000  H
  C81      1.0000 0.57000  0.24560  0.91620  Biso   1.000  C
  C82      1.0000 0.43000  0.74560  0.58380  Biso   1.000  C
  C83      1.0000 0.43000  0.75440  0.08380  Biso   1.000  C
  C84      1.0000 0.57000  0.25440  0.41620  Biso   1.000  C
  F145     1.0000 0.47900  0.51420  0.24780  Biso   1.000  F
  F146     1.0000 0.52100  0.01420  0.25220  Biso   1.000  F
  F147     1.0000 0.52100  0.48580  0.75220  Biso   1.000  F
  F148     1.0000 0.47900  0.98580  0.74780  Biso   1.000  F
  C85      1.0000 0.87670  0.31810  0.00490  Biso   1.000  C
  C86      1.0000 0.12330  0.81810  0.49510  Biso   1.000  C
  C87      1.0000 0.12330  0.68190  0.99510  Biso   1.000  C
  C88      1.0000 0.87670  0.18190  0.50490  Biso   1.000  C
  C89      1.0000 0.74450  0.69730  0.42070  Biso   1.000  C
  C90      1.0000 0.25550  0.19730  0.07930  Biso   1.000  C
  C91      1.0000 0.25550  0.30270  0.57930  Biso   1.000  C
  C92      1.0000 0.74450  0.80270  0.92070  Biso   1.000  C
  F149     1.0000 0.50870  0.41610  0.25760  Biso   1.000  F
  F150     1.0000 0.49130  0.91610  0.24240  Biso   1.000  F
  F151     1.0000 0.49130  0.58390  0.74240  Biso   1.000  F
  F152     1.0000 0.50870  0.08390  0.75760  Biso   1.000  F
  C93      1.0000 0.77250  0.05340  0.93120  Biso   1.000  C
  C94      1.0000 0.22750  0.55340  0.56880  Biso   1.000  C
  C95      1.0000 0.22750  0.94660  0.06880  Biso   1.000  C
  C96      1.0000 0.77250  0.44660  0.43120  Biso   1.000  C
  C97      1.0000 0.98780  0.47990  0.85160  Biso   1.000  C
  C98      1.0000 0.01220  0.97990  0.64840  Biso   1.000  C
  C99      1.0000 0.01220  0.52010  0.14840  Biso   1.000  C
  C100     1.0000 0.98780  0.02010  0.35160  Biso   1.000  C
  C101     1.0000 0.82660  0.55150  0.88230  Biso   1.000  C
  C102     1.0000 0.17340  0.05150  0.61770  Biso   1.000  C
  C103     1.0000 0.17340  0.44850  0.11770  Biso   1.000  C
  C104     1.0000 0.82660  0.94850  0.38230  Biso   1.000  C
  C105     1.0000 0.72050  0.10750  0.27680  Biso   1.000  C
  C106     1.0000 0.27950  0.60750  0.22320  Biso   1.000  C
  C107     1.0000 0.27950  0.89250  0.72320  Biso   1.000  C
  C108     1.0000 0.72050  0.39250  0.77680  Biso   1.000  C
  C109     1.0000 0.94790  0.22930  0.99460  Biso   1.000  C
  C110     1.0000 0.05210  0.72930  0.50540  Biso   1.000  C
  C111     1.0000 0.05210  0.77070  0.00540  Biso   1.000  C
  C112     1.0000 0.94790  0.27070  0.49460  Biso   1.000  C
  C113     1.0000 0.78280  0.82160  0.20960  Biso   1.000  C
  C114     1.0000 0.21720  0.32160  0.29040  Biso   1.000  C
  C115     1.0000 0.21720  0.17840  0.79040  Biso   1.000  C
  C116     1.0000 0.78280  0.67840  0.70960  Biso   1.000  C
  H37      1.0000 0.79570  0.86360  0.19950  Biso   1.000  H
  H38      1.0000 0.20430  0.36360  0.30050  Biso   1.000  H
  H39      1.0000 0.20430  0.13640  0.80050  Biso   1.000  H
  H40      1.0000 0.79570  0.63640  0.69950  Biso   1.000  H
  C117     1.0000 0.51530  0.46910  0.21970  Biso   1.000  C
  C118     1.0000 0.48470  0.96910  0.28030  Biso   1.000  C
  C119     1.0000 0.48470  0.53090  0.78030  Biso   1.000  C
  C120     1.0000 0.51530  0.03090  0.71970  Biso   1.000  C
  C121     1.0000 0.80880  0.01310  0.97840  Biso   1.000  C
  C122     1.0000 0.19120  0.51310  0.52160  Biso   1.000  C
  C123     1.0000 0.19120  0.98690  0.02160  Biso   1.000  C
  C124     1.0000 0.80880  0.48690  0.47840  Biso   1.000  C
  H41      1.0000 0.81860  0.97090  0.96520  Biso   1.000  H
  H42      1.0000 0.18140  0.47090  0.53480  Biso   1.000  H
  H43      1.0000 0.18140  0.02910  0.03480  Biso   1.000  H
  H44      1.0000 0.81860  0.52910  0.46520  Biso   1.000  H
  C125     1.0000 0.59010  0.01980  0.06040  Biso   1.000  C
  C126     1.0000 0.40990  0.51980  0.43960  Biso   1.000  C
  C127     1.0000 0.40990  0.98020  0.93960  Biso   1.000  C
  C128     1.0000 0.59010  0.48020  0.56040  Biso   1.000  C
  C129     1.0000 0.62950  0.31760  0.16640  Biso   1.000  C
  C130     1.0000 0.37050  0.81760  0.33360  Biso   1.000  C
  C131     1.0000 0.37050  0.68240  0.83360  Biso   1.000  C
  C132     1.0000 0.62950  0.18240  0.66640  Biso   1.000  C
  C133     1.0000 0.69010  0.28760  0.14670  Biso   1.000  C
  C134     1.0000 0.30990  0.78760  0.35330  Biso   1.000  C
  C135     1.0000 0.30990  0.71240  0.85330  Biso   1.000  C
  C136     1.0000 0.69010  0.21240  0.64670  Biso   1.000  C
  C137     1.0000 0.64710  0.65230  0.36300  Biso   1.000  C
  C138     1.0000 0.35290  0.15230  0.13700  Biso   1.000  C
  C139     1.0000 0.35290  0.34770  0.63700  Biso   1.000  C
  C140     1.0000 0.64710  0.84770  0.86300  Biso   1.000  C
  C141     1.0000 0.87700  0.99080  0.09230  Biso   1.000  C
  C142     1.0000 0.12300  0.49080  0.40770  Biso   1.000  C
  C143     1.0000 0.12300  0.00920  0.90770  Biso   1.000  C
  C144     1.0000 0.87700  0.50920  0.59230  Biso   1.000  C
  C145     1.0000 0.75310  0.02650  0.85780  Biso   1.000  C
  C146     1.0000 0.24690  0.52650  0.64220  Biso   1.000  C
  C147     1.0000 0.24690  0.97350  0.14220  Biso   1.000  C
  C148     1.0000 0.75310  0.47350  0.35780  Biso   1.000  C
  C149     1.0000 0.80560  0.27590  0.17090  Biso   1.000  C
  C150     1.0000 0.19440  0.77590  0.32910  Biso   1.000  C
  C151     1.0000 0.19440  0.72410  0.82910  Biso   1.000  C
  C152     1.0000 0.80560  0.22410  0.67090  Biso   1.000  C
  C153     1.0000 0.34730  0.37690  0.04420  Biso   1.000  C
  C154     1.0000 0.65270  0.87690  0.45580  Biso   1.000  C
  C155     1.0000 0.65270  0.62310  0.95580  Biso   1.000  C
  C156     1.0000 0.34730  0.12310  0.54420  Biso   1.000  C
  C157     1.0000 0.89760  0.79560  0.22330  Biso   1.000  C
  C158     1.0000 0.10240  0.29560  0.27670  Biso   1.000  C
  C159     1.0000 0.10240  0.20440  0.77670  Biso   1.000  C
  C160     1.0000 0.89760  0.70440  0.72330  Biso   1.000  C
  C161     1.0000 0.92580  0.50380  0.84190  Biso   1.000  C
  C162     1.0000 0.07420  0.00380  0.65810  Biso   1.000  C
  C163     1.0000 0.07420  0.49620  0.15810  Biso   1.000  C
  C164     1.0000 0.92580  0.99620  0.34190  Biso   1.000  C
  H45      1.0000 0.90470  0.50480  0.79660  Biso   1.000  H
  H46      1.0000 0.09530  0.00480  0.70340  Biso   1.000  H
  H47      1.0000 0.09530  0.49520  0.20340  Biso   1.000  H
  H48      1.0000 0.90470  0.99520  0.29660  Biso   1.000  H
  C165     1.0000 0.67150  0.86170  0.17700  Biso   1.000  C
  C166     1.0000 0.32850  0.36170  0.32300  Biso   1.000  C
  C167     1.0000 0.32850  0.13830  0.82300  Biso   1.000  C
  C168     1.0000 0.67150  0.63830  0.67700  Biso   1.000  C
  C169     1.0000 0.71750  0.80870  0.20680  Biso   1.000  C
  C170     1.0000 0.28250  0.30870  0.29320  Biso   1.000  C
  C171     1.0000 0.28250  0.19130  0.79320  Biso   1.000  C
  C172     1.0000 0.71750  0.69130  0.70680  Biso   1.000  C
  C173     1.0000 0.83020  0.03600  0.04490  Biso   1.000  C
  C174     1.0000 0.16980  0.53600  0.45510  Biso   1.000  C
  C175     1.0000 0.16980  0.96400  0.95510  Biso   1.000  C
  C176     1.0000 0.83020  0.46400  0.54490  Biso   1.000  C
  C177     1.0000 0.95510  0.18490  0.93470  Biso   1.000  C
  C178     1.0000 0.04490  0.68490  0.56530  Biso   1.000  C
  C179     1.0000 0.04490  0.81510  0.06530  Biso   1.000  C
  C180     1.0000 0.95510  0.31510  0.43470  Biso   1.000  C
  H49      1.0000 0.92080  0.15370  0.93120  Biso   1.000  H
  H50      1.0000 0.07920  0.65370  0.56880  Biso   1.000  H
  H51      1.0000 0.07920  0.84630  0.06880  Biso   1.000  H
  H52      1.0000 0.92080  0.34630  0.43120  Biso   1.000  H
  H53      1.0000 0.99550  0.16250  0.94220  Biso   1.000  H
  H54      1.0000 0.00450  0.66250  0.55780  Biso   1.000  H
  H55      1.0000 0.00450  0.83750  0.05780  Biso   1.000  H
  H56      1.0000 0.99550  0.33750  0.44220  Biso   1.000  H
  H57      1.0000 0.95380  0.20960  0.89170  Biso   1.000  H
  H58      1.0000 0.04620  0.70960  0.60830  Biso   1.000  H
  H59      1.0000 0.04620  0.79040  0.10830  Biso   1.000  H
  H60      1.0000 0.95380  0.29040  0.39170  Biso   1.000  H
  C181     1.0000 0.95820  0.19030  0.06590  Biso   1.000  C
  C182     1.0000 0.04180  0.69030  0.43410  Biso   1.000  C
  C183     1.0000 0.04180  0.80970  0.93410  Biso   1.000  C
  C184     1.0000 0.95820  0.30970  0.56590  Biso   1.000  C
  H61      1.0000 0.94610  0.21700  0.10390  Biso   1.000  H
  H62      1.0000 0.05390  0.71700  0.39610  Biso   1.000  H
  H63      1.0000 0.05390  0.78300  0.89610  Biso   1.000  H
  H64      1.0000 0.94610  0.28300  0.60390  Biso   1.000  H
  H65      1.0000 0.00260  0.17850  0.07480  Biso   1.000  H
  H66      1.0000 0.99740  0.67850  0.42520  Biso   1.000  H
  H67      1.0000 0.99740  0.82150  0.92520  Biso   1.000  H
  H68      1.0000 0.00260  0.32150  0.57480  Biso   1.000  H
  H69      1.0000 0.93230  0.15160  0.06250  Biso   1.000  H
  H70      1.0000 0.06770  0.65160  0.43750  Biso   1.000  H
  H71      1.0000 0.06770  0.84840  0.93750  Biso   1.000  H
  H72      1.0000 0.93230  0.34840  0.56250  Biso   1.000  H
  C185     1.0000 0.74720  0.29980  0.18850  Biso   1.000  C
  C186     1.0000 0.25280  0.79980  0.31150  Biso   1.000  C
  C187     1.0000 0.25280  0.70020  0.81150  Biso   1.000  C
  C188     1.0000 0.74720  0.20020  0.68850  Biso   1.000  C
  H73      1.0000 0.74620  0.32460  0.22930  Biso   1.000  H
  H74      1.0000 0.25380  0.82460  0.27070  Biso   1.000  H
  H75      1.0000 0.25380  0.67540  0.77070  Biso   1.000  H
  H76      1.0000 0.74620  0.17540  0.72930  Biso   1.000  H
  C189     1.0000 0.78070  0.71910  0.49180  Biso   1.000  C
  C190     1.0000 0.21930  0.21910  0.00820  Biso   1.000  C
  C191     1.0000 0.21930  0.28090  0.50820  Biso   1.000  C
  C192     1.0000 0.78070  0.78090  0.99180  Biso   1.000  C
  C193     1.0000 0.68220  0.67460  0.42270  Biso   1.000  C
  C194     1.0000 0.31780  0.17460  0.07730  Biso   1.000  C
  C195     1.0000 0.31780  0.32540  0.57730  Biso   1.000  C
  C196     1.0000 0.68220  0.82540  0.92270  Biso   1.000  C
  H77      1.0000 0.66390  0.67460  0.46540  Biso   1.000  H
  H78      1.0000 0.33610  0.17460  0.03460  Biso   1.000  H
  H79      1.0000 0.33610  0.32540  0.53460  Biso   1.000  H
  H80      1.0000 0.66390  0.82540  0.96540  Biso   1.000  H
  C197     1.0000 0.98670  0.29110  0.00360  Biso   1.000  C
  C198     1.0000 0.01330  0.79110  0.49640  Biso   1.000  C
  C199     1.0000 0.01330  0.70890  0.99640  Biso   1.000  C
  C200     1.0000 0.98670  0.20890  0.50360  Biso   1.000  C
  C201     1.0000 0.86760  0.29530  0.21920  Biso   1.000  C
  C202     1.0000 0.13240  0.79530  0.28080  Biso   1.000  C
  C203     1.0000 0.13240  0.70470  0.78080  Biso   1.000  C
  C204     1.0000 0.86760  0.20470  0.71920  Biso   1.000  C
  C205     1.0000 0.02130  0.31100  0.95000  Biso   1.000  C
  C206     1.0000 0.97870  0.81100  0.55000  Biso   1.000  C
  C207     1.0000 0.97870  0.68900  0.05000  Biso   1.000  C
  C208     1.0000 0.02130  0.18900  0.45000  Biso   1.000  C
  H81      1.0000 0.99560  0.30650  0.90570  Biso   1.000  H
  H82      1.0000 0.00440  0.80650  0.59430  Biso   1.000  H
  H83      1.0000 0.00440  0.69350  0.09430  Biso   1.000  H
  H84      1.0000 0.99560  0.19350  0.40570  Biso   1.000  H
  H85      1.0000 0.05910  0.28460  0.94960  Biso   1.000  H
  H86      1.0000 0.94090  0.78460  0.55040  Biso   1.000  H
  H87      1.0000 0.94090  0.71540  0.05040  Biso   1.000  H
  H88      1.0000 0.05910  0.21540  0.44960  Biso   1.000  H
  H89      1.0000 0.03340  0.35580  0.95710  Biso   1.000  H
  H90      1.0000 0.96660  0.85580  0.54290  Biso   1.000  H
  H91      1.0000 0.96660  0.64420  0.04290  Biso   1.000  H
  H92      1.0000 0.03340  0.14420  0.45710  Biso   1.000  H
  C209     1.0000 0.57860  0.63180  0.36960  Biso   1.000  C
  C210     1.0000 0.42140  0.13180  0.13040  Biso   1.000  C
  C211     1.0000 0.42140  0.36820  0.63040  Biso   1.000  C
  C212     1.0000 0.57860  0.86820  0.86960  Biso   1.000  C
  F153     1.0000 0.53980  0.65610  0.32400  Biso   1.000  F
  F154     1.0000 0.46020  0.15610  0.17600  Biso   1.000  F
  F155     1.0000 0.46020  0.34390  0.67600  Biso   1.000  F
  F156     1.0000 0.53980  0.84390  0.82400  Biso   1.000  F
  C213     1.0000 0.47520  0.32630  0.89660  Biso   1.000  C
  C214     1.0000 0.52480  0.82630  0.60340  Biso   1.000  C
  C215     1.0000 0.52480  0.67370  0.10340  Biso   1.000  C
  C216     1.0000 0.47520  0.17370  0.39660  Biso   1.000  C
  H93      1.0000 0.45670  0.32210  0.94060  Biso   1.000  H
  H94      1.0000 0.54330  0.82210  0.55940  Biso   1.000  H
  H95      1.0000 0.54330  0.67790  0.05940  Biso   1.000  H
  H96      1.0000 0.45670  0.17790  0.44060  Biso   1.000  H
  H97      1.0000 0.45210  0.29940  0.86150  Biso   1.000  H
  H98      1.0000 0.54790  0.79940  0.63850  Biso   1.000  H
  H99      1.0000 0.54790  0.70060  0.13850  Biso   1.000  H
  H100     1.0000 0.45210  0.20060  0.36150  Biso   1.000  H
  H101     1.0000 0.47280  0.37100  0.88150  Biso   1.000  H
  H102     1.0000 0.52720  0.87100  0.61850  Biso   1.000  H
  H103     1.0000 0.52720  0.62900  0.11850  Biso   1.000  H
  H104     1.0000 0.47280  0.12900  0.38150  Biso   1.000  H
  C217     1.0000 0.53740  0.30740  0.90500  Biso   1.000  C
  C218     1.0000 0.46260  0.80740  0.59500  Biso   1.000  C
  C219     1.0000 0.46260  0.69260  0.09500  Biso   1.000  C
  C220     1.0000 0.53740  0.19260  0.40500  Biso   1.000  C
  C221     1.0000 0.54200  0.22400  0.98750  Biso   1.000  C
  C222     1.0000 0.45800  0.72400  0.51250  Biso   1.000  C
  C223     1.0000 0.45800  0.77600  0.01250  Biso   1.000  C
  C224     1.0000 0.54200  0.27600  0.48750  Biso   1.000  C
  H105     1.0000 0.57670  0.21460  0.02270  Biso   1.000  H
  H106     1.0000 0.42330  0.71460  0.47730  Biso   1.000  H
  H107     1.0000 0.42330  0.78540  0.97730  Biso   1.000  H
  H108     1.0000 0.57670  0.28540  0.52270  Biso   1.000  H
  H109     1.0000 0.51590  0.18580  0.97900  Biso   1.000  H
  H110     1.0000 0.48410  0.68580  0.52100  Biso   1.000  H
  H111     1.0000 0.48410  0.81420  0.02100  Biso   1.000  H
  H112     1.0000 0.51590  0.31420  0.47900  Biso   1.000  H
  H113     1.0000 0.51630  0.25870  0.00390  Biso   1.000  H
  H114     1.0000 0.48370  0.75870  0.49610  Biso   1.000  H
  H115     1.0000 0.48370  0.74130  0.99610  Biso   1.000  H
  H116     1.0000 0.51630  0.24130  0.50390  Biso   1.000  H
  C225     1.0000 0.04000  0.29540  0.06420  Biso   1.000  C
  C226     1.0000 0.96000  0.79540  0.43580  Biso   1.000  C
  C227     1.0000 0.96000  0.70460  0.93580  Biso   1.000  C
  C228     1.0000 0.04000  0.20460  0.56420  Biso   1.000  C
  H117     1.0000 0.04470  0.33990  0.07980  Biso   1.000  H
  H118     1.0000 0.95530  0.83990  0.42020  Biso   1.000  H
  H119     1.0000 0.95530  0.66010  0.92020  Biso   1.000  H
  H120     1.0000 0.04470  0.16010  0.57980  Biso   1.000  H
  H121     1.0000 0.07960  0.28060  0.04820  Biso   1.000  H
  H122     1.0000 0.92040  0.78060  0.45180  Biso   1.000  H
  H123     1.0000 0.92040  0.71940  0.95180  Biso   1.000  H
  H124     1.0000 0.07960  0.21940  0.54820  Biso   1.000  H
  H125     1.0000 0.02930  0.26860  0.10280  Biso   1.000  H
  H126     1.0000 0.97070  0.76860  0.39720  Biso   1.000  H
  H127     1.0000 0.97070  0.73140  0.89720  Biso   1.000  H
  H128     1.0000 0.02930  0.23140  0.60280  Biso   1.000  H
  C229     1.0000 0.56520  0.19500  0.86490  Biso   1.000  C
  C230     1.0000 0.43480  0.69500  0.63510  Biso   1.000  C
  C231     1.0000 0.43480  0.80500  0.13510  Biso   1.000  C
  C232     1.0000 0.56520  0.30500  0.36490  Biso   1.000  C
  H129     1.0000 0.58150  0.21010  0.82230  Biso   1.000  H
  H130     1.0000 0.41850  0.71010  0.67770  Biso   1.000  H
  H131     1.0000 0.41850  0.78990  0.17770  Biso   1.000  H
  H132     1.0000 0.58150  0.28990  0.32230  Biso   1.000  H
  H133     1.0000 0.52110  0.18260  0.85490  Biso   1.000  H
  H134     1.0000 0.47890  0.68260  0.64510  Biso   1.000  H
  H135     1.0000 0.47890  0.81740  0.14510  Biso   1.000  H
  H136     1.0000 0.52110  0.31740  0.35490  Biso   1.000  H
  H137     1.0000 0.58970  0.15800  0.88280  Biso   1.000  H
  H138     1.0000 0.41030  0.65800  0.61720  Biso   1.000  H
  H139     1.0000 0.41030  0.84200  0.11720  Biso   1.000  H
  H140     1.0000 0.58970  0.34200  0.38280  Biso   1.000  H
  F157     1.0000 0.07170  0.50370  0.78050  Biso   1.000  F
  F158     1.0000 0.92830  0.00370  0.71950  Biso   1.000  F
  F159     1.0000 0.92830  0.49630  0.21950  Biso   1.000  F
  F160     1.0000 0.07170  0.99630  0.28050  Biso   1.000  F
  F161     1.0000 0.04830  0.40120  0.79610  Biso   1.000  F
  F162     1.0000 0.95170  0.90120  0.70390  Biso   1.000  F
  F163     1.0000 0.95170  0.59880  0.20390  Biso   1.000  F
  F164     1.0000 0.04830  0.09880  0.29610  Biso   1.000  F
  C233     1.0000 0.02500  0.45750  0.78710  Biso   1.000  C
  C234     1.0000 0.97500  0.95750  0.71290  Biso   1.000  C
  C235     1.0000 0.97500  0.54250  0.21290  Biso   1.000  C
  C236     1.0000 0.02500  0.04250  0.28710  Biso   1.000  C
  F165     1.0000 0.98210  0.45260  0.73290  Biso   1.000  F
  F166     1.0000 0.01790  0.95260  0.76710  Biso   1.000  F
  F167     1.0000 0.01790  0.54740  0.26710  Biso   1.000  F
  F168     1.0000 0.98210  0.04740  0.23290  Biso   1.000  F
  C237     1.0000 0.54950  0.32370  0.81330  Biso   1.000  C
  C238     1.0000 0.45050  0.82370  0.68670  Biso   1.000  C
  C239     1.0000 0.45050  0.67630  0.18670  Biso   1.000  C
  C240     1.0000 0.54950  0.17630  0.31330  Biso   1.000  C
  H141     1.0000 0.53730  0.36780  0.80190  Biso   1.000  H
  H142     1.0000 0.46270  0.86780  0.69810  Biso   1.000  H
  H143     1.0000 0.46270  0.63220  0.19810  Biso   1.000  H
  H144     1.0000 0.53730  0.13220  0.30190  Biso   1.000  H
  H145     1.0000 0.52370  0.29440  0.78330  Biso   1.000  H
  H146     1.0000 0.47630  0.79440  0.71670  Biso   1.000  H
  H147     1.0000 0.47630  0.70560  0.21670  Biso   1.000  H
  H148     1.0000 0.52370  0.20560  0.28330  Biso   1.000  H
  H149     1.0000 0.59390  0.31750  0.80640  Biso   1.000  H
  H150     1.0000 0.40610  0.81750  0.69360  Biso   1.000  H
  H151     1.0000 0.40610  0.68250  0.19360  Biso   1.000  H
  H152     1.0000 0.59390  0.18250  0.30640  Biso   1.000  H
