data_image0
_cell_length_a       16.8393
_cell_length_b       20.715
_cell_length_c       26.283
_cell_angle_alpha    90
_cell_angle_beta     90
_cell_angle_gamma    90

_symmetry_space_group_name_H-M    "P 1"
_symmetry_int_tables_number       1

loop_
  _symmetry_equiv_pos_as_xyz
  'x, y, z'

loop_
  _atom_site_label
  _atom_site_occupancy
  _atom_site_fract_x
  _atom_site_fract_y
  _atom_site_fract_z
  _atom_site_thermal_displace_type
  _atom_site_B_iso_or_equiv
  _atom_site_type_symbol
  Au1      1.0000 0.12059  0.59952  0.54231  Biso   1.000  Au
  Au2      1.0000 0.37941  0.40048  0.04231  Biso   1.000  Au
  Au3      1.0000 0.62059  0.90048  0.45769  Biso   1.000  Au
  Au4      1.0000 0.87941  0.09952  0.95769  Biso   1.000  Au
  Au5      1.0000 0.12150  0.45453  0.54672  Biso   1.000  Au
  Au6      1.0000 0.37850  0.54547  0.04672  Biso   1.000  Au
  Au7      1.0000 0.62150  0.04547  0.45328  Biso   1.000  Au
  Au8      1.0000 0.87850  0.95453  0.95328  Biso   1.000  Au
  Pd1      1.0000 0.13766  0.51245  0.42253  Biso   1.000  Pd
  Pd2      1.0000 0.36234  0.48755  0.92253  Biso   1.000  Pd
  Pd3      1.0000 0.63766  0.98755  0.57747  Biso   1.000  Pd
  Pd4      1.0000 0.86234  0.01245  0.07747  Biso   1.000  Pd
  S1       1.0000 0.17670  0.60560  0.46160  Biso   1.000  S
  S2       1.0000 0.32330  0.39440  0.96160  Biso   1.000  S
  S3       1.0000 0.67670  0.89440  0.53840  Biso   1.000  S
  S4       1.0000 0.82330  0.10560  0.03840  Biso   1.000  S
  S5       1.0000 0.19920  0.44220  0.47510  Biso   1.000  S
  S6       1.0000 0.30080  0.55780  0.97510  Biso   1.000  S
  S7       1.0000 0.69920  0.05780  0.52490  Biso   1.000  S
  S8       1.0000 0.80080  0.94220  0.02490  Biso   1.000  S
  P1       1.0000 0.06330  0.60680  0.62020  Biso   1.000  P
  P2       1.0000 0.43670  0.39320  0.12020  Biso   1.000  P
  P3       1.0000 0.56330  0.89320  0.37980  Biso   1.000  P
  P4       1.0000 0.93670  0.10680  0.87980  Biso   1.000  P
  P5       1.0000 0.04120  0.46260  0.61480  Biso   1.000  P
  P6       1.0000 0.45880  0.53740  0.11480  Biso   1.000  P
  P7       1.0000 0.54120  0.03740  0.38520  Biso   1.000  P
  P8       1.0000 0.95880  0.96260  0.88520  Biso   1.000  P
  O1       1.0000 0.11300  0.72400  0.31140  Biso   1.000  O
  O2       1.0000 0.38700  0.27600  0.81140  Biso   1.000  O
  O3       1.0000 0.61300  0.77600  0.68860  Biso   1.000  O
  O4       1.0000 0.88700  0.22400  0.18860  Biso   1.000  O
  O5       1.0000 0.00290  0.67050  0.32890  Biso   1.000  O
  O6       1.0000 0.49710  0.32950  0.82890  Biso   1.000  O
  O7       1.0000 0.50290  0.82950  0.67110  Biso   1.000  O
  O8       1.0000 0.99710  0.17050  0.17110  Biso   1.000  O
  N1       1.0000 0.08720  0.57090  0.36830  Biso   1.000  N
  N2       1.0000 0.41280  0.42910  0.86830  Biso   1.000  N
  N3       1.0000 0.58720  0.92910  0.63170  Biso   1.000  N
  N4       1.0000 0.91280  0.07090  0.13170  Biso   1.000  N
  H1       1.0000 0.09690  0.55400  0.33690  Biso   1.000  H
  H2       1.0000 0.40310  0.44600  0.83690  Biso   1.000  H
  H3       1.0000 0.59690  0.94600  0.66310  Biso   1.000  H
  H4       1.0000 0.90310  0.05400  0.16310  Biso   1.000  H
  H5       1.0000 0.03370  0.57170  0.37290  Biso   1.000  H
  H6       1.0000 0.46630  0.42830  0.87290  Biso   1.000  H
  H7       1.0000 0.53370  0.92830  0.62710  Biso   1.000  H
  H8       1.0000 0.96630  0.07170  0.12710  Biso   1.000  H
  N5       1.0000 0.09450  0.42980  0.38750  Biso   1.000  N
  N6       1.0000 0.40550  0.57020  0.88750  Biso   1.000  N
  N7       1.0000 0.59450  0.07020  0.61250  Biso   1.000  N
  N8       1.0000 0.90550  0.92980  0.11250  Biso   1.000  N
  H9       1.0000 0.04580  0.43940  0.37440  Biso   1.000  H
  H10      1.0000 0.45420  0.56060  0.87440  Biso   1.000  H
  H11      1.0000 0.54580  0.06060  0.62560  Biso   1.000  H
  H12      1.0000 0.95420  0.93940  0.12560  Biso   1.000  H
  H13      1.0000 0.12690  0.42070  0.36070  Biso   1.000  H
  H14      1.0000 0.37310  0.57930  0.86070  Biso   1.000  H
  H15      1.0000 0.62690  0.07930  0.63930  Biso   1.000  H
  H16      1.0000 0.87310  0.92070  0.13930  Biso   1.000  H
  C1       1.0000 0.11450  0.66350  0.42590  Biso   1.000  C
  C2       1.0000 0.38550  0.33650  0.92590  Biso   1.000  C
  C3       1.0000 0.61450  0.83650  0.57410  Biso   1.000  C
  C4       1.0000 0.88550  0.16350  0.07410  Biso   1.000  C
  C5       1.0000 0.11840  0.63850  0.37010  Biso   1.000  C
  C6       1.0000 0.38160  0.36150  0.87010  Biso   1.000  C
  C7       1.0000 0.61840  0.86150  0.62990  Biso   1.000  C
  C8       1.0000 0.88160  0.13850  0.12990  Biso   1.000  C
  H17      1.0000 0.17550  0.63720  0.35980  Biso   1.000  H
  H18      1.0000 0.32450  0.36280  0.85980  Biso   1.000  H
  H19      1.0000 0.67550  0.86280  0.64020  Biso   1.000  H
  H20      1.0000 0.82450  0.13720  0.14020  Biso   1.000  H
  O9       1.0000 0.05200  0.25980  0.40890  Biso   1.000  O
  O10      1.0000 0.44800  0.74020  0.90890  Biso   1.000  O
  O11      1.0000 0.55200  0.24020  0.59110  Biso   1.000  O
  O12      1.0000 0.94800  0.75980  0.09110  Biso   1.000  O
  C9       1.0000 0.07610  0.68110  0.33340  Biso   1.000  C
  C10      1.0000 0.42390  0.31890  0.83340  Biso   1.000  C
  C11      1.0000 0.57610  0.81890  0.66660  Biso   1.000  C
  C12      1.0000 0.92390  0.18110  0.16660  Biso   1.000  C
  O13      1.0000 0.07640  0.32240  0.33690  Biso   1.000  O
  O14      1.0000 0.42360  0.67760  0.83690  Biso   1.000  O
  O15      1.0000 0.57640  0.17760  0.66310  Biso   1.000  O
  O16      1.0000 0.92360  0.82240  0.16310  Biso   1.000  O
  C13      1.0000 0.02990  0.66540  0.44450  Biso   1.000  C
  C14      1.0000 0.47010  0.33460  0.94450  Biso   1.000  C
  C15      1.0000 0.52990  0.83460  0.55550  Biso   1.000  C
  C16      1.0000 0.97010  0.16540  0.05550  Biso   1.000  C
  H21      1.0000 0.99680  0.68810  0.41960  Biso   1.000  H
  H22      1.0000 0.50320  0.31190  0.91960  Biso   1.000  H
  H23      1.0000 0.49680  0.81190  0.58040  Biso   1.000  H
  H24      1.0000 0.00320  0.18810  0.08040  Biso   1.000  H
  H25      1.0000 0.02760  0.68810  0.47720  Biso   1.000  H
  H26      1.0000 0.47240  0.31190  0.97720  Biso   1.000  H
  H27      1.0000 0.52760  0.81190  0.52280  Biso   1.000  H
  H28      1.0000 0.97240  0.18810  0.02280  Biso   1.000  H
  H29      1.0000 0.01020  0.62130  0.44890  Biso   1.000  H
  H30      1.0000 0.48980  0.37870  0.94890  Biso   1.000  H
  H31      1.0000 0.51020  0.87870  0.55110  Biso   1.000  H
  H32      1.0000 0.98980  0.12130  0.05110  Biso   1.000  H
  C17      1.0000 0.15040  0.73020  0.43240  Biso   1.000  C
  C18      1.0000 0.34960  0.26980  0.93240  Biso   1.000  C
  C19      1.0000 0.65040  0.76980  0.56760  Biso   1.000  C
  C20      1.0000 0.84960  0.23020  0.06760  Biso   1.000  C
  H33      1.0000 0.11650  0.76230  0.41570  Biso   1.000  H
  H34      1.0000 0.38350  0.23770  0.91570  Biso   1.000  H
  H35      1.0000 0.61650  0.73770  0.58430  Biso   1.000  H
  H36      1.0000 0.88350  0.26230  0.08430  Biso   1.000  H
  H37      1.0000 0.20340  0.73110  0.41690  Biso   1.000  H
  H38      1.0000 0.29660  0.26890  0.91690  Biso   1.000  H
  H39      1.0000 0.70340  0.76890  0.58310  Biso   1.000  H
  H40      1.0000 0.79660  0.23110  0.08310  Biso   1.000  H
  H41      1.0000 0.15470  0.74040  0.46870  Biso   1.000  H
  H42      1.0000 0.34530  0.25960  0.96870  Biso   1.000  H
  H43      1.0000 0.65470  0.75960  0.53130  Biso   1.000  H
  H44      1.0000 0.84530  0.24040  0.03130  Biso   1.000  H
  C21      1.0000 0.16370  0.36400  0.44580  Biso   1.000  C
  C22      1.0000 0.33630  0.63600  0.94580  Biso   1.000  C
  C23      1.0000 0.66370  0.13600  0.55420  Biso   1.000  C
  C24      1.0000 0.83630  0.86400  0.05420  Biso   1.000  C
  C25      1.0000 0.08640  0.37200  0.41700  Biso   1.000  C
  C26      1.0000 0.41360  0.62800  0.91700  Biso   1.000  C
  C27      1.0000 0.58640  0.12800  0.58300  Biso   1.000  C
  C28      1.0000 0.91360  0.87200  0.08300  Biso   1.000  C
  H45      1.0000 0.04290  0.37870  0.44240  Biso   1.000  H
  H46      1.0000 0.45710  0.62130  0.94240  Biso   1.000  H
  H47      1.0000 0.54290  0.12130  0.55760  Biso   1.000  H
  H48      1.0000 0.95710  0.87870  0.05760  Biso   1.000  H
  C29      1.0000 0.06890  0.31220  0.38790  Biso   1.000  C
  C30      1.0000 0.43110  0.68780  0.88790  Biso   1.000  C
  C31      1.0000 0.56890  0.18780  0.61210  Biso   1.000  C
  C32      1.0000 0.93110  0.81220  0.11210  Biso   1.000  C
  C33      1.0000 0.16300  0.30980  0.48820  Biso   1.000  C
  C34      1.0000 0.33700  0.69020  0.98820  Biso   1.000  C
  C35      1.0000 0.66300  0.19020  0.51180  Biso   1.000  C
  C36      1.0000 0.83700  0.80980  0.01180  Biso   1.000  C
  H49      1.0000 0.15200  0.26780  0.47250  Biso   1.000  H
  H50      1.0000 0.34800  0.73220  0.97250  Biso   1.000  H
  H51      1.0000 0.65200  0.23220  0.52750  Biso   1.000  H
  H52      1.0000 0.84800  0.76780  0.02750  Biso   1.000  H
  H53      1.0000 0.12190  0.31960  0.51340  Biso   1.000  H
  H54      1.0000 0.37810  0.68040  0.01340  Biso   1.000  H
  H55      1.0000 0.62190  0.18040  0.48660  Biso   1.000  H
  H56      1.0000 0.87810  0.81960  0.98660  Biso   1.000  H
  H57      1.0000 0.21500  0.30840  0.50500  Biso   1.000  H
  H58      1.0000 0.28500  0.69160  0.00500  Biso   1.000  H
  H59      1.0000 0.71500  0.19160  0.49500  Biso   1.000  H
  H60      1.0000 0.78500  0.80840  0.99500  Biso   1.000  H
  C37      1.0000 0.23330  0.34440  0.40840  Biso   1.000  C
  C38      1.0000 0.26670  0.65560  0.90840  Biso   1.000  C
  C39      1.0000 0.73330  0.15560  0.59160  Biso   1.000  C
  C40      1.0000 0.76670  0.84440  0.09160  Biso   1.000  C
  H61      1.0000 0.22290  0.30140  0.39440  Biso   1.000  H
  H62      1.0000 0.27710  0.69860  0.89440  Biso   1.000  H
  H63      1.0000 0.72290  0.19860  0.60560  Biso   1.000  H
  H64      1.0000 0.77710  0.80140  0.10560  Biso   1.000  H
  H65      1.0000 0.28370  0.34390  0.42700  Biso   1.000  H
  H66      1.0000 0.21630  0.65610  0.92700  Biso   1.000  H
  H67      1.0000 0.78370  0.15610  0.57300  Biso   1.000  H
  H68      1.0000 0.71630  0.84390  0.07300  Biso   1.000  H
  H69      1.0000 0.23650  0.37580  0.38050  Biso   1.000  H
  H70      1.0000 0.26350  0.62420  0.88050  Biso   1.000  H
  H71      1.0000 0.73650  0.12420  0.61950  Biso   1.000  H
  H72      1.0000 0.76350  0.87580  0.11950  Biso   1.000  H
  C41      1.0000 0.06600  0.53040  0.65380  Biso   1.000  C
  C42      1.0000 0.43400  0.46960  0.15380  Biso   1.000  C
  C43      1.0000 0.56600  0.96960  0.34620  Biso   1.000  C
  C44      1.0000 0.93400  0.03040  0.84620  Biso   1.000  C
  H73      1.0000 0.11990  0.52400  0.66790  Biso   1.000  H
  H74      1.0000 0.38010  0.47600  0.16790  Biso   1.000  H
  H75      1.0000 0.61990  0.97600  0.33210  Biso   1.000  H
  H76      1.0000 0.88010  0.02400  0.83210  Biso   1.000  H
  H77      1.0000 0.02840  0.53240  0.68270  Biso   1.000  H
  H78      1.0000 0.47160  0.46760  0.18270  Biso   1.000  H
  H79      1.0000 0.52840  0.96760  0.31730  Biso   1.000  H
  H80      1.0000 0.97160  0.03240  0.81730  Biso   1.000  H
  C45      1.0000 0.96200  0.63000  0.62030  Biso   1.000  C
  C46      1.0000 0.53800  0.37000  0.12030  Biso   1.000  C
  C47      1.0000 0.46200  0.87000  0.37970  Biso   1.000  C
  C48      1.0000 0.03800  0.13000  0.87970  Biso   1.000  C
  C49      1.0000 0.92530  0.64170  0.66650  Biso   1.000  C
  C50      1.0000 0.57470  0.35830  0.16650  Biso   1.000  C
  C51      1.0000 0.42530  0.85830  0.33350  Biso   1.000  C
  C52      1.0000 0.07470  0.14170  0.83350  Biso   1.000  C
  H81      1.0000 0.95420  0.64150  0.69750  Biso   1.000  H
  H82      1.0000 0.54580  0.35850  0.19750  Biso   1.000  H
  H83      1.0000 0.45420  0.85850  0.30250  Biso   1.000  H
  H84      1.0000 0.04580  0.14150  0.80250  Biso   1.000  H
  C53      1.0000 0.84070  0.65450  0.66520  Biso   1.000  C
  C54      1.0000 0.65930  0.34550  0.16520  Biso   1.000  C
  C55      1.0000 0.34070  0.84550  0.33480  Biso   1.000  C
  C56      1.0000 0.15930  0.15450  0.83480  Biso   1.000  C
  H85      1.0000 0.81280  0.66090  0.69620  Biso   1.000  H
  H86      1.0000 0.68720  0.33910  0.19620  Biso   1.000  H
  H87      1.0000 0.31280  0.83910  0.30380  Biso   1.000  H
  H88      1.0000 0.18720  0.16090  0.80380  Biso   1.000  H
  C57      1.0000 0.80220  0.65720  0.62200  Biso   1.000  C
  C58      1.0000 0.69780  0.34280  0.12200  Biso   1.000  C
  C59      1.0000 0.30220  0.84280  0.37800  Biso   1.000  C
  C60      1.0000 0.19780  0.15720  0.87800  Biso   1.000  C
  H89      1.0000 0.74690  0.66650  0.62260  Biso   1.000  H
  H90      1.0000 0.75310  0.33350  0.12260  Biso   1.000  H
  H91      1.0000 0.24690  0.83350  0.37740  Biso   1.000  H
  H92      1.0000 0.25310  0.16650  0.87740  Biso   1.000  H
  C61      1.0000 0.83830  0.64720  0.57590  Biso   1.000  C
  C62      1.0000 0.66170  0.35280  0.07590  Biso   1.000  C
  C63      1.0000 0.33830  0.85280  0.42410  Biso   1.000  C
  C64      1.0000 0.16170  0.14720  0.92410  Biso   1.000  C
  H93      1.0000 0.80830  0.64900  0.54530  Biso   1.000  H
  H94      1.0000 0.69170  0.35100  0.04530  Biso   1.000  H
  H95      1.0000 0.30830  0.85100  0.45470  Biso   1.000  H
  H96      1.0000 0.19170  0.14900  0.95470  Biso   1.000  H
  C65      1.0000 0.92030  0.63430  0.57430  Biso   1.000  C
  C66      1.0000 0.57970  0.36570  0.07430  Biso   1.000  C
  C67      1.0000 0.42030  0.86570  0.42570  Biso   1.000  C
  C68      1.0000 0.07970  0.13430  0.92570  Biso   1.000  C
  H97      1.0000 0.94680  0.62860  0.54270  Biso   1.000  H
  H98      1.0000 0.55320  0.37140  0.04270  Biso   1.000  H
  H99      1.0000 0.44680  0.87140  0.45730  Biso   1.000  H
  H100     1.0000 0.05320  0.12860  0.95730  Biso   1.000  H
  C69      1.0000 0.11180  0.66690  0.66030  Biso   1.000  C
  C70      1.0000 0.38820  0.33310  0.16030  Biso   1.000  C
  C71      1.0000 0.61180  0.83310  0.33970  Biso   1.000  C
  C72      1.0000 0.88820  0.16690  0.83970  Biso   1.000  C
  C73      1.0000 0.10460  0.72860  0.64740  Biso   1.000  C
  C74      1.0000 0.39540  0.27140  0.14740  Biso   1.000  C
  C75      1.0000 0.60460  0.77140  0.35260  Biso   1.000  C
  C76      1.0000 0.89540  0.22860  0.85260  Biso   1.000  C
  H101     1.0000 0.07090  0.74030  0.61990  Biso   1.000  H
  H102     1.0000 0.42910  0.25970  0.11990  Biso   1.000  H
  H103     1.0000 0.57090  0.75970  0.38010  Biso   1.000  H
  H104     1.0000 0.92910  0.24030  0.88010  Biso   1.000  H
  C77      1.0000 0.14560  0.77610  0.67350  Biso   1.000  C
  C78      1.0000 0.35440  0.22390  0.17350  Biso   1.000  C
  C79      1.0000 0.64560  0.72390  0.32650  Biso   1.000  C
  C80      1.0000 0.85440  0.27610  0.82650  Biso   1.000  C
  H105     1.0000 0.14180  0.82010  0.66360  Biso   1.000  H
  H106     1.0000 0.35820  0.17990  0.16360  Biso   1.000  H
  H107     1.0000 0.64180  0.67990  0.33640  Biso   1.000  H
  H108     1.0000 0.85820  0.32010  0.83640  Biso   1.000  H
  C81      1.0000 0.19220  0.75780  0.71430  Biso   1.000  C
  C82      1.0000 0.30780  0.24220  0.21430  Biso   1.000  C
  C83      1.0000 0.69220  0.74220  0.28570  Biso   1.000  C
  C84      1.0000 0.80780  0.25780  0.78570  Biso   1.000  C
  H109     1.0000 0.22130  0.79000  0.73200  Biso   1.000  H
  H110     1.0000 0.27870  0.21000  0.23200  Biso   1.000  H
  H111     1.0000 0.72130  0.71000  0.26800  Biso   1.000  H
  H112     1.0000 0.77870  0.29000  0.76800  Biso   1.000  H
  C85      1.0000 0.19750  0.69730  0.72940  Biso   1.000  C
  C86      1.0000 0.30250  0.30270  0.22940  Biso   1.000  C
  C87      1.0000 0.69750  0.80270  0.27060  Biso   1.000  C
  C88      1.0000 0.80250  0.19730  0.77060  Biso   1.000  C
  H113     1.0000 0.22920  0.68610  0.75790  Biso   1.000  H
  H114     1.0000 0.27080  0.31390  0.25790  Biso   1.000  H
  H115     1.0000 0.72920  0.81390  0.24210  Biso   1.000  H
  H116     1.0000 0.77080  0.18610  0.74210  Biso   1.000  H
  C89      1.0000 0.15630  0.65070  0.70310  Biso   1.000  C
  C90      1.0000 0.34370  0.34930  0.20310  Biso   1.000  C
  C91      1.0000 0.65630  0.84930  0.29690  Biso   1.000  C
  C92      1.0000 0.84370  0.15070  0.79690  Biso   1.000  C
  H117     1.0000 0.15810  0.60710  0.71420  Biso   1.000  H
  H118     1.0000 0.34190  0.39290  0.21420  Biso   1.000  H
  H119     1.0000 0.65810  0.89290  0.28580  Biso   1.000  H
  H120     1.0000 0.84190  0.10710  0.78580  Biso   1.000  H
  C93      1.0000 0.04200  0.39330  0.65710  Biso   1.000  C
  C94      1.0000 0.45800  0.60670  0.15710  Biso   1.000  C
  C95      1.0000 0.54200  0.10670  0.34290  Biso   1.000  C
  C96      1.0000 0.95800  0.89330  0.84290  Biso   1.000  C
  C97      1.0000 0.01280  0.39510  0.70510  Biso   1.000  C
  C98      1.0000 0.48720  0.60490  0.20510  Biso   1.000  C
  C99      1.0000 0.51280  0.10490  0.29490  Biso   1.000  C
  C100     1.0000 0.98720  0.89510  0.79490  Biso   1.000  C
  H121     1.0000 0.99350  0.43510  0.71790  Biso   1.000  H
  H122     1.0000 0.50650  0.56490  0.21790  Biso   1.000  H
  H123     1.0000 0.49350  0.06490  0.28210  Biso   1.000  H
  H124     1.0000 0.00650  0.93510  0.78210  Biso   1.000  H
  C101     1.0000 0.01000  0.33920  0.73750  Biso   1.000  C
  C102     1.0000 0.49000  0.66080  0.23750  Biso   1.000  C
  C103     1.0000 0.51000  0.16080  0.26250  Biso   1.000  C
  C104     1.0000 0.99000  0.83920  0.76250  Biso   1.000  C
  H125     1.0000 0.98650  0.34000  0.77050  Biso   1.000  H
  H126     1.0000 0.51350  0.66000  0.27050  Biso   1.000  H
  H127     1.0000 0.48650  0.16000  0.22950  Biso   1.000  H
  H128     1.0000 0.01350  0.84000  0.72950  Biso   1.000  H
  C105     1.0000 0.04300  0.28380  0.71630  Biso   1.000  C
  C106     1.0000 0.45700  0.71620  0.21630  Biso   1.000  C
  C107     1.0000 0.54300  0.21620  0.28370  Biso   1.000  C
  C108     1.0000 0.95700  0.78380  0.78370  Biso   1.000  C
  H129     1.0000 0.04430  0.24560  0.73630  Biso   1.000  H
  H130     1.0000 0.45570  0.75440  0.23630  Biso   1.000  H
  H131     1.0000 0.54430  0.25440  0.26370  Biso   1.000  H
  H132     1.0000 0.95570  0.74560  0.76370  Biso   1.000  H
  C109     1.0000 0.07500  0.28120  0.66890  Biso   1.000  C
  C110     1.0000 0.42500  0.71880  0.16890  Biso   1.000  C
  C111     1.0000 0.57500  0.21880  0.33110  Biso   1.000  C
  C112     1.0000 0.92500  0.78120  0.83110  Biso   1.000  C
  H133     1.0000 0.09890  0.24250  0.65730  Biso   1.000  H
  H134     1.0000 0.40110  0.75750  0.15730  Biso   1.000  H
  H135     1.0000 0.59890  0.25750  0.34270  Biso   1.000  H
  H136     1.0000 0.90110  0.74250  0.84270  Biso   1.000  H
  C113     1.0000 0.07180  0.33570  0.63680  Biso   1.000  C
  C114     1.0000 0.42820  0.66430  0.13680  Biso   1.000  C
  C115     1.0000 0.57180  0.16430  0.36320  Biso   1.000  C
  C116     1.0000 0.92820  0.83570  0.86320  Biso   1.000  C
  H137     1.0000 0.08940  0.33340  0.60250  Biso   1.000  H
  H138     1.0000 0.41060  0.66660  0.10250  Biso   1.000  H
  H139     1.0000 0.58940  0.16660  0.39750  Biso   1.000  H
  H140     1.0000 0.91060  0.83340  0.89750  Biso   1.000  H
  C117     1.0000 0.94210  0.47700  0.59500  Biso   1.000  C
  C118     1.0000 0.55790  0.52300  0.09500  Biso   1.000  C
  C119     1.0000 0.44210  0.02300  0.40500  Biso   1.000  C
  C120     1.0000 0.05790  0.97700  0.90500  Biso   1.000  C
  C121     1.0000 0.88290  0.48290  0.62870  Biso   1.000  C
  C122     1.0000 0.61710  0.51710  0.12870  Biso   1.000  C
  C123     1.0000 0.38290  0.01710  0.37130  Biso   1.000  C
  C124     1.0000 0.11710  0.98290  0.87130  Biso   1.000  C
  H141     1.0000 0.89500  0.48160  0.66400  Biso   1.000  H
  H142     1.0000 0.60500  0.51840  0.16400  Biso   1.000  H
  H143     1.0000 0.39500  0.01840  0.33600  Biso   1.000  H
  H144     1.0000 0.10500  0.98160  0.83600  Biso   1.000  H
  C125     1.0000 0.80180  0.49120  0.61330  Biso   1.000  C
  C126     1.0000 0.69820  0.50880  0.11330  Biso   1.000  C
  C127     1.0000 0.30180  0.00880  0.38670  Biso   1.000  C
  C128     1.0000 0.19820  0.99120  0.88670  Biso   1.000  C
  H145     1.0000 0.76170  0.49750  0.63820  Biso   1.000  H
  H146     1.0000 0.73830  0.50250  0.13820  Biso   1.000  H
  H147     1.0000 0.26170  0.00250  0.36180  Biso   1.000  H
  H148     1.0000 0.23830  0.99750  0.86180  Biso   1.000  H
  C129     1.0000 0.78160  0.48990  0.56160  Biso   1.000  C
  C130     1.0000 0.71840  0.51010  0.06160  Biso   1.000  C
  C131     1.0000 0.28160  0.01010  0.43840  Biso   1.000  C
  C132     1.0000 0.21840  0.98990  0.93840  Biso   1.000  C
  H149     1.0000 0.72840  0.49630  0.55080  Biso   1.000  H
  H150     1.0000 0.77160  0.50370  0.05080  Biso   1.000  H
  H151     1.0000 0.22840  0.00370  0.44920  Biso   1.000  H
  H152     1.0000 0.27160  0.99630  0.94920  Biso   1.000  H
  C133     1.0000 0.84200  0.47910  0.52670  Biso   1.000  C
  C134     1.0000 0.65800  0.52090  0.02670  Biso   1.000  C
  C135     1.0000 0.34200  0.02090  0.47330  Biso   1.000  C
  C136     1.0000 0.15800  0.97910  0.97330  Biso   1.000  C
  H153     1.0000 0.82990  0.47500  0.49150  Biso   1.000  H
  H154     1.0000 0.67010  0.52500  0.99150  Biso   1.000  H
  H155     1.0000 0.32990  0.02500  0.50850  Biso   1.000  H
  H156     1.0000 0.17010  0.97500  0.00850  Biso   1.000  H
  C137     1.0000 0.92210  0.47410  0.54350  Biso   1.000  C
  C138     1.0000 0.57790  0.52590  0.04350  Biso   1.000  C
  C139     1.0000 0.42210  0.02590  0.45650  Biso   1.000  C
  C140     1.0000 0.07790  0.97410  0.95650  Biso   1.000  C
  H157     1.0000 0.96300  0.46870  0.51900  Biso   1.000  H
  H158     1.0000 0.53700  0.53130  0.01900  Biso   1.000  H
  H159     1.0000 0.46300  0.03130  0.48100  Biso   1.000  H
  H160     1.0000 0.03700  0.96870  0.98100  Biso   1.000  H
  Au9      1.0000 0.12900  0.46597  0.99766  Biso   1.000  Au
  Au10     1.0000 0.37100  0.53403  0.49766  Biso   1.000  Au
  Au11     1.0000 0.62900  0.03403  0.00234  Biso   1.000  Au
  Au12     1.0000 0.87100  0.96597  0.50234  Biso   1.000  Au
  Au13     1.0000 0.11044  0.60672  0.02087  Biso   1.000  Au
  Au14     1.0000 0.38956  0.39328  0.52087  Biso   1.000  Au
  Au15     1.0000 0.61044  0.89328  0.97913  Biso   1.000  Au
  Au16     1.0000 0.88956  0.10672  0.47913  Biso   1.000  Au
  Pd5      1.0000 0.13244  0.50657  0.12238  Biso   1.000  Pd
  Pd6      1.0000 0.36756  0.49343  0.62238  Biso   1.000  Pd
  Pd7      1.0000 0.63244  0.99343  0.87762  Biso   1.000  Pd
  Pd8      1.0000 0.86756  0.00657  0.37762  Biso   1.000  Pd
  S9       1.0000 0.19320  0.43350  0.07140  Biso   1.000  S
  S10      1.0000 0.30680  0.56650  0.57140  Biso   1.000  S
  S11      1.0000 0.69320  0.06650  0.92860  Biso   1.000  S
  S12      1.0000 0.80680  0.93350  0.42860  Biso   1.000  S
  S13      1.0000 0.19360  0.59600  0.09090  Biso   1.000  S
  S14      1.0000 0.30640  0.40400  0.59090  Biso   1.000  S
  S15      1.0000 0.69360  0.90400  0.90910  Biso   1.000  S
  S16      1.0000 0.80640  0.09600  0.40910  Biso   1.000  S
  P9       1.0000 0.06560  0.48240  0.92350  Biso   1.000  P
  P10      1.0000 0.43440  0.51760  0.42350  Biso   1.000  P
  P11      1.0000 0.56560  0.01760  0.07650  Biso   1.000  P
  P12      1.0000 0.93440  0.98240  0.57650  Biso   1.000  P
  P13      1.0000 0.04390  0.62390  0.94740  Biso   1.000  P
  P14      1.0000 0.45610  0.37610  0.44740  Biso   1.000  P
  P15      1.0000 0.54390  0.87610  0.05260  Biso   1.000  P
  P16      1.0000 0.95610  0.12390  0.55260  Biso   1.000  P
  O17      1.0000 0.01260  0.32290  0.18610  Biso   1.000  O
  O18      1.0000 0.48740  0.67710  0.68610  Biso   1.000  O
  O19      1.0000 0.51260  0.17710  0.81390  Biso   1.000  O
  O20      1.0000 0.98740  0.82290  0.31390  Biso   1.000  O
  O21      1.0000 0.11880  0.26170  0.18240  Biso   1.000  O
  O22      1.0000 0.38120  0.73830  0.68240  Biso   1.000  O
  O23      1.0000 0.61880  0.23830  0.81760  Biso   1.000  O
  O24      1.0000 0.88120  0.76170  0.31760  Biso   1.000  O
  O25      1.0000 0.07240  0.73160  0.20920  Biso   1.000  O
  O26      1.0000 0.42760  0.26840  0.70920  Biso   1.000  O
  O27      1.0000 0.57240  0.76840  0.79080  Biso   1.000  O
  O28      1.0000 0.92760  0.23160  0.29080  Biso   1.000  O
  O29      1.0000 0.99220  0.64910  0.22660  Biso   1.000  O
  O30      1.0000 0.50780  0.35090  0.72660  Biso   1.000  O
  O31      1.0000 0.49220  0.85090  0.77340  Biso   1.000  O
  O32      1.0000 0.00780  0.14910  0.27340  Biso   1.000  O
  N9       1.0000 0.08370  0.42740  0.15630  Biso   1.000  N
  N10      1.0000 0.41630  0.57260  0.65630  Biso   1.000  N
  N11      1.0000 0.58370  0.07260  0.84370  Biso   1.000  N
  N12      1.0000 0.91630  0.92740  0.34370  Biso   1.000  N
  H161     1.0000 0.07950  0.43520  0.19030  Biso   1.000  H
  H162     1.0000 0.42050  0.56480  0.69030  Biso   1.000  H
  H163     1.0000 0.57950  0.06480  0.80970  Biso   1.000  H
  H164     1.0000 0.92050  0.93520  0.30970  Biso   1.000  H
  H165     1.0000 0.03360  0.42190  0.14400  Biso   1.000  H
  H166     1.0000 0.46640  0.57810  0.64400  Biso   1.000  H
  H167     1.0000 0.53360  0.07810  0.85600  Biso   1.000  H
  H168     1.0000 0.96640  0.92190  0.35600  Biso   1.000  H
  N13      1.0000 0.07450  0.56990  0.17000  Biso   1.000  N
  N14      1.0000 0.42550  0.43010  0.67000  Biso   1.000  N
  N15      1.0000 0.57450  0.93010  0.83000  Biso   1.000  N
  N16      1.0000 0.92550  0.06990  0.33000  Biso   1.000  N
  H169     1.0000 0.02240  0.55830  0.17130  Biso   1.000  H
  H170     1.0000 0.47760  0.44170  0.67130  Biso   1.000  H
  H171     1.0000 0.52240  0.94170  0.82870  Biso   1.000  H
  H172     1.0000 0.97760  0.05830  0.32870  Biso   1.000  H
  H173     1.0000 0.09480  0.56510  0.20180  Biso   1.000  H
  H174     1.0000 0.40520  0.43490  0.70180  Biso   1.000  H
  H175     1.0000 0.59480  0.93490  0.79820  Biso   1.000  H
  H176     1.0000 0.90520  0.06510  0.29820  Biso   1.000  H
  C141     1.0000 0.14250  0.35890  0.09190  Biso   1.000  C
  C142     1.0000 0.35750  0.64110  0.59190  Biso   1.000  C
  C143     1.0000 0.64250  0.14110  0.90810  Biso   1.000  C
  C144     1.0000 0.85750  0.85890  0.40810  Biso   1.000  C
  C145     1.0000 0.12710  0.36810  0.14910  Biso   1.000  C
  C146     1.0000 0.37290  0.63190  0.64910  Biso   1.000  C
  C147     1.0000 0.62710  0.13190  0.85090  Biso   1.000  C
  C148     1.0000 0.87290  0.86810  0.35090  Biso   1.000  C
  H177     1.0000 0.17990  0.37340  0.16610  Biso   1.000  H
  H178     1.0000 0.32010  0.62660  0.66610  Biso   1.000  H
  H179     1.0000 0.67990  0.12660  0.83390  Biso   1.000  H
  H180     1.0000 0.82010  0.87340  0.33390  Biso   1.000  H
  C149     1.0000 0.08280  0.31320  0.17680  Biso   1.000  C
  C150     1.0000 0.41720  0.68680  0.67680  Biso   1.000  C
  C151     1.0000 0.58280  0.18680  0.82320  Biso   1.000  C
  C152     1.0000 0.91720  0.81320  0.32320  Biso   1.000  C
  C153     1.0000 0.06530  0.34540  0.06140  Biso   1.000  C
  C154     1.0000 0.43470  0.65460  0.56140  Biso   1.000  C
  C155     1.0000 0.56530  0.15460  0.93860  Biso   1.000  C
  C156     1.0000 0.93470  0.84540  0.43860  Biso   1.000  C
  H181     1.0000 0.07900  0.33070  0.02710  Biso   1.000  H
  H182     1.0000 0.42100  0.66930  0.52710  Biso   1.000  H
  H183     1.0000 0.57900  0.16930  0.97290  Biso   1.000  H
  H184     1.0000 0.92100  0.83070  0.47290  Biso   1.000  H
  H185     1.0000 0.03380  0.38510  0.05920  Biso   1.000  H
  H186     1.0000 0.46620  0.61490  0.55920  Biso   1.000  H
  H187     1.0000 0.53380  0.11490  0.94080  Biso   1.000  H
  H188     1.0000 0.96620  0.88510  0.44080  Biso   1.000  H
  H189     1.0000 0.03430  0.31200  0.07880  Biso   1.000  H
  H190     1.0000 0.46570  0.68800  0.57880  Biso   1.000  H
  H191     1.0000 0.53430  0.18800  0.92120  Biso   1.000  H
  H192     1.0000 0.96570  0.81200  0.42120  Biso   1.000  H
  C157     1.0000 0.20030  0.30190  0.08240  Biso   1.000  C
  C158     1.0000 0.29970  0.69810  0.58240  Biso   1.000  C
  C159     1.0000 0.70030  0.19810  0.91760  Biso   1.000  C
  C160     1.0000 0.79970  0.80190  0.41760  Biso   1.000  C
  H193     1.0000 0.25180  0.31140  0.09820  Biso   1.000  H
  H194     1.0000 0.24820  0.68860  0.59820  Biso   1.000  H
  H195     1.0000 0.75180  0.18860  0.90180  Biso   1.000  H
  H196     1.0000 0.74820  0.81140  0.40180  Biso   1.000  H
  H197     1.0000 0.20750  0.29580  0.04570  Biso   1.000  H
  H198     1.0000 0.29250  0.70420  0.54570  Biso   1.000  H
  H199     1.0000 0.70750  0.20420  0.95430  Biso   1.000  H
  H200     1.0000 0.79250  0.79580  0.45430  Biso   1.000  H
  H201     1.0000 0.17830  0.26240  0.09740  Biso   1.000  H
  H202     1.0000 0.32170  0.73760  0.59740  Biso   1.000  H
  H203     1.0000 0.67830  0.23760  0.90260  Biso   1.000  H
  H204     1.0000 0.82170  0.76240  0.40260  Biso   1.000  H
  C161     1.0000 0.15960  0.65720  0.13920  Biso   1.000  C
  C162     1.0000 0.34040  0.34280  0.63920  Biso   1.000  C
  C163     1.0000 0.65960  0.84280  0.86080  Biso   1.000  C
  C164     1.0000 0.84040  0.15720  0.36080  Biso   1.000  C
  C165     1.0000 0.07880  0.63980  0.15600  Biso   1.000  C
  C166     1.0000 0.42120  0.36020  0.65600  Biso   1.000  C
  C167     1.0000 0.57880  0.86020  0.84400  Biso   1.000  C
  C168     1.0000 0.92120  0.13980  0.34400  Biso   1.000  C
  H205     1.0000 0.04210  0.64700  0.12660  Biso   1.000  H
  H206     1.0000 0.45790  0.35300  0.62660  Biso   1.000  H
  H207     1.0000 0.54210  0.85300  0.87340  Biso   1.000  H
  H208     1.0000 0.95790  0.14700  0.37340  Biso   1.000  H
  C169     1.0000 0.04470  0.67590  0.20170  Biso   1.000  C
  C170     1.0000 0.45530  0.32410  0.70170  Biso   1.000  C
  C171     1.0000 0.54470  0.82410  0.79830  Biso   1.000  C
  C172     1.0000 0.95530  0.17590  0.29830  Biso   1.000  C
  C173     1.0000 0.16780  0.72000  0.11390  Biso   1.000  C
  C174     1.0000 0.33220  0.28000  0.61390  Biso   1.000  C
  C175     1.0000 0.66780  0.78000  0.88610  Biso   1.000  C
  C176     1.0000 0.83220  0.22000  0.38610  Biso   1.000  C
  H209     1.0000 0.12420  0.72570  0.08960  Biso   1.000  H
  H210     1.0000 0.37580  0.27430  0.58960  Biso   1.000  H
  H211     1.0000 0.62420  0.77430  0.91040  Biso   1.000  H
  H212     1.0000 0.87580  0.22570  0.41040  Biso   1.000  H
  H213     1.0000 0.21860  0.72170  0.09580  Biso   1.000  H
  H214     1.0000 0.28140  0.27830  0.59580  Biso   1.000  H
  H215     1.0000 0.71860  0.77830  0.90420  Biso   1.000  H
  H216     1.0000 0.78140  0.22170  0.40420  Biso   1.000  H
  H217     1.0000 0.16590  0.75450  0.13940  Biso   1.000  H
  H218     1.0000 0.33410  0.24550  0.63940  Biso   1.000  H
  H219     1.0000 0.66590  0.74550  0.86060  Biso   1.000  H
  H220     1.0000 0.83410  0.25450  0.36060  Biso   1.000  H
  C177     1.0000 0.21810  0.64980  0.18120  Biso   1.000  C
  C178     1.0000 0.28190  0.35020  0.68120  Biso   1.000  C
  C179     1.0000 0.71810  0.85020  0.81880  Biso   1.000  C
  C180     1.0000 0.78190  0.14980  0.31880  Biso   1.000  C
  H221     1.0000 0.21070  0.68460  0.20600  Biso   1.000  H
  H222     1.0000 0.28930  0.31540  0.70600  Biso   1.000  H
  H223     1.0000 0.71070  0.81540  0.79400  Biso   1.000  H
  H224     1.0000 0.78930  0.18460  0.29400  Biso   1.000  H
  H225     1.0000 0.27200  0.65180  0.16730  Biso   1.000  H
  H226     1.0000 0.22800  0.34820  0.66730  Biso   1.000  H
  H227     1.0000 0.77200  0.84820  0.83270  Biso   1.000  H
  H228     1.0000 0.72800  0.15180  0.33270  Biso   1.000  H
  H229     1.0000 0.21000  0.60800  0.19800  Biso   1.000  H
  H230     1.0000 0.29000  0.39200  0.69800  Biso   1.000  H
  H231     1.0000 0.71000  0.89200  0.80200  Biso   1.000  H
  H232     1.0000 0.79000  0.10800  0.30200  Biso   1.000  H
  C181     1.0000 0.07520  0.56510  0.89760  Biso   1.000  C
  C182     1.0000 0.42480  0.43490  0.39760  Biso   1.000  C
  C183     1.0000 0.57520  0.93490  0.10240  Biso   1.000  C
  C184     1.0000 0.92480  0.06510  0.60240  Biso   1.000  C
  H233     1.0000 0.04120  0.56990  0.86710  Biso   1.000  H
  H234     1.0000 0.45880  0.43010  0.36710  Biso   1.000  H
  H235     1.0000 0.54120  0.93010  0.13290  Biso   1.000  H
  H236     1.0000 0.95880  0.06990  0.63290  Biso   1.000  H
  H237     1.0000 0.13090  0.57340  0.88760  Biso   1.000  H
  H238     1.0000 0.36910  0.42660  0.38760  Biso   1.000  H
  H239     1.0000 0.63090  0.92660  0.11240  Biso   1.000  H
  H240     1.0000 0.86910  0.07340  0.61240  Biso   1.000  H
  C185     1.0000 0.96160  0.46140  0.92200  Biso   1.000  C
  C186     1.0000 0.53840  0.53860  0.42200  Biso   1.000  C
  C187     1.0000 0.46160  0.03860  0.07800  Biso   1.000  C
  C188     1.0000 0.03840  0.96140  0.57800  Biso   1.000  C
  C189     1.0000 0.92600  0.44800  0.96740  Biso   1.000  C
  C190     1.0000 0.57400  0.55200  0.46740  Biso   1.000  C
  C191     1.0000 0.42600  0.05200  0.03260  Biso   1.000  C
  C192     1.0000 0.07400  0.94800  0.53260  Biso   1.000  C
  H241     1.0000 0.95630  0.44780  0.99800  Biso   1.000  H
  H242     1.0000 0.54370  0.55220  0.49800  Biso   1.000  H
  H243     1.0000 0.45630  0.05220  0.00200  Biso   1.000  H
  H244     1.0000 0.04370  0.94780  0.50200  Biso   1.000  H
  C193     1.0000 0.84600  0.43490  0.96760  Biso   1.000  C
  C194     1.0000 0.65400  0.56510  0.46760  Biso   1.000  C
  C195     1.0000 0.34600  0.06510  0.03240  Biso   1.000  C
  C196     1.0000 0.15400  0.93490  0.53240  Biso   1.000  C
  H245     1.0000 0.81940  0.42640  0.99880  Biso   1.000  H
  H246     1.0000 0.68060  0.57360  0.49880  Biso   1.000  H
  H247     1.0000 0.31940  0.07360  0.00120  Biso   1.000  H
  H248     1.0000 0.18060  0.92640  0.50120  Biso   1.000  H
  C197     1.0000 0.80200  0.43410  0.92010  Biso   1.000  C
  C198     1.0000 0.69800  0.56590  0.42010  Biso   1.000  C
  C199     1.0000 0.30200  0.06590  0.07990  Biso   1.000  C
  C200     1.0000 0.19800  0.93410  0.57990  Biso   1.000  C
  H249     1.0000 0.74690  0.42590  0.91940  Biso   1.000  H
  H250     1.0000 0.75310  0.57410  0.41940  Biso   1.000  H
  H251     1.0000 0.24690  0.07410  0.08060  Biso   1.000  H
  H252     1.0000 0.25310  0.92590  0.58060  Biso   1.000  H
  C201     1.0000 0.84300  0.44540  0.87650  Biso   1.000  C
  C202     1.0000 0.65700  0.55460  0.37650  Biso   1.000  C
  C203     1.0000 0.34300  0.05460  0.12350  Biso   1.000  C
  C204     1.0000 0.15700  0.94540  0.62350  Biso   1.000  C
  H253     1.0000 0.81570  0.44230  0.84510  Biso   1.000  H
  H254     1.0000 0.68430  0.55770  0.34510  Biso   1.000  H
  H255     1.0000 0.31570  0.05770  0.15490  Biso   1.000  H
  H256     1.0000 0.18430  0.94230  0.65490  Biso   1.000  H
  C205     1.0000 0.92130  0.46090  0.87530  Biso   1.000  C
  C206     1.0000 0.57870  0.53910  0.37530  Biso   1.000  C
  C207     1.0000 0.42130  0.03910  0.12470  Biso   1.000  C
  C208     1.0000 0.07870  0.96090  0.62470  Biso   1.000  C
  H257     1.0000 0.94750  0.47090  0.84430  Biso   1.000  H
  H258     1.0000 0.55250  0.52910  0.34430  Biso   1.000  H
  H259     1.0000 0.44750  0.02910  0.15570  Biso   1.000  H
  H260     1.0000 0.05250  0.97090  0.65570  Biso   1.000  H
  C209     1.0000 0.11170  0.43490  0.87480  Biso   1.000  C
  C210     1.0000 0.38830  0.56510  0.37480  Biso   1.000  C
  C211     1.0000 0.61170  0.06510  0.12520  Biso   1.000  C
  C212     1.0000 0.88830  0.93490  0.62520  Biso   1.000  C
  C213     1.0000 0.10800  0.36700  0.88660  Biso   1.000  C
  C214     1.0000 0.39200  0.63300  0.38660  Biso   1.000  C
  C215     1.0000 0.60800  0.13300  0.11340  Biso   1.000  C
  C216     1.0000 0.89200  0.86700  0.61340  Biso   1.000  C
  H261     1.0000 0.08110  0.35190  0.91580  Biso   1.000  H
  H262     1.0000 0.41890  0.64810  0.41580  Biso   1.000  H
  H263     1.0000 0.58110  0.14810  0.08420  Biso   1.000  H
  H264     1.0000 0.91890  0.85190  0.58420  Biso   1.000  H
  C217     1.0000 0.14600  0.32540  0.85480  Biso   1.000  C
  C218     1.0000 0.35400  0.67460  0.35480  Biso   1.000  C
  C219     1.0000 0.64600  0.17460  0.14520  Biso   1.000  C
  C220     1.0000 0.85400  0.82540  0.64520  Biso   1.000  C
  H265     1.0000 0.14840  0.28110  0.86400  Biso   1.000  H
  H266     1.0000 0.35160  0.71890  0.36400  Biso   1.000  H
  H267     1.0000 0.64840  0.21890  0.13600  Biso   1.000  H
  H268     1.0000 0.85160  0.78110  0.63600  Biso   1.000  H
  C221     1.0000 0.17900  0.34460  0.81040  Biso   1.000  C
  C222     1.0000 0.32100  0.65540  0.31040  Biso   1.000  C
  C223     1.0000 0.67900  0.15540  0.18960  Biso   1.000  C
  C224     1.0000 0.82100  0.84460  0.68960  Biso   1.000  C
  H269     1.0000 0.20340  0.31400  0.78860  Biso   1.000  H
  H270     1.0000 0.29660  0.68600  0.28860  Biso   1.000  H
  H271     1.0000 0.70340  0.18600  0.21140  Biso   1.000  H
  H272     1.0000 0.79660  0.81400  0.71140  Biso   1.000  H
  C225     1.0000 0.17600  0.41000  0.79710  Biso   1.000  C
  C226     1.0000 0.32400  0.59000  0.29710  Biso   1.000  C
  C227     1.0000 0.67600  0.09000  0.20290  Biso   1.000  C
  C228     1.0000 0.82400  0.91000  0.70290  Biso   1.000  C
  H273     1.0000 0.20010  0.42400  0.76620  Biso   1.000  H
  H274     1.0000 0.29990  0.57600  0.26620  Biso   1.000  H
  H275     1.0000 0.70010  0.07600  0.23380  Biso   1.000  H
  H276     1.0000 0.79990  0.92400  0.73380  Biso   1.000  H
  C229     1.0000 0.13800  0.45600  0.82930  Biso   1.000  C
  C230     1.0000 0.36200  0.54400  0.32930  Biso   1.000  C
  C231     1.0000 0.63800  0.04400  0.17070  Biso   1.000  C
  C232     1.0000 0.86200  0.95600  0.67070  Biso   1.000  C
  H277     1.0000 0.13160  0.49970  0.81920  Biso   1.000  H
  H278     1.0000 0.36840  0.50030  0.31920  Biso   1.000  H
  H279     1.0000 0.63160  0.00030  0.18080  Biso   1.000  H
  H280     1.0000 0.86840  0.99970  0.68080  Biso   1.000  H
  C233     1.0000 0.07620  0.69970  0.92060  Biso   1.000  C
  C234     1.0000 0.42380  0.30030  0.42060  Biso   1.000  C
  C235     1.0000 0.57620  0.80030  0.07940  Biso   1.000  C
  C236     1.0000 0.92380  0.19970  0.57940  Biso   1.000  C
  C237     1.0000 0.09560  0.70840  0.86910  Biso   1.000  C
  C238     1.0000 0.40440  0.29160  0.36910  Biso   1.000  C
  C239     1.0000 0.59560  0.79160  0.13090  Biso   1.000  C
  C240     1.0000 0.90440  0.20840  0.63090  Biso   1.000  C
  H281     1.0000 0.08730  0.67480  0.84500  Biso   1.000  H
  H282     1.0000 0.41270  0.32520  0.34500  Biso   1.000  H
  H283     1.0000 0.58730  0.82520  0.15500  Biso   1.000  H
  H284     1.0000 0.91270  0.17480  0.65500  Biso   1.000  H
  C241     1.0000 0.12600  0.76600  0.85460  Biso   1.000  C
  C242     1.0000 0.37400  0.23400  0.35460  Biso   1.000  C
  C243     1.0000 0.62600  0.73400  0.14540  Biso   1.000  C
  C244     1.0000 0.87400  0.26600  0.64540  Biso   1.000  C
  H285     1.0000 0.13920  0.77310  0.81990  Biso   1.000  H
  H286     1.0000 0.36080  0.22690  0.31990  Biso   1.000  H
  H287     1.0000 0.63920  0.72690  0.18010  Biso   1.000  H
  H288     1.0000 0.86080  0.27310  0.68010  Biso   1.000  H
  C245     1.0000 0.13900  0.81350  0.88890  Biso   1.000  C
  C246     1.0000 0.36100  0.18650  0.38890  Biso   1.000  C
  C247     1.0000 0.63900  0.68650  0.11110  Biso   1.000  C
  C248     1.0000 0.86100  0.31350  0.61110  Biso   1.000  C
  H289     1.0000 0.16410  0.85230  0.87800  Biso   1.000  H
  H290     1.0000 0.33590  0.14770  0.37800  Biso   1.000  H
  H291     1.0000 0.66410  0.64770  0.12200  Biso   1.000  H
  H292     1.0000 0.83590  0.35230  0.62200  Biso   1.000  H
  C249     1.0000 0.11800  0.80760  0.93670  Biso   1.000  C
  C250     1.0000 0.38200  0.19240  0.43670  Biso   1.000  C
  C251     1.0000 0.61800  0.69240  0.06330  Biso   1.000  C
  C252     1.0000 0.88200  0.30760  0.56330  Biso   1.000  C
  H293     1.0000 0.12470  0.84270  0.95950  Biso   1.000  H
  H294     1.0000 0.37530  0.15730  0.45950  Biso   1.000  H
  H295     1.0000 0.62470  0.65730  0.04050  Biso   1.000  H
  H296     1.0000 0.87530  0.34270  0.54050  Biso   1.000  H
  C253     1.0000 0.08460  0.74730  0.95480  Biso   1.000  C
  C254     1.0000 0.41540  0.25270  0.45480  Biso   1.000  C
  C255     1.0000 0.58460  0.75270  0.04520  Biso   1.000  C
  C256     1.0000 0.91540  0.24730  0.54520  Biso   1.000  C
  H297     1.0000 0.06930  0.74170  0.98940  Biso   1.000  H
  H298     1.0000 0.43070  0.25830  0.48940  Biso   1.000  H
  H299     1.0000 0.56930  0.75830  0.01060  Biso   1.000  H
  H300     1.0000 0.93070  0.24170  0.51060  Biso   1.000  H
  C257     1.0000 0.93670  0.62710  0.95000  Biso   1.000  C
  C258     1.0000 0.56330  0.37290  0.45000  Biso   1.000  C
  C259     1.0000 0.43670  0.87290  0.05000  Biso   1.000  C
  C260     1.0000 0.06330  0.12710  0.55000  Biso   1.000  C
  C261     1.0000 0.89000  0.62670  0.90800  Biso   1.000  C
  C262     1.0000 0.61000  0.37330  0.40800  Biso   1.000  C
  C263     1.0000 0.39000  0.87330  0.09200  Biso   1.000  C
  C264     1.0000 0.11000  0.12670  0.59200  Biso   1.000  C
  H301     1.0000 0.91490  0.62270  0.87560  Biso   1.000  H
  H302     1.0000 0.58510  0.37730  0.37560  Biso   1.000  H
  H303     1.0000 0.41490  0.87730  0.12440  Biso   1.000  H
  H304     1.0000 0.08510  0.12270  0.62440  Biso   1.000  H
  C265     1.0000 0.81160  0.63170  0.91060  Biso   1.000  C
  C266     1.0000 0.68840  0.36830  0.41060  Biso   1.000  C
  C267     1.0000 0.31160  0.86830  0.08940  Biso   1.000  C
  C268     1.0000 0.18840  0.13170  0.58940  Biso   1.000  C
  H305     1.0000 0.78060  0.63130  0.88040  Biso   1.000  H
  H306     1.0000 0.71940  0.36870  0.38040  Biso   1.000  H
  H307     1.0000 0.28060  0.86870  0.11960  Biso   1.000  H
  H308     1.0000 0.21940  0.13130  0.61960  Biso   1.000  H
  C269     1.0000 0.77500  0.63750  0.95790  Biso   1.000  C
  C270     1.0000 0.72500  0.36250  0.45790  Biso   1.000  C
  C271     1.0000 0.27500  0.86250  0.04210  Biso   1.000  C
  C272     1.0000 0.22500  0.13750  0.54210  Biso   1.000  C
  H309     1.0000 0.71910  0.64230  0.95990  Biso   1.000  H
  H310     1.0000 0.78090  0.35770  0.45990  Biso   1.000  H
  H311     1.0000 0.21910  0.85770  0.04010  Biso   1.000  H
  H312     1.0000 0.28090  0.14230  0.54010  Biso   1.000  H
  C273     1.0000 0.81800  0.63650  0.00000  Biso   1.000  C
  C274     1.0000 0.68200  0.36350  0.50000  Biso   1.000  C
  C275     1.0000 0.31800  0.86350  0.00000  Biso   1.000  C
  C276     1.0000 0.18200  0.13650  0.50000  Biso   1.000  C
  H313     1.0000 0.79120  0.64000  0.03180  Biso   1.000  H
  H314     1.0000 0.70880  0.36000  0.53180  Biso   1.000  H
  H315     1.0000 0.29120  0.86000  0.96820  Biso   1.000  H
  H316     1.0000 0.20880  0.14000  0.46820  Biso   1.000  H
  C277     1.0000 0.89900  0.63050  0.99960  Biso   1.000  C
  C278     1.0000 0.60100  0.36950  0.49960  Biso   1.000  C
  C279     1.0000 0.39900  0.86950  0.00040  Biso   1.000  C
  C280     1.0000 0.10100  0.13050  0.50040  Biso   1.000  C
  H317     1.0000 0.92900  0.62880  0.03010  Biso   1.000  H
  H318     1.0000 0.57100  0.37120  0.53010  Biso   1.000  H
  H319     1.0000 0.42900  0.87120  0.96990  Biso   1.000  H
  H320     1.0000 0.07100  0.12880  0.46990  Biso   1.000  H
  Cu1      1.0000 0.07580  0.79069  0.26604  Biso   1.000  Cu
  Cu2      1.0000 0.42420  0.20931  0.76604  Biso   1.000  Cu
  Cu3      1.0000 0.57580  0.70931  0.73396  Biso   1.000  Cu
  Cu4      1.0000 0.92420  0.29069  0.23396  Biso   1.000  Cu
  Cu5      1.0000 0.92805  0.69661  0.27553  Biso   1.000  Cu
  Cu6      1.0000 0.57195  0.30339  0.77553  Biso   1.000  Cu
  Cu7      1.0000 0.42805  0.80339  0.72447  Biso   1.000  Cu
  Cu8      1.0000 0.07195  0.19661  0.22447  Biso   1.000  Cu
  O33      1.0000 0.14840  0.85680  0.29890  Biso   1.000  O
  O34      1.0000 0.35160  0.14320  0.79890  Biso   1.000  O
  O35      1.0000 0.64840  0.64320  0.70110  Biso   1.000  O
  O36      1.0000 0.85160  0.35680  0.20110  Biso   1.000  O
  O37      1.0000 0.04960  0.85680  0.21720  Biso   1.000  O
  O38      1.0000 0.45040  0.14320  0.71720  Biso   1.000  O
  O39      1.0000 0.54960  0.64320  0.78280  Biso   1.000  O
  O40      1.0000 0.95040  0.35680  0.28280  Biso   1.000  O
  O41      1.0000 0.85140  0.61830  0.29890  Biso   1.000  O
  O42      1.0000 0.64860  0.38170  0.79890  Biso   1.000  O
  O43      1.0000 0.35140  0.88170  0.70110  Biso   1.000  O
  O44      1.0000 0.14860  0.11830  0.20110  Biso   1.000  O
  O45      1.0000 0.86190  0.72810  0.21780  Biso   1.000  O
  O46      1.0000 0.63810  0.27190  0.71780  Biso   1.000  O
  O47      1.0000 0.36190  0.77190  0.78220  Biso   1.000  O
  O48      1.0000 0.13810  0.22810  0.28220  Biso   1.000  O
  O49      1.0000 0.13820  0.52780  0.26970  Biso   1.000  O
  O50      1.0000 0.36180  0.47220  0.76970  Biso   1.000  O
  O51      1.0000 0.63820  0.97220  0.73030  Biso   1.000  O
  O52      1.0000 0.86180  0.02780  0.23030  Biso   1.000  O
  O53      1.0000 0.22720  0.47950  0.22370  Biso   1.000  O
  O54      1.0000 0.27280  0.52050  0.72370  Biso   1.000  O
  O55      1.0000 0.72720  0.02050  0.77630  Biso   1.000  O
  O56      1.0000 0.77280  0.97950  0.27630  Biso   1.000  O
  O57      1.0000 0.20700  0.44510  0.29940  Biso   1.000  O
  O58      1.0000 0.29300  0.55490  0.79940  Biso   1.000  O
  O59      1.0000 0.70700  0.05490  0.70060  Biso   1.000  O
  O60      1.0000 0.79300  0.94510  0.20060  Biso   1.000  O
  N17      1.0000 0.19000  0.48070  0.26400  Biso   1.000  N
  N18      1.0000 0.31000  0.51930  0.76400  Biso   1.000  N
  N19      1.0000 0.69000  0.01930  0.73600  Biso   1.000  N
  N20      1.0000 0.81000  0.98070  0.23600  Biso   1.000  N
  O61      1.0000 0.93590  0.51720  0.34820  Biso   1.000  O
  O62      1.0000 0.56410  0.48280  0.84820  Biso   1.000  O
  O63      1.0000 0.43590  0.98280  0.65180  Biso   1.000  O
  O64      1.0000 0.06410  0.01720  0.15180  Biso   1.000  O
  O65      1.0000 0.91660  0.44550  0.40520  Biso   1.000  O
  O66      1.0000 0.58340  0.55450  0.90520  Biso   1.000  O
  O67      1.0000 0.41660  0.05450  0.59480  Biso   1.000  O
  O68      1.0000 0.08340  0.94550  0.09480  Biso   1.000  O
  O69      1.0000 0.82400  0.47170  0.35680  Biso   1.000  O
  O70      1.0000 0.67600  0.52830  0.85680  Biso   1.000  O
  O71      1.0000 0.32400  0.02830  0.64320  Biso   1.000  O
  O72      1.0000 0.17600  0.97170  0.14320  Biso   1.000  O
  N21      1.0000 0.89050  0.47890  0.37140  Biso   1.000  N
  N22      1.0000 0.60950  0.52110  0.87140  Biso   1.000  N
  N23      1.0000 0.39050  0.02110  0.62860  Biso   1.000  N
  N24      1.0000 0.10950  0.97890  0.12860  Biso   1.000  N
  O73      1.0000 0.90980  0.43210  0.11870  Biso   1.000  O
  O74      1.0000 0.59020  0.56790  0.61870  Biso   1.000  O
  O75      1.0000 0.40980  0.06790  0.88130  Biso   1.000  O
  O76      1.0000 0.09020  0.93210  0.38130  Biso   1.000  O
  O77      1.0000 0.89870  0.52190  0.16080  Biso   1.000  O
  O78      1.0000 0.60130  0.47810  0.66080  Biso   1.000  O
  O79      1.0000 0.39870  0.97810  0.83920  Biso   1.000  O
  O80      1.0000 0.10130  0.02190  0.33920  Biso   1.000  O
  O81      1.0000 0.92650  0.52450  0.08240  Biso   1.000  O
  O82      1.0000 0.57350  0.47550  0.58240  Biso   1.000  O
  O83      1.0000 0.42650  0.97550  0.91760  Biso   1.000  O
  O84      1.0000 0.07350  0.02450  0.41760  Biso   1.000  O
  N25      1.0000 0.91020  0.49320  0.11940  Biso   1.000  N
  N26      1.0000 0.58980  0.50680  0.61940  Biso   1.000  N
  N27      1.0000 0.41020  0.00680  0.88060  Biso   1.000  N
  N28      1.0000 0.08980  0.99320  0.38060  Biso   1.000  N
  O85      1.0000 0.88200  0.61160  0.78500  Biso   1.000  O
  O86      1.0000 0.61800  0.38840  0.28500  Biso   1.000  O
  O87      1.0000 0.38200  0.88840  0.21500  Biso   1.000  O
  O88      1.0000 0.11800  0.11160  0.71500  Biso   1.000  O
  O89      1.0000 0.90920  0.51820  0.75580  Biso   1.000  O
  O90      1.0000 0.59080  0.48180  0.25580  Biso   1.000  O
  O91      1.0000 0.40920  0.98180  0.24420  Biso   1.000  O
  O92      1.0000 0.09080  0.01820  0.74420  Biso   1.000  O
  O93      1.0000 0.00100  0.57900  0.78420  Biso   1.000  O
  O94      1.0000 0.49900  0.42100  0.28420  Biso   1.000  O
  O95      1.0000 0.50100  0.92100  0.21580  Biso   1.000  O
  O96      1.0000 0.99900  0.07900  0.71580  Biso   1.000  O
  N29      1.0000 0.93300  0.56940  0.77470  Biso   1.000  N
  N30      1.0000 0.56700  0.43060  0.27470  Biso   1.000  N
  N31      1.0000 0.43300  0.93060  0.22530  Biso   1.000  N
  N32      1.0000 0.06700  0.06940  0.72530  Biso   1.000  N
  O97      1.0000 0.14010  0.15650  0.36790  Biso   1.000  O
  O98      1.0000 0.35990  0.84350  0.86790  Biso   1.000  O
  O99      1.0000 0.64010  0.34350  0.63210  Biso   1.000  O
  O100     1.0000 0.85990  0.65650  0.13210  Biso   1.000  O
  O101     1.0000 0.76960  0.43320  0.26300  Biso   1.000  O
  O102     1.0000 0.73040  0.56680  0.76300  Biso   1.000  O
  O103     1.0000 0.26960  0.06680  0.73700  Biso   1.000  O
  O104     1.0000 0.23040  0.93320  0.23700  Biso   1.000  O
  O105     1.0000 0.97150  0.47310  0.24390  Biso   1.000  O
  O106     1.0000 0.52850  0.52690  0.74390  Biso   1.000  O
  O107     1.0000 0.47150  0.02690  0.75610  Biso   1.000  O
  O108     1.0000 0.02850  0.97310  0.25610  Biso   1.000  O
  O109     1.0000 0.74400  0.57210  0.23090  Biso   1.000  O
  O110     1.0000 0.75600  0.42790  0.73090  Biso   1.000  O
  O111     1.0000 0.24400  0.92790  0.76910  Biso   1.000  O
  O112     1.0000 0.25600  0.07210  0.26910  Biso   1.000  O
