data_image0
_cell_length_a       20.842
_cell_length_b       17.342
_cell_length_c       25.184
_cell_angle_alpha    90
_cell_angle_beta     96.43
_cell_angle_gamma    90

_symmetry_space_group_name_H-M    "P 1"
_symmetry_int_tables_number       1

loop_
  _symmetry_equiv_pos_as_xyz
  'x, y, z'

loop_
  _atom_site_label
  _atom_site_occupancy
  _atom_site_fract_x
  _atom_site_fract_y
  _atom_site_fract_z
  _atom_site_thermal_displace_type
  _atom_site_B_iso_or_equiv
  _atom_site_type_symbol
  Au1      1.0000 0.04390  0.78773  0.23911  Biso   1.000  Au
  Au2      1.0000 0.95610  0.78773  0.76089  Biso   1.000  Au
  Au3      1.0000 0.54390  0.28773  0.73911  Biso   1.000  Au
  Au4      1.0000 0.45610  0.28773  0.26089  Biso   1.000  Au
  Au5      1.0000 0.90196  0.76233  0.24185  Biso   1.000  Au
  Au6      1.0000 0.09804  0.76233  0.75815  Biso   1.000  Au
  Au7      1.0000 0.40196  0.26233  0.74185  Biso   1.000  Au
  Au8      1.0000 0.59804  0.26233  0.25815  Biso   1.000  Au
  Pd1      1.0000 0.99396  0.78756  0.36313  Biso   1.000  Pd
  Pd2      1.0000 0.00604  0.78756  0.63687  Biso   1.000  Pd
  Pd3      1.0000 0.49396  0.28756  0.86313  Biso   1.000  Pd
  Pd4      1.0000 0.50604  0.28756  0.13687  Biso   1.000  Pd
  S1       1.0000 0.07313  0.84630  0.32164  Biso   1.000  S
  S2       1.0000 0.92687  0.84630  0.67836  Biso   1.000  S
  S3       1.0000 0.57313  0.34630  0.82164  Biso   1.000  S
  S4       1.0000 0.42687  0.34630  0.17836  Biso   1.000  S
  S5       1.0000 0.90607  0.84230  0.31593  Biso   1.000  S
  S6       1.0000 0.09393  0.84230  0.68407  Biso   1.000  S
  S7       1.0000 0.40607  0.34230  0.81593  Biso   1.000  S
  S8       1.0000 0.59393  0.34230  0.18407  Biso   1.000  S
  P1       1.0000 0.03510  0.71970  0.16162  Biso   1.000  P
  P2       1.0000 0.96490  0.71970  0.83838  Biso   1.000  P
  P3       1.0000 0.53510  0.21970  0.66162  Biso   1.000  P
  P4       1.0000 0.46490  0.21970  0.33838  Biso   1.000  P
  P5       1.0000 0.89190  0.69590  0.16347  Biso   1.000  P
  P6       1.0000 0.10810  0.69590  0.83653  Biso   1.000  P
  P7       1.0000 0.39190  0.19590  0.66347  Biso   1.000  P
  P8       1.0000 0.60810  0.19590  0.33653  Biso   1.000  P
  O1       1.0000 0.17360  0.65900  0.44580  Biso   1.000  O
  O2       1.0000 0.82640  0.65900  0.55420  Biso   1.000  O
  O3       1.0000 0.67360  0.15900  0.94580  Biso   1.000  O
  O4       1.0000 0.32640  0.15900  0.05420  Biso   1.000  O
  O5       1.0000 0.23140  0.76680  0.46760  Biso   1.000  O
  O6       1.0000 0.76860  0.76680  0.53240  Biso   1.000  O
  O7       1.0000 0.73140  0.26680  0.96760  Biso   1.000  O
  O8       1.0000 0.26860  0.26680  0.03240  Biso   1.000  O
  O9       1.0000 0.84240  0.63840  0.44670  Biso   1.000  O
  O10      1.0000 0.15760  0.63840  0.55330  Biso   1.000  O
  O11      1.0000 0.34240  0.13840  0.94670  Biso   1.000  O
  O12      1.0000 0.65760  0.13840  0.05330  Biso   1.000  O
  O13      1.0000 0.76630  0.72690  0.42760  Biso   1.000  O
  O14      1.0000 0.23370  0.72690  0.57240  Biso   1.000  O
  O15      1.0000 0.26630  0.22690  0.92760  Biso   1.000  O
  O16      1.0000 0.73370  0.22690  0.07240  Biso   1.000  O
  N1       1.0000 0.06880  0.74110  0.41340  Biso   1.000  N
  N2       1.0000 0.93120  0.74110  0.58660  Biso   1.000  N
  N3       1.0000 0.56880  0.24110  0.91340  Biso   1.000  N
  N4       1.0000 0.43120  0.24110  0.08660  Biso   1.000  N
  H1       1.0000 0.05960  0.74500  0.44700  Biso   1.000  H
  H2       1.0000 0.94040  0.74500  0.55300  Biso   1.000  H
  H3       1.0000 0.55960  0.24500  0.94700  Biso   1.000  H
  H4       1.0000 0.44040  0.24500  0.05300  Biso   1.000  H
  H5       1.0000 0.07250  0.69130  0.40590  Biso   1.000  H
  H6       1.0000 0.92750  0.69130  0.59410  Biso   1.000  H
  H7       1.0000 0.57250  0.19130  0.90590  Biso   1.000  H
  H8       1.0000 0.42750  0.19130  0.09410  Biso   1.000  H
  N5       1.0000 0.92830  0.72950  0.40200  Biso   1.000  N
  N6       1.0000 0.07170  0.72950  0.59800  Biso   1.000  N
  N7       1.0000 0.42830  0.22950  0.90200  Biso   1.000  N
  N8       1.0000 0.57170  0.22950  0.09800  Biso   1.000  N
  H9       1.0000 0.94160  0.68080  0.40580  Biso   1.000  H
  H10      1.0000 0.05840  0.68080  0.59420  Biso   1.000  H
  H11      1.0000 0.44160  0.18080  0.90580  Biso   1.000  H
  H12      1.0000 0.55840  0.18080  0.09420  Biso   1.000  H
  H13      1.0000 0.92940  0.74940  0.43470  Biso   1.000  H
  H14      1.0000 0.07060  0.74940  0.56530  Biso   1.000  H
  H15      1.0000 0.42940  0.24940  0.93470  Biso   1.000  H
  H16      1.0000 0.57060  0.24940  0.06530  Biso   1.000  H
  C1       1.0000 0.14350  0.78690  0.34970  Biso   1.000  C
  C2       1.0000 0.85650  0.78690  0.65030  Biso   1.000  C
  C3       1.0000 0.64350  0.28690  0.84970  Biso   1.000  C
  C4       1.0000 0.35650  0.28690  0.15030  Biso   1.000  C
  C5       1.0000 0.13060  0.77960  0.40860  Biso   1.000  C
  C6       1.0000 0.86940  0.77960  0.59140  Biso   1.000  C
  C7       1.0000 0.63060  0.27960  0.90860  Biso   1.000  C
  C8       1.0000 0.36940  0.27960  0.09140  Biso   1.000  C
  H17      1.0000 0.12970  0.83130  0.42430  Biso   1.000  H
  H18      1.0000 0.87030  0.83130  0.57570  Biso   1.000  H
  H19      1.0000 0.62970  0.33130  0.92430  Biso   1.000  H
  H20      1.0000 0.37030  0.33130  0.07570  Biso   1.000  H
  C9       1.0000 0.18370  0.72840  0.44390  Biso   1.000  C
  C10      1.0000 0.81630  0.72840  0.55610  Biso   1.000  C
  C11      1.0000 0.68370  0.22840  0.94390  Biso   1.000  C
  C12      1.0000 0.31630  0.22840  0.05610  Biso   1.000  C
  C13      1.0000 0.14580  0.70540  0.32500  Biso   1.000  C
  C14      1.0000 0.85420  0.70540  0.67500  Biso   1.000  C
  C15      1.0000 0.64580  0.20540  0.82500  Biso   1.000  C
  C16      1.0000 0.35420  0.20540  0.17500  Biso   1.000  C
  H21      1.0000 0.16590  0.70800  0.29260  Biso   1.000  H
  H22      1.0000 0.83410  0.70800  0.70740  Biso   1.000  H
  H23      1.0000 0.66590  0.20800  0.79260  Biso   1.000  H
  H24      1.0000 0.33410  0.20800  0.20740  Biso   1.000  H
  H25      1.0000 0.10270  0.68580  0.31740  Biso   1.000  H
  H26      1.0000 0.89730  0.68580  0.68260  Biso   1.000  H
  H27      1.0000 0.60270  0.18580  0.81740  Biso   1.000  H
  H28      1.0000 0.39730  0.18580  0.18260  Biso   1.000  H
  H29      1.0000 0.17030  0.67170  0.34990  Biso   1.000  H
  H30      1.0000 0.82970  0.67170  0.65010  Biso   1.000  H
  H31      1.0000 0.67030  0.17170  0.84990  Biso   1.000  H
  H32      1.0000 0.32970  0.17170  0.15010  Biso   1.000  H
  C17      1.0000 0.20220  0.82930  0.34370  Biso   1.000  C
  C18      1.0000 0.79780  0.82930  0.65630  Biso   1.000  C
  C19      1.0000 0.70220  0.32930  0.84370  Biso   1.000  C
  C20      1.0000 0.29780  0.32930  0.15630  Biso   1.000  C
  H33      1.0000 0.23880  0.80020  0.35910  Biso   1.000  H
  H34      1.0000 0.76120  0.80020  0.64090  Biso   1.000  H
  H35      1.0000 0.73880  0.30020  0.85910  Biso   1.000  H
  H36      1.0000 0.26120  0.30020  0.14090  Biso   1.000  H
  H37      1.0000 0.20110  0.87800  0.36150  Biso   1.000  H
  H38      1.0000 0.79890  0.87800  0.63850  Biso   1.000  H
  H39      1.0000 0.70110  0.37800  0.86150  Biso   1.000  H
  H40      1.0000 0.29890  0.37800  0.13850  Biso   1.000  H
  H41      1.0000 0.20550  0.83760  0.30640  Biso   1.000  H
  H42      1.0000 0.79450  0.83760  0.69360  Biso   1.000  H
  H43      1.0000 0.70550  0.33760  0.80640  Biso   1.000  H
  H44      1.0000 0.29450  0.33760  0.19360  Biso   1.000  H
  C21      1.0000 0.84210  0.81130  0.35960  Biso   1.000  C
  C22      1.0000 0.15790  0.81130  0.64040  Biso   1.000  C
  C23      1.0000 0.34210  0.31130  0.85960  Biso   1.000  C
  C24      1.0000 0.65790  0.31130  0.14040  Biso   1.000  C
  C25      1.0000 0.85970  0.72830  0.37810  Biso   1.000  C
  C26      1.0000 0.14030  0.72830  0.62190  Biso   1.000  C
  C27      1.0000 0.35970  0.22830  0.87810  Biso   1.000  C
  C28      1.0000 0.64030  0.22830  0.12190  Biso   1.000  C
  H45      1.0000 0.85520  0.69360  0.34720  Biso   1.000  H
  H46      1.0000 0.14480  0.69360  0.65280  Biso   1.000  H
  H47      1.0000 0.35520  0.19360  0.84720  Biso   1.000  H
  H48      1.0000 0.64480  0.19360  0.15280  Biso   1.000  H
  C29      1.0000 0.81980  0.69350  0.42460  Biso   1.000  C
  C30      1.0000 0.18020  0.69350  0.57540  Biso   1.000  C
  C31      1.0000 0.31980  0.19350  0.92460  Biso   1.000  C
  C32      1.0000 0.68020  0.19350  0.07540  Biso   1.000  C
  C33      1.0000 0.77830  0.81060  0.32390  Biso   1.000  C
  C34      1.0000 0.22170  0.81060  0.67610  Biso   1.000  C
  C35      1.0000 0.27830  0.31060  0.82390  Biso   1.000  C
  C36      1.0000 0.72170  0.31060  0.17610  Biso   1.000  C
  H49      1.0000 0.77530  0.76450  0.30280  Biso   1.000  H
  H50      1.0000 0.22470  0.76450  0.69720  Biso   1.000  H
  H51      1.0000 0.27530  0.26450  0.80280  Biso   1.000  H
  H52      1.0000 0.72470  0.26450  0.19720  Biso   1.000  H
  H53      1.0000 0.77600  0.85480  0.30080  Biso   1.000  H
  H54      1.0000 0.22400  0.85480  0.69920  Biso   1.000  H
  H55      1.0000 0.27600  0.35480  0.80080  Biso   1.000  H
  H56      1.0000 0.72400  0.35480  0.19920  Biso   1.000  H
  H57      1.0000 0.74330  0.81220  0.34570  Biso   1.000  H
  H58      1.0000 0.25670  0.81220  0.65430  Biso   1.000  H
  H59      1.0000 0.24330  0.31220  0.84570  Biso   1.000  H
  H60      1.0000 0.75670  0.31220  0.15430  Biso   1.000  H
  C37      1.0000 0.84750  0.86970  0.40350  Biso   1.000  C
  C38      1.0000 0.15250  0.86970  0.59650  Biso   1.000  C
  C39      1.0000 0.34750  0.36970  0.90350  Biso   1.000  C
  C40      1.0000 0.65250  0.36970  0.09650  Biso   1.000  C
  H61      1.0000 0.84710  0.92050  0.38850  Biso   1.000  H
  H62      1.0000 0.15290  0.92050  0.61150  Biso   1.000  H
  H63      1.0000 0.34710  0.42050  0.88850  Biso   1.000  H
  H64      1.0000 0.65290  0.42050  0.11150  Biso   1.000  H
  H65      1.0000 0.88710  0.86180  0.42620  Biso   1.000  H
  H66      1.0000 0.11290  0.86180  0.57380  Biso   1.000  H
  H67      1.0000 0.38710  0.36180  0.92620  Biso   1.000  H
  H68      1.0000 0.61290  0.36180  0.07380  Biso   1.000  H
  H69      1.0000 0.81170  0.86410  0.42410  Biso   1.000  H
  H70      1.0000 0.18830  0.86410  0.57590  Biso   1.000  H
  H71      1.0000 0.31170  0.36410  0.92410  Biso   1.000  H
  H72      1.0000 0.68830  0.36410  0.07590  Biso   1.000  H
  C41      1.0000 0.95650  0.72260  0.12290  Biso   1.000  C
  C42      1.0000 0.04350  0.72260  0.87710  Biso   1.000  C
  C43      1.0000 0.45650  0.22260  0.62290  Biso   1.000  C
  C44      1.0000 0.54350  0.22260  0.37710  Biso   1.000  C
  H73      1.0000 0.95610  0.68750  0.09290  Biso   1.000  H
  H74      1.0000 0.04390  0.68750  0.90710  Biso   1.000  H
  H75      1.0000 0.45610  0.18750  0.59290  Biso   1.000  H
  H76      1.0000 0.54390  0.18750  0.40710  Biso   1.000  H
  H77      1.0000 0.94860  0.77420  0.10880  Biso   1.000  H
  H78      1.0000 0.05140  0.77420  0.89120  Biso   1.000  H
  H79      1.0000 0.44860  0.27420  0.60880  Biso   1.000  H
  H80      1.0000 0.55140  0.27420  0.39120  Biso   1.000  H
  C45      1.0000 0.05410  0.61890  0.17370  Biso   1.000  C
  C46      1.0000 0.94590  0.61890  0.82630  Biso   1.000  C
  C47      1.0000 0.55410  0.11890  0.67370  Biso   1.000  C
  C48      1.0000 0.44590  0.11890  0.32630  Biso   1.000  C
  C49      1.0000 0.04700  0.58720  0.22270  Biso   1.000  C
  C50      1.0000 0.95300  0.58720  0.77730  Biso   1.000  C
  C51      1.0000 0.54700  0.08720  0.72270  Biso   1.000  C
  C52      1.0000 0.45300  0.08720  0.27730  Biso   1.000  C
  H81      1.0000 0.03620  0.61740  0.25090  Biso   1.000  H
  H82      1.0000 0.96380  0.61740  0.74910  Biso   1.000  H
  H83      1.0000 0.53620  0.11740  0.75090  Biso   1.000  H
  H84      1.0000 0.46380  0.11740  0.24910  Biso   1.000  H
  C53      1.0000 0.05680  0.50800  0.22860  Biso   1.000  C
  C54      1.0000 0.94320  0.50800  0.77140  Biso   1.000  C
  C55      1.0000 0.55680  0.00800  0.72860  Biso   1.000  C
  C56      1.0000 0.44320  0.00800  0.27140  Biso   1.000  C
  H85      1.0000 0.05180  0.48530  0.26130  Biso   1.000  H
  H86      1.0000 0.94820  0.48530  0.73870  Biso   1.000  H
  H87      1.0000 0.55180  0.98530  0.76130  Biso   1.000  H
  H88      1.0000 0.44820  0.98530  0.23870  Biso   1.000  H
  C57      1.0000 0.07200  0.46600  0.19120  Biso   1.000  C
  C58      1.0000 0.92800  0.46600  0.80880  Biso   1.000  C
  C59      1.0000 0.57200  0.96600  0.69120  Biso   1.000  C
  C60      1.0000 0.42800  0.96600  0.30880  Biso   1.000  C
  H89      1.0000 0.07770  0.41360  0.19770  Biso   1.000  H
  H90      1.0000 0.92230  0.41360  0.80230  Biso   1.000  H
  H91      1.0000 0.57770  0.91360  0.69770  Biso   1.000  H
  H92      1.0000 0.42230  0.91360  0.30230  Biso   1.000  H
  C61      1.0000 0.08080  0.49370  0.14090  Biso   1.000  C
  C62      1.0000 0.91920  0.49370  0.85910  Biso   1.000  C
  C63      1.0000 0.58080  0.99370  0.64090  Biso   1.000  C
  C64      1.0000 0.41920  0.99370  0.35910  Biso   1.000  C
  H93      1.0000 0.09390  0.46140  0.11470  Biso   1.000  H
  H94      1.0000 0.90610  0.46140  0.88530  Biso   1.000  H
  H95      1.0000 0.59390  0.96140  0.61470  Biso   1.000  H
  H96      1.0000 0.40610  0.96140  0.38530  Biso   1.000  H
  C65      1.0000 0.06870  0.57520  0.13090  Biso   1.000  C
  C66      1.0000 0.93130  0.57520  0.86910  Biso   1.000  C
  C67      1.0000 0.56870  0.07520  0.63090  Biso   1.000  C
  C68      1.0000 0.43130  0.07520  0.36910  Biso   1.000  C
  H97      1.0000 0.07080  0.59680  0.09740  Biso   1.000  H
  H98      1.0000 0.92920  0.59680  0.90260  Biso   1.000  H
  H99      1.0000 0.57080  0.09680  0.59740  Biso   1.000  H
  H100     1.0000 0.42920  0.09680  0.40260  Biso   1.000  H
  C69      1.0000 0.09280  0.75610  0.11840  Biso   1.000  C
  C70      1.0000 0.90720  0.75610  0.88160  Biso   1.000  C
  C71      1.0000 0.59280  0.25610  0.61840  Biso   1.000  C
  C72      1.0000 0.40720  0.25610  0.38160  Biso   1.000  C
  C73      1.0000 0.15380  0.76560  0.14100  Biso   1.000  C
  C74      1.0000 0.84620  0.76560  0.85900  Biso   1.000  C
  C75      1.0000 0.65380  0.26560  0.64100  Biso   1.000  C
  C76      1.0000 0.34620  0.26560  0.35900  Biso   1.000  C
  H101     1.0000 0.16480  0.74990  0.17620  Biso   1.000  H
  H102     1.0000 0.83520  0.74990  0.82380  Biso   1.000  H
  H103     1.0000 0.66480  0.24990  0.67620  Biso   1.000  H
  H104     1.0000 0.33520  0.24990  0.32380  Biso   1.000  H
  C77      1.0000 0.20150  0.79910  0.11280  Biso   1.000  C
  C78      1.0000 0.79850  0.79910  0.88720  Biso   1.000  C
  C79      1.0000 0.70150  0.29910  0.61280  Biso   1.000  C
  C80      1.0000 0.29850  0.29910  0.38720  Biso   1.000  C
  H105     1.0000 0.24400  0.80530  0.12780  Biso   1.000  H
  H106     1.0000 0.75600  0.80530  0.87220  Biso   1.000  H
  H107     1.0000 0.74400  0.30530  0.62780  Biso   1.000  H
  H108     1.0000 0.25600  0.30530  0.37220  Biso   1.000  H
  C81      1.0000 0.18040  0.82190  0.06110  Biso   1.000  C
  C82      1.0000 0.81960  0.82190  0.93890  Biso   1.000  C
  C83      1.0000 0.68040  0.32190  0.56110  Biso   1.000  C
  C84      1.0000 0.31960  0.32190  0.43890  Biso   1.000  C
  H109     1.0000 0.20820  0.84980  0.04200  Biso   1.000  H
  H110     1.0000 0.79180  0.84980  0.95800  Biso   1.000  H
  H111     1.0000 0.70820  0.34980  0.54200  Biso   1.000  H
  H112     1.0000 0.29180  0.34980  0.45800  Biso   1.000  H
  C85      1.0000 0.11790  0.80400  0.03670  Biso   1.000  C
  C86      1.0000 0.88210  0.80400  0.96330  Biso   1.000  C
  C87      1.0000 0.61790  0.30400  0.53670  Biso   1.000  C
  C88      1.0000 0.38210  0.30400  0.46330  Biso   1.000  C
  H113     1.0000 0.10780  0.80790  0.99990  Biso   1.000  H
  H114     1.0000 0.89220  0.80790  0.00010  Biso   1.000  H
  H115     1.0000 0.60780  0.30790  0.49990  Biso   1.000  H
  H116     1.0000 0.39220  0.30790  0.50010  Biso   1.000  H
  C89      1.0000 0.07260  0.78040  0.06850  Biso   1.000  C
  C90      1.0000 0.92740  0.78040  0.93150  Biso   1.000  C
  C91      1.0000 0.57260  0.28040  0.56850  Biso   1.000  C
  C92      1.0000 0.42740  0.28040  0.43150  Biso   1.000  C
  H117     1.0000 0.02880  0.78130  0.05600  Biso   1.000  H
  H118     1.0000 0.97120  0.78130  0.94400  Biso   1.000  H
  H119     1.0000 0.52880  0.28130  0.55600  Biso   1.000  H
  H120     1.0000 0.47120  0.28130  0.44400  Biso   1.000  H
  C93      1.0000 0.81710  0.72230  0.12050  Biso   1.000  C
  C94      1.0000 0.18290  0.72230  0.87950  Biso   1.000  C
  C95      1.0000 0.31710  0.22230  0.62050  Biso   1.000  C
  C96      1.0000 0.68290  0.22230  0.37950  Biso   1.000  C
  C97      1.0000 0.80850  0.71080  0.06720  Biso   1.000  C
  C98      1.0000 0.19150  0.71080  0.93280  Biso   1.000  C
  C99      1.0000 0.30850  0.21080  0.56720  Biso   1.000  C
  C100     1.0000 0.69150  0.21080  0.43280  Biso   1.000  C
  H121     1.0000 0.84150  0.68930  0.05010  Biso   1.000  H
  H122     1.0000 0.15850  0.68930  0.94990  Biso   1.000  H
  H123     1.0000 0.34150  0.18930  0.55010  Biso   1.000  H
  H124     1.0000 0.65850  0.18930  0.44990  Biso   1.000  H
  C101     1.0000 0.74960  0.73140  0.03740  Biso   1.000  C
  C102     1.0000 0.25040  0.73140  0.96260  Biso   1.000  C
  C103     1.0000 0.24960  0.23140  0.53740  Biso   1.000  C
  C104     1.0000 0.75040  0.23140  0.46260  Biso   1.000  C
  H125     1.0000 0.74270  0.72660  0.00050  Biso   1.000  H
  H126     1.0000 0.25730  0.72660  0.99950  Biso   1.000  H
  H127     1.0000 0.24270  0.22660  0.50050  Biso   1.000  H
  H128     1.0000 0.75730  0.22660  0.49950  Biso   1.000  H
  C105     1.0000 0.70390  0.75850  0.06660  Biso   1.000  C
  C106     1.0000 0.29610  0.75850  0.93340  Biso   1.000  C
  C107     1.0000 0.20390  0.25850  0.56660  Biso   1.000  C
  C108     1.0000 0.79610  0.25850  0.43340  Biso   1.000  C
  H129     1.0000 0.66370  0.76800  0.04780  Biso   1.000  H
  H130     1.0000 0.33630  0.76800  0.95220  Biso   1.000  H
  H131     1.0000 0.16370  0.26800  0.54780  Biso   1.000  H
  H132     1.0000 0.83630  0.26800  0.45220  Biso   1.000  H
  C109     1.0000 0.70870  0.77280  0.11630  Biso   1.000  C
  C110     1.0000 0.29130  0.77280  0.88370  Biso   1.000  C
  C111     1.0000 0.20870  0.27280  0.61630  Biso   1.000  C
  C112     1.0000 0.79130  0.27280  0.38370  Biso   1.000  C
  H133     1.0000 0.67480  0.79570  0.13160  Biso   1.000  H
  H134     1.0000 0.32520  0.79570  0.86840  Biso   1.000  H
  H135     1.0000 0.17480  0.29570  0.63160  Biso   1.000  H
  H136     1.0000 0.82520  0.29570  0.36840  Biso   1.000  H
  C113     1.0000 0.76680  0.75320  0.14790  Biso   1.000  C
  C114     1.0000 0.23320  0.75320  0.85210  Biso   1.000  C
  C115     1.0000 0.26680  0.25320  0.64790  Biso   1.000  C
  C116     1.0000 0.73320  0.25320  0.35210  Biso   1.000  C
  H137     1.0000 0.77180  0.76020  0.18470  Biso   1.000  H
  H138     1.0000 0.22820  0.76020  0.81530  Biso   1.000  H
  H139     1.0000 0.27180  0.26020  0.68470  Biso   1.000  H
  H140     1.0000 0.72820  0.26020  0.31530  Biso   1.000  H
  C117     1.0000 0.88860  0.59160  0.16860  Biso   1.000  C
  C118     1.0000 0.11140  0.59160  0.83140  Biso   1.000  C
  C119     1.0000 0.38860  0.09160  0.66860  Biso   1.000  C
  C120     1.0000 0.61140  0.09160  0.33140  Biso   1.000  C
  C121     1.0000 0.89600  0.54470  0.12520  Biso   1.000  C
  C122     1.0000 0.10400  0.54470  0.87480  Biso   1.000  C
  C123     1.0000 0.39600  0.04470  0.62520  Biso   1.000  C
  C124     1.0000 0.60400  0.04470  0.37480  Biso   1.000  C
  H141     1.0000 0.90670  0.56610  0.09350  Biso   1.000  H
  H142     1.0000 0.09330  0.56610  0.90650  Biso   1.000  H
  H143     1.0000 0.40670  0.06610  0.59350  Biso   1.000  H
  H144     1.0000 0.59330  0.06610  0.40650  Biso   1.000  H
  C125     1.0000 0.88760  0.46670  0.12930  Biso   1.000  C
  C126     1.0000 0.11240  0.46670  0.87070  Biso   1.000  C
  C127     1.0000 0.38760  0.96670  0.62930  Biso   1.000  C
  C128     1.0000 0.61240  0.96670  0.37070  Biso   1.000  C
  H145     1.0000 0.89360  0.43590  0.10000  Biso   1.000  H
  H146     1.0000 0.10640  0.43590  0.90000  Biso   1.000  H
  H147     1.0000 0.39360  0.93590  0.60000  Biso   1.000  H
  H148     1.0000 0.60640  0.93590  0.40000  Biso   1.000  H
  C129     1.0000 0.87070  0.43160  0.17490  Biso   1.000  C
  C130     1.0000 0.12930  0.43160  0.82510  Biso   1.000  C
  C131     1.0000 0.37070  0.93160  0.67490  Biso   1.000  C
  C132     1.0000 0.62930  0.93160  0.32510  Biso   1.000  C
  H149     1.0000 0.86310  0.37890  0.17600  Biso   1.000  H
  H150     1.0000 0.13690  0.37890  0.82400  Biso   1.000  H
  H151     1.0000 0.36310  0.87890  0.67600  Biso   1.000  H
  H152     1.0000 0.63690  0.87890  0.32400  Biso   1.000  H
  C133     1.0000 0.86570  0.47660  0.21740  Biso   1.000  C
  C134     1.0000 0.13430  0.47660  0.78260  Biso   1.000  C
  C135     1.0000 0.36570  0.97660  0.71740  Biso   1.000  C
  C136     1.0000 0.63430  0.97660  0.28260  Biso   1.000  C
  H153     1.0000 0.85700  0.45360  0.24930  Biso   1.000  H
  H154     1.0000 0.14300  0.45360  0.75070  Biso   1.000  H
  H155     1.0000 0.35700  0.95360  0.74930  Biso   1.000  H
  H156     1.0000 0.64300  0.95360  0.25070  Biso   1.000  H
  C137     1.0000 0.87340  0.56240  0.21580  Biso   1.000  C
  C138     1.0000 0.12660  0.56240  0.78420  Biso   1.000  C
  C139     1.0000 0.37340  0.06240  0.71580  Biso   1.000  C
  C140     1.0000 0.62660  0.06240  0.28420  Biso   1.000  C
  H157     1.0000 0.86830  0.59360  0.24510  Biso   1.000  H
  H158     1.0000 0.13170  0.59360  0.75490  Biso   1.000  H
  H159     1.0000 0.36830  0.09360  0.74510  Biso   1.000  H
  H160     1.0000 0.63170  0.09360  0.25490  Biso   1.000  H
  Au9      1.0000 0.61380  0.53908  0.77265  Biso   1.000  Au
  Au10     1.0000 0.38620  0.53908  0.22735  Biso   1.000  Au
  Au11     1.0000 0.11380  0.03908  0.27265  Biso   1.000  Au
  Au12     1.0000 0.88620  0.03908  0.72735  Biso   1.000  Au
  Au13     1.0000 0.46916  0.51119  0.76191  Biso   1.000  Au
  Au14     1.0000 0.53084  0.51119  0.23809  Biso   1.000  Au
  Au15     1.0000 0.96916  0.01119  0.26191  Biso   1.000  Au
  Au16     1.0000 0.03084  0.01119  0.73809  Biso   1.000  Au
  Pd5      1.0000 0.52599  0.51768  0.64297  Biso   1.000  Pd
  Pd6      1.0000 0.47401  0.51768  0.35703  Biso   1.000  Pd
  Pd7      1.0000 0.02599  0.01768  0.14297  Biso   1.000  Pd
  Pd8      1.0000 0.97401  0.01768  0.85703  Biso   1.000  Pd
  S9       1.0000 0.62158  0.48060  0.68992  Biso   1.000  S
  S10      1.0000 0.37842  0.48060  0.31008  Biso   1.000  S
  S11      1.0000 0.12158  0.98060  0.18992  Biso   1.000  S
  S12      1.0000 0.87842  0.98060  0.81008  Biso   1.000  S
  S13      1.0000 0.45732  0.44000  0.68377  Biso   1.000  S
  S14      1.0000 0.54268  0.44000  0.31623  Biso   1.000  S
  S15      1.0000 0.95732  0.94000  0.18377  Biso   1.000  S
  S16      1.0000 0.04268  0.94000  0.81623  Biso   1.000  S
  P9       1.0000 0.61680  0.59480  0.85510  Biso   1.000  P
  P10      1.0000 0.38320  0.59480  0.14490  Biso   1.000  P
  P11      1.0000 0.11680  0.09480  0.35510  Biso   1.000  P
  P12      1.0000 0.88320  0.09480  0.64490  Biso   1.000  P
  P13      1.0000 0.47110  0.58600  0.83597  Biso   1.000  P
  P14      1.0000 0.52890  0.58600  0.16403  Biso   1.000  P
  P15      1.0000 0.97110  0.08600  0.33597  Biso   1.000  P
  P16      1.0000 0.02890  0.08600  0.66403  Biso   1.000  P
  O17      1.0000 0.73130  0.54610  0.54250  Biso   1.000  O
  O18      1.0000 0.26870  0.54610  0.45750  Biso   1.000  O
  O19      1.0000 0.23130  0.04610  0.04250  Biso   1.000  O
  O20      1.0000 0.76870  0.04610  0.95750  Biso   1.000  O
  O21      1.0000 0.67400  0.65260  0.54600  Biso   1.000  O
  O22      1.0000 0.32600  0.65260  0.45400  Biso   1.000  O
  O23      1.0000 0.17400  0.15260  0.04600  Biso   1.000  O
  O24      1.0000 0.82600  0.15260  0.95400  Biso   1.000  O
  O25      1.0000 0.28040  0.55690  0.57380  Biso   1.000  O
  O26      1.0000 0.71960  0.55690  0.42620  Biso   1.000  O
  O27      1.0000 0.78040  0.05690  0.07380  Biso   1.000  O
  O28      1.0000 0.21960  0.05690  0.92620  Biso   1.000  O
  O29      1.0000 0.34400  0.63940  0.56230  Biso   1.000  O
  O30      1.0000 0.65600  0.63940  0.43770  Biso   1.000  O
  O31      1.0000 0.84400  0.13940  0.06230  Biso   1.000  O
  O32      1.0000 0.15600  0.13940  0.93770  Biso   1.000  O
  O33      1.0000 0.86430  0.50910  0.52760  Biso   1.000  O
  O34      1.0000 0.13570  0.50910  0.47240  Biso   1.000  O
  O35      1.0000 0.36430  0.00910  0.02760  Biso   1.000  O
  O36      1.0000 0.63570  0.00910  0.97240  Biso   1.000  O
  N9       1.0000 0.58290  0.58070  0.59520  Biso   1.000  N
  N10      1.0000 0.41710  0.58070  0.40480  Biso   1.000  N
  N11      1.0000 0.08290  0.08070  0.09520  Biso   1.000  N
  N12      1.0000 0.91710  0.08070  0.90480  Biso   1.000  N
  H161     1.0000 0.56400  0.58280  0.56170  Biso   1.000  H
  H162     1.0000 0.43600  0.58280  0.43830  Biso   1.000  H
  H163     1.0000 0.06400  0.08280  0.06170  Biso   1.000  H
  H164     1.0000 0.93600  0.08280  0.93830  Biso   1.000  H
  H165     1.0000 0.58820  0.62870  0.60750  Biso   1.000  H
  H166     1.0000 0.41180  0.62870  0.39250  Biso   1.000  H
  H167     1.0000 0.08820  0.12870  0.10750  Biso   1.000  H
  H168     1.0000 0.91180  0.12870  0.89250  Biso   1.000  H
  N13      1.0000 0.44480  0.56110  0.60160  Biso   1.000  N
  N14      1.0000 0.55520  0.56110  0.39840  Biso   1.000  N
  N15      1.0000 0.94480  0.06110  0.10160  Biso   1.000  N
  N16      1.0000 0.05520  0.06110  0.89840  Biso   1.000  N
  H169     1.0000 0.45140  0.61080  0.59550  Biso   1.000  H
  H170     1.0000 0.54860  0.61080  0.40450  Biso   1.000  H
  H171     1.0000 0.95140  0.11080  0.09550  Biso   1.000  H
  H172     1.0000 0.04860  0.11080  0.90450  Biso   1.000  H
  H173     1.0000 0.43890  0.53750  0.57000  Biso   1.000  H
  H174     1.0000 0.56110  0.53750  0.43000  Biso   1.000  H
  H175     1.0000 0.93890  0.03750  0.07000  Biso   1.000  H
  H176     1.0000 0.06110  0.03750  0.93000  Biso   1.000  H
  C141     1.0000 0.67840  0.54520  0.65540  Biso   1.000  C
  C142     1.0000 0.32160  0.54520  0.34460  Biso   1.000  C
  C143     1.0000 0.17840  0.04520  0.15540  Biso   1.000  C
  C144     1.0000 0.82160  0.04520  0.84460  Biso   1.000  C
  C145     1.0000 0.64560  0.54180  0.59680  Biso   1.000  C
  C146     1.0000 0.35440  0.54180  0.40320  Biso   1.000  C
  C147     1.0000 0.14560  0.04180  0.09680  Biso   1.000  C
  C148     1.0000 0.85440  0.04180  0.90320  Biso   1.000  C
  H177     1.0000 0.63980  0.48810  0.58510  Biso   1.000  H
  H178     1.0000 0.36020  0.48810  0.41490  Biso   1.000  H
  H179     1.0000 0.13980  0.98810  0.08510  Biso   1.000  H
  H180     1.0000 0.86020  0.98810  0.91490  Biso   1.000  H
  C149     1.0000 0.68790  0.58680  0.55900  Biso   1.000  C
  C150     1.0000 0.31210  0.58680  0.44100  Biso   1.000  C
  C151     1.0000 0.18790  0.08680  0.05900  Biso   1.000  C
  C152     1.0000 0.81210  0.08680  0.94100  Biso   1.000  C
  C153     1.0000 0.68290  0.62340  0.67990  Biso   1.000  C
  C154     1.0000 0.31710  0.62340  0.32010  Biso   1.000  C
  C155     1.0000 0.18290  0.12340  0.17990  Biso   1.000  C
  C156     1.0000 0.81710  0.12340  0.82010  Biso   1.000  C
  H181     1.0000 0.70840  0.62090  0.71410  Biso   1.000  H
  H182     1.0000 0.29160  0.62090  0.28590  Biso   1.000  H
  H183     1.0000 0.20840  0.12090  0.21410  Biso   1.000  H
  H184     1.0000 0.79160  0.12090  0.78590  Biso   1.000  H
  H185     1.0000 0.64030  0.64160  0.68450  Biso   1.000  H
  H186     1.0000 0.35970  0.64160  0.31550  Biso   1.000  H
  H187     1.0000 0.14030  0.14160  0.18450  Biso   1.000  H
  H188     1.0000 0.85970  0.14160  0.81550  Biso   1.000  H
  H189     1.0000 0.70280  0.65810  0.65700  Biso   1.000  H
  H190     1.0000 0.29720  0.65810  0.34300  Biso   1.000  H
  H191     1.0000 0.20280  0.15810  0.15700  Biso   1.000  H
  H192     1.0000 0.79720  0.15810  0.84300  Biso   1.000  H
  C157     1.0000 0.74390  0.50830  0.66280  Biso   1.000  C
  C158     1.0000 0.25610  0.50830  0.33720  Biso   1.000  C
  C159     1.0000 0.24390  0.00830  0.16280  Biso   1.000  C
  C160     1.0000 0.75610  0.00830  0.83720  Biso   1.000  C
  H193     1.0000 0.77420  0.54020  0.64680  Biso   1.000  H
  H194     1.0000 0.22580  0.54020  0.35320  Biso   1.000  H
  H195     1.0000 0.27420  0.04020  0.14680  Biso   1.000  H
  H196     1.0000 0.72580  0.04020  0.85320  Biso   1.000  H
  H197     1.0000 0.74180  0.45850  0.64610  Biso   1.000  H
  H198     1.0000 0.25820  0.45850  0.35390  Biso   1.000  H
  H199     1.0000 0.24180  0.95850  0.14610  Biso   1.000  H
  H200     1.0000 0.75820  0.95850  0.85390  Biso   1.000  H
  H201     1.0000 0.75780  0.50270  0.70030  Biso   1.000  H
  H202     1.0000 0.24220  0.50270  0.29970  Biso   1.000  H
  H203     1.0000 0.25780  0.00270  0.20030  Biso   1.000  H
  H204     1.0000 0.74220  0.00270  0.79970  Biso   1.000  H
  C161     1.0000 0.37870  0.47250  0.64910  Biso   1.000  C
  C162     1.0000 0.62130  0.47250  0.35090  Biso   1.000  C
  C163     1.0000 0.87870  0.97250  0.14910  Biso   1.000  C
  C164     1.0000 0.12130  0.97250  0.85090  Biso   1.000  C
  C165     1.0000 0.38460  0.55390  0.62720  Biso   1.000  C
  C166     1.0000 0.61540  0.55390  0.37280  Biso   1.000  C
  C167     1.0000 0.88460  0.05390  0.12720  Biso   1.000  C
  C168     1.0000 0.11540  0.05390  0.87280  Biso   1.000  C
  H205     1.0000 0.38920  0.58840  0.65820  Biso   1.000  H
  H206     1.0000 0.61080  0.58840  0.34180  Biso   1.000  H
  H207     1.0000 0.88920  0.08840  0.15820  Biso   1.000  H
  H208     1.0000 0.11080  0.08840  0.84180  Biso   1.000  H
  C169     1.0000 0.33130  0.59080  0.58550  Biso   1.000  C
  C170     1.0000 0.66870  0.59080  0.41450  Biso   1.000  C
  C171     1.0000 0.83130  0.09080  0.08550  Biso   1.000  C
  C172     1.0000 0.16870  0.09080  0.91450  Biso   1.000  C
  C173     1.0000 0.32460  0.45700  0.68410  Biso   1.000  C
  C174     1.0000 0.67540  0.45700  0.31590  Biso   1.000  C
  C175     1.0000 0.82460  0.95700  0.18410  Biso   1.000  C
  C176     1.0000 0.17540  0.95700  0.81590  Biso   1.000  C
  H209     1.0000 0.31990  0.50070  0.70680  Biso   1.000  H
  H210     1.0000 0.68010  0.50070  0.29320  Biso   1.000  H
  H211     1.0000 0.81990  0.00070  0.20680  Biso   1.000  H
  H212     1.0000 0.18010  0.00070  0.79320  Biso   1.000  H
  H213     1.0000 0.33500  0.41220  0.70570  Biso   1.000  H
  H214     1.0000 0.66500  0.41220  0.29430  Biso   1.000  H
  H215     1.0000 0.83500  0.91220  0.20570  Biso   1.000  H
  H216     1.0000 0.16500  0.91220  0.79430  Biso   1.000  H
  H217     1.0000 0.28480  0.44840  0.66170  Biso   1.000  H
  H218     1.0000 0.71520  0.44840  0.33830  Biso   1.000  H
  H219     1.0000 0.78480  0.94840  0.16170  Biso   1.000  H
  H220     1.0000 0.21520  0.94840  0.83830  Biso   1.000  H
  C177     1.0000 0.36630  0.41600  0.59980  Biso   1.000  C
  C178     1.0000 0.63370  0.41600  0.40020  Biso   1.000  C
  C179     1.0000 0.86630  0.91600  0.09980  Biso   1.000  C
  C180     1.0000 0.13370  0.91600  0.90020  Biso   1.000  C
  H221     1.0000 0.33420  0.43770  0.57380  Biso   1.000  H
  H222     1.0000 0.66580  0.43770  0.42620  Biso   1.000  H
  H223     1.0000 0.83420  0.93770  0.07380  Biso   1.000  H
  H224     1.0000 0.16580  0.93770  0.92620  Biso   1.000  H
  H225     1.0000 0.35150  0.36720  0.61160  Biso   1.000  H
  H226     1.0000 0.64850  0.36720  0.38840  Biso   1.000  H
  H227     1.0000 0.85150  0.86720  0.11160  Biso   1.000  H
  H228     1.0000 0.14850  0.86720  0.88840  Biso   1.000  H
  H229     1.0000 0.40580  0.40880  0.58400  Biso   1.000  H
  H230     1.0000 0.59420  0.40880  0.41600  Biso   1.000  H
  H231     1.0000 0.90580  0.90880  0.08400  Biso   1.000  H
  H232     1.0000 0.09420  0.90880  0.91600  Biso   1.000  H
  C181     1.0000 0.53970  0.57430  0.88440  Biso   1.000  C
  C182     1.0000 0.46030  0.57430  0.11560  Biso   1.000  C
  C183     1.0000 0.03970  0.07430  0.38440  Biso   1.000  C
  C184     1.0000 0.96030  0.07430  0.61560  Biso   1.000  C
  H233     1.0000 0.54060  0.52200  0.89800  Biso   1.000  H
  H234     1.0000 0.45940  0.52200  0.10200  Biso   1.000  H
  H235     1.0000 0.04060  0.02200  0.39800  Biso   1.000  H
  H236     1.0000 0.95940  0.02200  0.60200  Biso   1.000  H
  H237     1.0000 0.53600  0.60900  0.91410  Biso   1.000  H
  H238     1.0000 0.46400  0.60900  0.08590  Biso   1.000  H
  H239     1.0000 0.03600  0.10900  0.41410  Biso   1.000  H
  H240     1.0000 0.96400  0.10900  0.58590  Biso   1.000  H
  C185     1.0000 0.62300  0.69940  0.85650  Biso   1.000  C
  C186     1.0000 0.37700  0.69940  0.14350  Biso   1.000  C
  C187     1.0000 0.12300  0.19940  0.35650  Biso   1.000  C
  C188     1.0000 0.87700  0.19940  0.64350  Biso   1.000  C
  C189     1.0000 0.62880  0.74070  0.81110  Biso   1.000  C
  C190     1.0000 0.37120  0.74070  0.18890  Biso   1.000  C
  C191     1.0000 0.12880  0.24070  0.31110  Biso   1.000  C
  C192     1.0000 0.87120  0.24070  0.68890  Biso   1.000  C
  H241     1.0000 0.62940  0.71550  0.77850  Biso   1.000  H
  H242     1.0000 0.37060  0.71550  0.22150  Biso   1.000  H
  H243     1.0000 0.12940  0.21550  0.27850  Biso   1.000  H
  H244     1.0000 0.87060  0.21550  0.72150  Biso   1.000  H
  C193     1.0000 0.63400  0.82230  0.81380  Biso   1.000  C
  C194     1.0000 0.36600  0.82230  0.18620  Biso   1.000  C
  C195     1.0000 0.13400  0.32230  0.31380  Biso   1.000  C
  C196     1.0000 0.86600  0.32230  0.68620  Biso   1.000  C
  H245     1.0000 0.63970  0.85050  0.78330  Biso   1.000  H
  H246     1.0000 0.36030  0.85050  0.21670  Biso   1.000  H
  H247     1.0000 0.13970  0.35050  0.28330  Biso   1.000  H
  H248     1.0000 0.86030  0.35050  0.71670  Biso   1.000  H
  C197     1.0000 0.63060  0.86000  0.86210  Biso   1.000  C
  C198     1.0000 0.36940  0.86000  0.13790  Biso   1.000  C
  C199     1.0000 0.13060  0.36000  0.36210  Biso   1.000  C
  C200     1.0000 0.86940  0.36000  0.63790  Biso   1.000  C
  H249     1.0000 0.63120  0.91360  0.86380  Biso   1.000  H
  H250     1.0000 0.36880  0.91360  0.13620  Biso   1.000  H
  H251     1.0000 0.13120  0.41360  0.36380  Biso   1.000  H
  H252     1.0000 0.86880  0.41360  0.63620  Biso   1.000  H
  C201     1.0000 0.62640  0.81730  0.90680  Biso   1.000  C
  C202     1.0000 0.37360  0.81730  0.09320  Biso   1.000  C
  C203     1.0000 0.12640  0.31730  0.40680  Biso   1.000  C
  C204     1.0000 0.87360  0.31730  0.59320  Biso   1.000  C
  H253     1.0000 0.62540  0.84250  0.93930  Biso   1.000  H
  H254     1.0000 0.37460  0.84250  0.06070  Biso   1.000  H
  H255     1.0000 0.12540  0.34250  0.43930  Biso   1.000  H
  H256     1.0000 0.87460  0.34250  0.56070  Biso   1.000  H
  C205     1.0000 0.62360  0.73590  0.90590  Biso   1.000  C
  C206     1.0000 0.37640  0.73590  0.09410  Biso   1.000  C
  C207     1.0000 0.12360  0.23590  0.40590  Biso   1.000  C
  C208     1.0000 0.87640  0.23590  0.59410  Biso   1.000  C
  H257     1.0000 0.62220  0.70760  0.93710  Biso   1.000  H
  H258     1.0000 0.37780  0.70760  0.06290  Biso   1.000  H
  H259     1.0000 0.12220  0.20760  0.43710  Biso   1.000  H
  H260     1.0000 0.87780  0.20760  0.56290  Biso   1.000  H
  C209     1.0000 0.68280  0.55990  0.90070  Biso   1.000  C
  C210     1.0000 0.31720  0.55990  0.09930  Biso   1.000  C
  C211     1.0000 0.18280  0.05990  0.40070  Biso   1.000  C
  C212     1.0000 0.81720  0.05990  0.59930  Biso   1.000  C
  C213     1.0000 0.73850  0.60420  0.91180  Biso   1.000  C
  C214     1.0000 0.26150  0.60420  0.08820  Biso   1.000  C
  C215     1.0000 0.23850  0.10420  0.41180  Biso   1.000  C
  C216     1.0000 0.76150  0.10420  0.58820  Biso   1.000  C
  H261     1.0000 0.73920  0.65370  0.89760  Biso   1.000  H
  H262     1.0000 0.26080  0.65370  0.10240  Biso   1.000  H
  H263     1.0000 0.23920  0.15370  0.39760  Biso   1.000  H
  H264     1.0000 0.76080  0.15370  0.60240  Biso   1.000  H
  C217     1.0000 0.79290  0.57760  0.94320  Biso   1.000  C
  C218     1.0000 0.20710  0.57760  0.05680  Biso   1.000  C
  C219     1.0000 0.29290  0.07760  0.44320  Biso   1.000  C
  C220     1.0000 0.70710  0.07760  0.55680  Biso   1.000  C
  H265     1.0000 0.83050  0.60680  0.94830  Biso   1.000  H
  H266     1.0000 0.16950  0.60680  0.05170  Biso   1.000  H
  H267     1.0000 0.33050  0.10680  0.44830  Biso   1.000  H
  H268     1.0000 0.66950  0.10680  0.55170  Biso   1.000  H
  C221     1.0000 0.78940  0.50900  0.96570  Biso   1.000  C
  C222     1.0000 0.21060  0.50900  0.03430  Biso   1.000  C
  C223     1.0000 0.28940  0.00900  0.46570  Biso   1.000  C
  C224     1.0000 0.71060  0.00900  0.53430  Biso   1.000  C
  H269     1.0000 0.82540  0.49080  0.98710  Biso   1.000  H
  H270     1.0000 0.17460  0.49080  0.01290  Biso   1.000  H
  H271     1.0000 0.32540  0.99080  0.48710  Biso   1.000  H
  H272     1.0000 0.67460  0.99080  0.51290  Biso   1.000  H
  C225     1.0000 0.73420  0.46350  0.95880  Biso   1.000  C
  C226     1.0000 0.26580  0.46350  0.04120  Biso   1.000  C
  C227     1.0000 0.23420  0.96350  0.45880  Biso   1.000  C
  C228     1.0000 0.76580  0.96350  0.54120  Biso   1.000  C
  H273     1.0000 0.73240  0.41570  0.97530  Biso   1.000  H
  H274     1.0000 0.26760  0.41570  0.02470  Biso   1.000  H
  H275     1.0000 0.23240  0.91570  0.47530  Biso   1.000  H
  H276     1.0000 0.76760  0.91570  0.52470  Biso   1.000  H
  C229     1.0000 0.68370  0.49180  0.92700  Biso   1.000  C
  C230     1.0000 0.31630  0.49180  0.07300  Biso   1.000  C
  C231     1.0000 0.18370  0.99180  0.42700  Biso   1.000  C
  C232     1.0000 0.81630  0.99180  0.57300  Biso   1.000  C
  H277     1.0000 0.64630  0.46220  0.92270  Biso   1.000  H
  H278     1.0000 0.35370  0.46220  0.07730  Biso   1.000  H
  H279     1.0000 0.14630  0.96220  0.42270  Biso   1.000  H
  H280     1.0000 0.85370  0.96220  0.57730  Biso   1.000  H
  C233     1.0000 0.39960  0.57090  0.86930  Biso   1.000  C
  C234     1.0000 0.60040  0.57090  0.13070  Biso   1.000  C
  C235     1.0000 0.89960  0.07090  0.36930  Biso   1.000  C
  C236     1.0000 0.10040  0.07090  0.63070  Biso   1.000  C
  C237     1.0000 0.39980  0.57410  0.92540  Biso   1.000  C
  C238     1.0000 0.60020  0.57410  0.07460  Biso   1.000  C
  C239     1.0000 0.89980  0.07410  0.42540  Biso   1.000  C
  C240     1.0000 0.10020  0.07410  0.57460  Biso   1.000  C
  H281     1.0000 0.43890  0.58230  0.94640  Biso   1.000  H
  H282     1.0000 0.56110  0.58230  0.05360  Biso   1.000  H
  H283     1.0000 0.93890  0.08230  0.44640  Biso   1.000  H
  H284     1.0000 0.06110  0.08230  0.55360  Biso   1.000  H
  C241     1.0000 0.34690  0.56590  0.94950  Biso   1.000  C
  C242     1.0000 0.65310  0.56590  0.05050  Biso   1.000  C
  C243     1.0000 0.84690  0.06590  0.44950  Biso   1.000  C
  C244     1.0000 0.15310  0.06590  0.55050  Biso   1.000  C
  H285     1.0000 0.34940  0.56550  0.98660  Biso   1.000  H
  H286     1.0000 0.65060  0.56550  0.01340  Biso   1.000  H
  H287     1.0000 0.84940  0.06550  0.48660  Biso   1.000  H
  H288     1.0000 0.15060  0.06550  0.51340  Biso   1.000  H
  C245     1.0000 0.29130  0.55830  0.92080  Biso   1.000  C
  C246     1.0000 0.70870  0.55830  0.07920  Biso   1.000  C
  C247     1.0000 0.79130  0.05830  0.42080  Biso   1.000  C
  C248     1.0000 0.20870  0.05830  0.57920  Biso   1.000  C
  H289     1.0000 0.25440  0.55170  0.93790  Biso   1.000  H
  H290     1.0000 0.74560  0.55170  0.06210  Biso   1.000  H
  H291     1.0000 0.75440  0.05170  0.43790  Biso   1.000  H
  H292     1.0000 0.24560  0.05170  0.56210  Biso   1.000  H
  C249     1.0000 0.28580  0.56000  0.86580  Biso   1.000  C
  C250     1.0000 0.71420  0.56000  0.13420  Biso   1.000  C
  C251     1.0000 0.78580  0.06000  0.36580  Biso   1.000  C
  C252     1.0000 0.21420  0.06000  0.63420  Biso   1.000  C
  H293     1.0000 0.24550  0.55530  0.84600  Biso   1.000  H
  H294     1.0000 0.75450  0.55530  0.15400  Biso   1.000  H
  H295     1.0000 0.74550  0.05530  0.34600  Biso   1.000  H
  H296     1.0000 0.25450  0.05530  0.65400  Biso   1.000  H
  C253     1.0000 0.34320  0.56900  0.83920  Biso   1.000  C
  C254     1.0000 0.65680  0.56900  0.16080  Biso   1.000  C
  C255     1.0000 0.84320  0.06900  0.33920  Biso   1.000  C
  C256     1.0000 0.15680  0.06900  0.66080  Biso   1.000  C
  H297     1.0000 0.34070  0.57340  0.80220  Biso   1.000  H
  H298     1.0000 0.65930  0.57340  0.19780  Biso   1.000  H
  H299     1.0000 0.84070  0.07340  0.30220  Biso   1.000  H
  H300     1.0000 0.15930  0.07340  0.69780  Biso   1.000  H
  C257     1.0000 0.46700  0.68920  0.81750  Biso   1.000  C
  C258     1.0000 0.53300  0.68920  0.18250  Biso   1.000  C
  C259     1.0000 0.96700  0.18920  0.31750  Biso   1.000  C
  C260     1.0000 0.03300  0.18920  0.68250  Biso   1.000  C
  C261     1.0000 0.46110  0.74040  0.85830  Biso   1.000  C
  C262     1.0000 0.53890  0.74040  0.14170  Biso   1.000  C
  C263     1.0000 0.96110  0.24040  0.35830  Biso   1.000  C
  C264     1.0000 0.03890  0.24040  0.64170  Biso   1.000  C
  H301     1.0000 0.45900  0.72380  0.89320  Biso   1.000  H
  H302     1.0000 0.54100  0.72380  0.10680  Biso   1.000  H
  H303     1.0000 0.95900  0.22380  0.39320  Biso   1.000  H
  H304     1.0000 0.04100  0.22380  0.60680  Biso   1.000  H
  C265     1.0000 0.45820  0.82140  0.84430  Biso   1.000  C
  C266     1.0000 0.54180  0.82140  0.15570  Biso   1.000  C
  C267     1.0000 0.95820  0.32140  0.34430  Biso   1.000  C
  C268     1.0000 0.04180  0.32140  0.65570  Biso   1.000  C
  H305     1.0000 0.45350  0.85820  0.87050  Biso   1.000  H
  H306     1.0000 0.54650  0.85820  0.12950  Biso   1.000  H
  H307     1.0000 0.95350  0.35820  0.37050  Biso   1.000  H
  H308     1.0000 0.04650  0.35820  0.62950  Biso   1.000  H
  C269     1.0000 0.46250  0.84460  0.79200  Biso   1.000  C
  C270     1.0000 0.53750  0.84460  0.20800  Biso   1.000  C
  C271     1.0000 0.96250  0.34460  0.29200  Biso   1.000  C
  C272     1.0000 0.03750  0.34460  0.70800  Biso   1.000  C
  H309     1.0000 0.46330  0.89670  0.78310  Biso   1.000  H
  H310     1.0000 0.53670  0.89670  0.21690  Biso   1.000  H
  H311     1.0000 0.96330  0.39670  0.28310  Biso   1.000  H
  H312     1.0000 0.03670  0.39670  0.71690  Biso   1.000  H
  C273     1.0000 0.46570  0.78660  0.75210  Biso   1.000  C
  C274     1.0000 0.53430  0.78660  0.24790  Biso   1.000  C
  C275     1.0000 0.96570  0.28660  0.25210  Biso   1.000  C
  C276     1.0000 0.03430  0.28660  0.74790  Biso   1.000  C
  H313     1.0000 0.46390  0.80180  0.71660  Biso   1.000  H
  H314     1.0000 0.53610  0.80180  0.28340  Biso   1.000  H
  H315     1.0000 0.96390  0.30180  0.21660  Biso   1.000  H
  H316     1.0000 0.03610  0.30180  0.78340  Biso   1.000  H
  C277     1.0000 0.47130  0.70840  0.76400  Biso   1.000  C
  C278     1.0000 0.52870  0.70840  0.23600  Biso   1.000  C
  C279     1.0000 0.97130  0.20840  0.26400  Biso   1.000  C
  C280     1.0000 0.02870  0.20840  0.73600  Biso   1.000  C
  H317     1.0000 0.47750  0.67150  0.73830  Biso   1.000  H
  H318     1.0000 0.52250  0.67150  0.26170  Biso   1.000  H
  H319     1.0000 0.97750  0.17150  0.23830  Biso   1.000  H
  H320     1.0000 0.02250  0.17150  0.76170  Biso   1.000  H
  Cu1      1.0000 0.79260  0.58500  0.49697  Biso   1.000  Cu
  Cu2      1.0000 0.20740  0.58500  0.50303  Biso   1.000  Cu
  Cu3      1.0000 0.29260  0.08500  0.99697  Biso   1.000  Cu
  Cu4      1.0000 0.70740  0.08500  0.00303  Biso   1.000  Cu
  Cu5      1.0000 0.70963  0.70550  0.48447  Biso   1.000  Cu
  Cu6      1.0000 0.29037  0.70550  0.51553  Biso   1.000  Cu
  Cu7      1.0000 0.20963  0.20550  0.98447  Biso   1.000  Cu
  Cu8      1.0000 0.79037  0.20550  0.01553  Biso   1.000  Cu
  O37      1.0000 0.64200  0.79550  0.46350  Biso   1.000  O
  O38      1.0000 0.35800  0.79550  0.53650  Biso   1.000  O
  O39      1.0000 0.14200  0.29550  0.96350  Biso   1.000  O
  O40      1.0000 0.85800  0.29550  0.03650  Biso   1.000  O
  O41      1.0000 0.54750  0.73100  0.37700  Biso   1.000  O
  O42      1.0000 0.45250  0.73100  0.62300  Biso   1.000  O
  O43      1.0000 0.04750  0.23100  0.87700  Biso   1.000  O
  O44      1.0000 0.95250  0.23100  0.12300  Biso   1.000  O
  O45      1.0000 0.51050  0.82410  0.40200  Biso   1.000  O
  O46      1.0000 0.48950  0.82410  0.59800  Biso   1.000  O
  O47      1.0000 0.01050  0.32410  0.90200  Biso   1.000  O
  O48      1.0000 0.98950  0.32410  0.09800  Biso   1.000  O
  O49      1.0000 0.43830  0.75080  0.36950  Biso   1.000  O
  O50      1.0000 0.56170  0.75080  0.63050  Biso   1.000  O
  O51      1.0000 0.93830  0.25080  0.86950  Biso   1.000  O
  O52      1.0000 0.06170  0.25080  0.13050  Biso   1.000  O
  N17      1.0000 0.49650  0.76020  0.38310  Biso   1.000  N
  N18      1.0000 0.50350  0.76020  0.61690  Biso   1.000  N
  N19      1.0000 0.99650  0.26020  0.88310  Biso   1.000  N
  N20      1.0000 0.00350  0.26020  0.11690  Biso   1.000  N
  O53      1.0000 0.00000  0.18400  0.50000  Biso   1.000  O
  O54      1.0000 0.50000  0.68400  0.00000  Biso   1.000  O
  O55      1.0000 0.95060  0.29490  0.48520  Biso   1.000  O
  O56      1.0000 0.04940  0.29490  0.51480  Biso   1.000  O
  O57      1.0000 0.45060  0.79490  0.98520  Biso   1.000  O
  O58      1.0000 0.54940  0.79490  0.01480  Biso   1.000  O
  N21      1.0000 0.00000  0.25390  0.50000  Biso   1.000  N
  N22      1.0000 0.50000  0.75390  0.00000  Biso   1.000  N
  O59      1.0000 0.00000  0.51900  0.00000  Biso   1.000  O
  O60      1.0000 0.50000  0.01900  0.50000  Biso   1.000  O
  O61      1.0000 0.95120  0.61100  0.00740  Biso   1.000  O
  O62      1.0000 0.04880  0.61100  0.99260  Biso   1.000  O
  O63      1.0000 0.45120  0.11100  0.50740  Biso   1.000  O
  O64      1.0000 0.54880  0.11100  0.49260  Biso   1.000  O
  N23      1.0000 0.00000  0.59200  0.00000  Biso   1.000  N
  N24      1.0000 0.50000  0.09200  0.50000  Biso   1.000  N
  O65      1.0000 0.50000  0.30450  0.00000  Biso   1.000  O
  O66      1.0000 0.00000  0.80450  0.50000  Biso   1.000  O
  O67      1.0000 0.53610  0.41360  0.97310  Biso   1.000  O
  O68      1.0000 0.46390  0.41360  0.02690  Biso   1.000  O
  O69      1.0000 0.03610  0.91360  0.47310  Biso   1.000  O
  O70      1.0000 0.96390  0.91360  0.52690  Biso   1.000  O
  N25      1.0000 0.50000  0.38090  0.00000  Biso   1.000  N
  N26      1.0000 0.00000  0.88090  0.50000  Biso   1.000  N
  O71      1.0000 0.06780  0.58200  0.37930  Biso   1.000  O
  O72      1.0000 0.93220  0.58200  0.62070  Biso   1.000  O
  O73      1.0000 0.56780  0.08200  0.87930  Biso   1.000  O
  O74      1.0000 0.43220  0.08200  0.12070  Biso   1.000  O
  O75      1.0000 0.01100  0.48700  0.39900  Biso   1.000  O
  O76      1.0000 0.98900  0.48700  0.60100  Biso   1.000  O
  O77      1.0000 0.51100  0.98700  0.89900  Biso   1.000  O
  O78      1.0000 0.48900  0.98700  0.10100  Biso   1.000  O
  O79      1.0000 0.96620  0.58020  0.35330  Biso   1.000  O
  O80      1.0000 0.03380  0.58020  0.64670  Biso   1.000  O
  O81      1.0000 0.46620  0.08020  0.85330  Biso   1.000  O
  O82      1.0000 0.53380  0.08020  0.14670  Biso   1.000  O
  N27      1.0000 0.01400  0.55400  0.37720  Biso   1.000  N
  N28      1.0000 0.98600  0.55400  0.62280  Biso   1.000  N
  N29      1.0000 0.51400  0.05400  0.87720  Biso   1.000  N
  N30      1.0000 0.48600  0.05400  0.12280  Biso   1.000  N
  O83      1.0000 0.92150  0.43570  0.45890  Biso   1.000  O
  O84      1.0000 0.07850  0.43570  0.54110  Biso   1.000  O
  O85      1.0000 0.42150  0.93570  0.95890  Biso   1.000  O
  O86      1.0000 0.57850  0.93570  0.04110  Biso   1.000  O
  O87      1.0000 0.50000  0.67200  0.50000  Biso   1.000  O
  O88      1.0000 0.00000  0.17200  0.00000  Biso   1.000  O
  O89      1.0000 0.50000  0.12790  0.00000  Biso   1.000  O
  O90      1.0000 0.00000  0.62790  0.50000  Biso   1.000  O
  O91      1.0000 0.57410  0.88400  0.52000  Biso   1.000  O
  O92      1.0000 0.42590  0.88400  0.48000  Biso   1.000  O
  O93      1.0000 0.07410  0.38400  0.02000  Biso   1.000  O
  O94      1.0000 0.92590  0.38400  0.98000  Biso   1.000  O
  O95      1.0000 0.50150  0.40000  0.45370  Biso   1.000  O
  O96      1.0000 0.49850  0.40000  0.54630  Biso   1.000  O
  O97      1.0000 0.00150  0.90000  0.95370  Biso   1.000  O
  O98      1.0000 0.99850  0.90000  0.04630  Biso   1.000  O
  O99      1.0000 0.54950  0.48790  0.49870  Biso   1.000  O
  O100     1.0000 0.45050  0.48790  0.50130  Biso   1.000  O
  O101     1.0000 0.04950  0.98790  0.99870  Biso   1.000  O
  O102     1.0000 0.95050  0.98790  0.00130  Biso   1.000  O
  N31      1.0000 0.49710  0.45700  0.48290  Biso   1.000  N
  N32      1.0000 0.50290  0.45700  0.51710  Biso   1.000  N
  N33      1.0000 0.99710  0.95700  0.98290  Biso   1.000  N
  N34      1.0000 0.00290  0.95700  0.01710  Biso   1.000  N
