data_image0
_cell_length_a       9.0229
_cell_length_b       21.6107
_cell_length_c       24.0491
_cell_angle_alpha    90
_cell_angle_beta     90
_cell_angle_gamma    90

_symmetry_space_group_name_H-M    "P 1"
_symmetry_int_tables_number       1

loop_
  _symmetry_equiv_pos_as_xyz
  'x, y, z'

loop_
  _atom_site_label
  _atom_site_occupancy
  _atom_site_fract_x
  _atom_site_fract_y
  _atom_site_fract_z
  _atom_site_thermal_displace_type
  _atom_site_B_iso_or_equiv
  _atom_site_type_symbol
  Cu1      1.0000 0.25000  0.25000  0.00000  Biso   1.000  Cu
  Cu2      1.0000 0.75000  0.75000  0.00000  Biso   1.000  Cu
  Cu3      1.0000 0.25000  0.75000  0.50000  Biso   1.000  Cu
  Cu4      1.0000 0.75000  0.25000  0.50000  Biso   1.000  Cu
  C1       1.0000 0.02620  0.18710  0.06980  Biso   1.000  C
  C2       1.0000 0.97380  0.81290  0.06980  Biso   1.000  C
  C3       1.0000 0.02620  0.81290  0.43020  Biso   1.000  C
  C4       1.0000 0.97380  0.18710  0.43020  Biso   1.000  C
  C5       1.0000 0.52620  0.68710  0.06980  Biso   1.000  C
  C6       1.0000 0.47380  0.31290  0.06980  Biso   1.000  C
  C7       1.0000 0.52620  0.31290  0.43020  Biso   1.000  C
  C8       1.0000 0.47380  0.68710  0.43020  Biso   1.000  C
  C9       1.0000 0.97380  0.81290  0.93020  Biso   1.000  C
  C10      1.0000 0.02620  0.18710  0.93020  Biso   1.000  C
  C11      1.0000 0.97380  0.18710  0.56980  Biso   1.000  C
  C12      1.0000 0.02620  0.81290  0.56980  Biso   1.000  C
  C13      1.0000 0.47380  0.31290  0.93020  Biso   1.000  C
  C14      1.0000 0.52620  0.68710  0.93020  Biso   1.000  C
  C15      1.0000 0.47380  0.68710  0.56980  Biso   1.000  C
  C16      1.0000 0.52620  0.31290  0.56980  Biso   1.000  C
  H1       1.0000 0.95970  0.21010  0.04790  Biso   1.000  H
  H2       1.0000 0.04030  0.78990  0.04790  Biso   1.000  H
  H3       1.0000 0.95970  0.78990  0.45210  Biso   1.000  H
  H4       1.0000 0.04030  0.21010  0.45210  Biso   1.000  H
  H5       1.0000 0.45970  0.71010  0.04790  Biso   1.000  H
  H6       1.0000 0.54030  0.28990  0.04790  Biso   1.000  H
  H7       1.0000 0.45970  0.28990  0.45210  Biso   1.000  H
  H8       1.0000 0.54030  0.71010  0.45210  Biso   1.000  H
  H9       1.0000 0.04030  0.78990  0.95210  Biso   1.000  H
  H10      1.0000 0.95970  0.21010  0.95210  Biso   1.000  H
  H11      1.0000 0.04030  0.21010  0.54790  Biso   1.000  H
  H12      1.0000 0.95970  0.78990  0.54790  Biso   1.000  H
  H13      1.0000 0.54030  0.28990  0.95210  Biso   1.000  H
  H14      1.0000 0.45970  0.71010  0.95210  Biso   1.000  H
  H15      1.0000 0.54030  0.71010  0.54790  Biso   1.000  H
  H16      1.0000 0.45970  0.28990  0.54790  Biso   1.000  H
  N1       1.0000 0.16790  0.19374  0.06053  Biso   1.000  N
  N2       1.0000 0.83210  0.80626  0.06053  Biso   1.000  N
  N3       1.0000 0.16790  0.80626  0.43947  Biso   1.000  N
  N4       1.0000 0.83210  0.19374  0.43947  Biso   1.000  N
  N5       1.0000 0.66790  0.69374  0.06053  Biso   1.000  N
  N6       1.0000 0.33210  0.30626  0.06053  Biso   1.000  N
  N7       1.0000 0.66790  0.30626  0.43947  Biso   1.000  N
  N8       1.0000 0.33210  0.69374  0.43947  Biso   1.000  N
  N9       1.0000 0.83210  0.80626  0.93947  Biso   1.000  N
  N10      1.0000 0.16790  0.19374  0.93947  Biso   1.000  N
  N11      1.0000 0.83210  0.19374  0.56053  Biso   1.000  N
  N12      1.0000 0.16790  0.80626  0.56053  Biso   1.000  N
  N13      1.0000 0.33210  0.30626  0.93947  Biso   1.000  N
  N14      1.0000 0.66790  0.69374  0.93947  Biso   1.000  N
  N15      1.0000 0.33210  0.69374  0.56053  Biso   1.000  N
  N16      1.0000 0.66790  0.30626  0.56053  Biso   1.000  N
  C17      1.0000 0.96840  0.14820  0.11000  Biso   1.000  C
  C18      1.0000 0.03160  0.85180  0.11000  Biso   1.000  C
  C19      1.0000 0.96840  0.85180  0.39000  Biso   1.000  C
  C20      1.0000 0.03160  0.14820  0.39000  Biso   1.000  C
  C21      1.0000 0.46840  0.64820  0.11000  Biso   1.000  C
  C22      1.0000 0.53160  0.35180  0.11000  Biso   1.000  C
  C23      1.0000 0.46840  0.35180  0.39000  Biso   1.000  C
  C24      1.0000 0.53160  0.64820  0.39000  Biso   1.000  C
  C25      1.0000 0.03160  0.85180  0.89000  Biso   1.000  C
  C26      1.0000 0.96840  0.14820  0.89000  Biso   1.000  C
  C27      1.0000 0.03160  0.14820  0.61000  Biso   1.000  C
  C28      1.0000 0.96840  0.85180  0.61000  Biso   1.000  C
  C29      1.0000 0.53160  0.35180  0.89000  Biso   1.000  C
  C30      1.0000 0.46840  0.64820  0.89000  Biso   1.000  C
  C31      1.0000 0.53160  0.64820  0.61000  Biso   1.000  C
  C32      1.0000 0.46840  0.35180  0.61000  Biso   1.000  C
  H17      1.0000 0.86560  0.14440  0.11530  Biso   1.000  H
  H18      1.0000 0.13440  0.85560  0.11530  Biso   1.000  H
  H19      1.0000 0.86560  0.85560  0.38470  Biso   1.000  H
  H20      1.0000 0.13440  0.14440  0.38470  Biso   1.000  H
  H21      1.0000 0.36560  0.64440  0.11530  Biso   1.000  H
  H22      1.0000 0.63440  0.35560  0.11530  Biso   1.000  H
  H23      1.0000 0.36560  0.35560  0.38470  Biso   1.000  H
  H24      1.0000 0.63440  0.64440  0.38470  Biso   1.000  H
  H25      1.0000 0.13440  0.85560  0.88470  Biso   1.000  H
  H26      1.0000 0.86560  0.14440  0.88470  Biso   1.000  H
  H27      1.0000 0.13440  0.14440  0.61530  Biso   1.000  H
  H28      1.0000 0.86560  0.85560  0.61530  Biso   1.000  H
  H29      1.0000 0.63440  0.35560  0.88470  Biso   1.000  H
  H30      1.0000 0.36560  0.64440  0.88470  Biso   1.000  H
  H31      1.0000 0.63440  0.64440  0.61530  Biso   1.000  H
  H32      1.0000 0.36560  0.35560  0.61530  Biso   1.000  H
  C33      1.0000 0.06710  0.11512  0.14197  Biso   1.000  C
  C34      1.0000 0.93290  0.88488  0.14197  Biso   1.000  C
  C35      1.0000 0.06710  0.88488  0.35803  Biso   1.000  C
  C36      1.0000 0.93290  0.11512  0.35803  Biso   1.000  C
  C37      1.0000 0.56710  0.61512  0.14197  Biso   1.000  C
  C38      1.0000 0.43290  0.38488  0.14197  Biso   1.000  C
  C39      1.0000 0.56710  0.38488  0.35803  Biso   1.000  C
  C40      1.0000 0.43290  0.61512  0.35803  Biso   1.000  C
  C41      1.0000 0.93290  0.88488  0.85803  Biso   1.000  C
  C42      1.0000 0.06710  0.11512  0.85803  Biso   1.000  C
  C43      1.0000 0.93290  0.11512  0.64197  Biso   1.000  C
  C44      1.0000 0.06710  0.88488  0.64197  Biso   1.000  C
  C45      1.0000 0.43290  0.38488  0.85803  Biso   1.000  C
  C46      1.0000 0.56710  0.61512  0.85803  Biso   1.000  C
  C47      1.0000 0.43290  0.61512  0.64197  Biso   1.000  C
  C48      1.0000 0.56710  0.38488  0.64197  Biso   1.000  C
  C49      1.0000 0.21300  0.12310  0.13350  Biso   1.000  C
  C50      1.0000 0.78700  0.87690  0.13350  Biso   1.000  C
  C51      1.0000 0.21300  0.87690  0.36650  Biso   1.000  C
  C52      1.0000 0.78700  0.12310  0.36650  Biso   1.000  C
  C53      1.0000 0.71300  0.62310  0.13350  Biso   1.000  C
  C54      1.0000 0.28700  0.37690  0.13350  Biso   1.000  C
  C55      1.0000 0.71300  0.37690  0.36650  Biso   1.000  C
  C56      1.0000 0.28700  0.62310  0.36650  Biso   1.000  C
  C57      1.0000 0.78700  0.87690  0.86650  Biso   1.000  C
  C58      1.0000 0.21300  0.12310  0.86650  Biso   1.000  C
  C59      1.0000 0.78700  0.12310  0.63350  Biso   1.000  C
  C60      1.0000 0.21300  0.87690  0.63350  Biso   1.000  C
  C61      1.0000 0.28700  0.37690  0.86650  Biso   1.000  C
  C62      1.0000 0.71300  0.62310  0.86650  Biso   1.000  C
  C63      1.0000 0.28700  0.62310  0.63350  Biso   1.000  C
  C64      1.0000 0.71300  0.37690  0.63350  Biso   1.000  C
  H33      1.0000 0.28220  0.10160  0.15550  Biso   1.000  H
  H34      1.0000 0.71780  0.89840  0.15550  Biso   1.000  H
  H35      1.0000 0.28220  0.89840  0.34450  Biso   1.000  H
  H36      1.0000 0.71780  0.10160  0.34450  Biso   1.000  H
  H37      1.0000 0.78220  0.60160  0.15550  Biso   1.000  H
  H38      1.0000 0.21780  0.39840  0.15550  Biso   1.000  H
  H39      1.0000 0.78220  0.39840  0.34450  Biso   1.000  H
  H40      1.0000 0.21780  0.60160  0.34450  Biso   1.000  H
  H41      1.0000 0.71780  0.89840  0.84450  Biso   1.000  H
  H42      1.0000 0.28220  0.10160  0.84450  Biso   1.000  H
  H43      1.0000 0.71780  0.10160  0.65550  Biso   1.000  H
  H44      1.0000 0.28220  0.89840  0.65550  Biso   1.000  H
  H45      1.0000 0.21780  0.39840  0.84450  Biso   1.000  H
  H46      1.0000 0.78220  0.60160  0.84450  Biso   1.000  H
  H47      1.0000 0.21780  0.60160  0.65550  Biso   1.000  H
  H48      1.0000 0.78220  0.39840  0.65550  Biso   1.000  H
  C65      1.0000 0.26010  0.16250  0.09310  Biso   1.000  C
  C66      1.0000 0.73990  0.83750  0.09310  Biso   1.000  C
  C67      1.0000 0.26010  0.83750  0.40690  Biso   1.000  C
  C68      1.0000 0.73990  0.16250  0.40690  Biso   1.000  C
  C69      1.0000 0.76010  0.66250  0.09310  Biso   1.000  C
  C70      1.0000 0.23990  0.33750  0.09310  Biso   1.000  C
  C71      1.0000 0.76010  0.33750  0.40690  Biso   1.000  C
  C72      1.0000 0.23990  0.66250  0.40690  Biso   1.000  C
  C73      1.0000 0.73990  0.83750  0.90690  Biso   1.000  C
  C74      1.0000 0.26010  0.16250  0.90690  Biso   1.000  C
  C75      1.0000 0.73990  0.16250  0.59310  Biso   1.000  C
  C76      1.0000 0.26010  0.83750  0.59310  Biso   1.000  C
  C77      1.0000 0.23990  0.33750  0.90690  Biso   1.000  C
  C78      1.0000 0.76010  0.66250  0.90690  Biso   1.000  C
  C79      1.0000 0.23990  0.66250  0.59310  Biso   1.000  C
  C80      1.0000 0.76010  0.33750  0.59310  Biso   1.000  C
  H49      1.0000 0.36260  0.16790  0.08800  Biso   1.000  H
  H50      1.0000 0.63740  0.83210  0.08800  Biso   1.000  H
  H51      1.0000 0.36260  0.83210  0.41200  Biso   1.000  H
  H52      1.0000 0.63740  0.16790  0.41200  Biso   1.000  H
  H53      1.0000 0.86260  0.66790  0.08800  Biso   1.000  H
  H54      1.0000 0.13740  0.33210  0.08800  Biso   1.000  H
  H55      1.0000 0.86260  0.33210  0.41200  Biso   1.000  H
  H56      1.0000 0.13740  0.66790  0.41200  Biso   1.000  H
  H57      1.0000 0.63740  0.83210  0.91200  Biso   1.000  H
  H58      1.0000 0.36260  0.16790  0.91200  Biso   1.000  H
  H59      1.0000 0.63740  0.16790  0.58800  Biso   1.000  H
  H60      1.0000 0.36260  0.83210  0.58800  Biso   1.000  H
  H61      1.0000 0.13740  0.33210  0.91200  Biso   1.000  H
  H62      1.0000 0.86260  0.66790  0.91200  Biso   1.000  H
  H63      1.0000 0.13740  0.66790  0.58800  Biso   1.000  H
  H64      1.0000 0.86260  0.33210  0.58800  Biso   1.000  H
  O1       1.0000 0.00400  0.07732  0.18059  Biso   1.000  O
  O2       1.0000 0.99600  0.92268  0.18059  Biso   1.000  O
  O3       1.0000 0.00400  0.92268  0.31941  Biso   1.000  O
  O4       1.0000 0.99600  0.07732  0.31941  Biso   1.000  O
  O5       1.0000 0.50400  0.57732  0.18059  Biso   1.000  O
  O6       1.0000 0.49600  0.42268  0.18059  Biso   1.000  O
  O7       1.0000 0.50400  0.42268  0.31941  Biso   1.000  O
  O8       1.0000 0.49600  0.57732  0.31941  Biso   1.000  O
  O9       1.0000 0.99600  0.92268  0.81941  Biso   1.000  O
  O10      1.0000 0.00400  0.07732  0.81941  Biso   1.000  O
  O11      1.0000 0.99600  0.07732  0.68059  Biso   1.000  O
  O12      1.0000 0.00400  0.92268  0.68059  Biso   1.000  O
  O13      1.0000 0.49600  0.42268  0.81941  Biso   1.000  O
  O14      1.0000 0.50400  0.57732  0.81941  Biso   1.000  O
  O15      1.0000 0.49600  0.57732  0.68059  Biso   1.000  O
  O16      1.0000 0.50400  0.42268  0.68059  Biso   1.000  O
  C81      1.0000 0.10130  0.03983  0.21340  Biso   1.000  C
  C82      1.0000 0.89870  0.96017  0.21340  Biso   1.000  C
  C83      1.0000 0.10130  0.96017  0.28660  Biso   1.000  C
  C84      1.0000 0.89870  0.03983  0.28660  Biso   1.000  C
  C85      1.0000 0.60130  0.53983  0.21340  Biso   1.000  C
  C86      1.0000 0.39870  0.46017  0.21340  Biso   1.000  C
  C87      1.0000 0.60130  0.46017  0.28660  Biso   1.000  C
  C88      1.0000 0.39870  0.53983  0.28660  Biso   1.000  C
  C89      1.0000 0.89870  0.96017  0.78660  Biso   1.000  C
  C90      1.0000 0.10130  0.03983  0.78660  Biso   1.000  C
  C91      1.0000 0.89870  0.03983  0.71340  Biso   1.000  C
  C92      1.0000 0.10130  0.96017  0.71340  Biso   1.000  C
  C93      1.0000 0.39870  0.46017  0.78660  Biso   1.000  C
  C94      1.0000 0.60130  0.53983  0.78660  Biso   1.000  C
  C95      1.0000 0.39870  0.53983  0.71340  Biso   1.000  C
  C96      1.0000 0.60130  0.46017  0.71340  Biso   1.000  C
  H65      1.0000 0.16600  0.06580  0.23640  Biso   1.000  H
  H66      1.0000 0.83400  0.93420  0.23640  Biso   1.000  H
  H67      1.0000 0.16600  0.93420  0.26360  Biso   1.000  H
  H68      1.0000 0.83400  0.06580  0.26360  Biso   1.000  H
  H69      1.0000 0.66600  0.56580  0.23640  Biso   1.000  H
  H70      1.0000 0.33400  0.43420  0.23640  Biso   1.000  H
  H71      1.0000 0.66600  0.43420  0.26360  Biso   1.000  H
  H72      1.0000 0.33400  0.56580  0.26360  Biso   1.000  H
  H73      1.0000 0.83400  0.93420  0.76360  Biso   1.000  H
  H74      1.0000 0.16600  0.06580  0.76360  Biso   1.000  H
  H75      1.0000 0.83400  0.06580  0.73640  Biso   1.000  H
  H76      1.0000 0.16600  0.93420  0.73640  Biso   1.000  H
  H77      1.0000 0.33400  0.43420  0.76360  Biso   1.000  H
  H78      1.0000 0.66600  0.56580  0.76360  Biso   1.000  H
  H79      1.0000 0.33400  0.56580  0.73640  Biso   1.000  H
  H80      1.0000 0.66600  0.43420  0.73640  Biso   1.000  H
  H81      1.0000 0.16310  0.01370  0.18950  Biso   1.000  H
  H82      1.0000 0.83690  0.98630  0.18950  Biso   1.000  H
  H83      1.0000 0.16310  0.98630  0.31050  Biso   1.000  H
  H84      1.0000 0.83690  0.01370  0.31050  Biso   1.000  H
  H85      1.0000 0.66310  0.51370  0.18950  Biso   1.000  H
  H86      1.0000 0.33690  0.48630  0.18950  Biso   1.000  H
  H87      1.0000 0.66310  0.48630  0.31050  Biso   1.000  H
  H88      1.0000 0.33690  0.51370  0.31050  Biso   1.000  H
  H89      1.0000 0.83690  0.98630  0.81050  Biso   1.000  H
  H90      1.0000 0.16310  0.01370  0.81050  Biso   1.000  H
  H91      1.0000 0.83690  0.01370  0.68950  Biso   1.000  H
  H92      1.0000 0.16310  0.98630  0.68950  Biso   1.000  H
  H93      1.0000 0.33690  0.48630  0.81050  Biso   1.000  H
  H94      1.0000 0.66310  0.51370  0.81050  Biso   1.000  H
  H95      1.0000 0.33690  0.51370  0.68950  Biso   1.000  H
  H96      1.0000 0.66310  0.48630  0.68950  Biso   1.000  H
  C97      1.0000 0.00000  0.00000  0.25000  Biso   1.000  C
  C98      1.0000 0.50000  0.50000  0.25000  Biso   1.000  C
  C99      1.0000 0.00000  0.00000  0.75000  Biso   1.000  C
  C100     1.0000 0.50000  0.50000  0.75000  Biso   1.000  C
  N17      1.0000 0.61510  0.18220  0.02285  Biso   1.000  N
  N18      1.0000 0.38490  0.81780  0.02285  Biso   1.000  N
  N19      1.0000 0.61510  0.81780  0.47715  Biso   1.000  N
  N20      1.0000 0.38490  0.18220  0.47715  Biso   1.000  N
  N21      1.0000 0.11510  0.68220  0.02285  Biso   1.000  N
  N22      1.0000 0.88490  0.31780  0.02285  Biso   1.000  N
  N23      1.0000 0.11510  0.31780  0.47715  Biso   1.000  N
  N24      1.0000 0.88490  0.68220  0.47715  Biso   1.000  N
  N25      1.0000 0.38490  0.81780  0.97715  Biso   1.000  N
  N26      1.0000 0.61510  0.18220  0.97715  Biso   1.000  N
  N27      1.0000 0.38490  0.18220  0.52285  Biso   1.000  N
  N28      1.0000 0.61510  0.81780  0.52285  Biso   1.000  N
  N29      1.0000 0.88490  0.31780  0.97715  Biso   1.000  N
  N30      1.0000 0.11510  0.68220  0.97715  Biso   1.000  N
  N31      1.0000 0.88490  0.68220  0.52285  Biso   1.000  N
  N32      1.0000 0.11510  0.31780  0.52285  Biso   1.000  N
  O17      1.0000 0.50040  0.18780  0.00000  Biso   1.000  O
  O18      1.0000 0.49960  0.81220  0.00000  Biso   1.000  O
  O19      1.0000 0.50040  0.81220  0.50000  Biso   1.000  O
  O20      1.0000 0.49960  0.18780  0.50000  Biso   1.000  O
  O21      1.0000 0.00040  0.68780  0.00000  Biso   1.000  O
  O22      1.0000 0.99960  0.31220  0.00000  Biso   1.000  O
  O23      1.0000 0.00040  0.31220  0.50000  Biso   1.000  O
  O24      1.0000 0.99960  0.68780  0.50000  Biso   1.000  O
  O25      1.0000 0.72550  0.19640  0.00000  Biso   1.000  O
  O26      1.0000 0.27450  0.80360  0.00000  Biso   1.000  O
  O27      1.0000 0.72550  0.80360  0.50000  Biso   1.000  O
  O28      1.0000 0.27450  0.19640  0.50000  Biso   1.000  O
  O29      1.0000 0.22550  0.69640  0.00000  Biso   1.000  O
  O30      1.0000 0.77450  0.30360  0.00000  Biso   1.000  O
  O31      1.0000 0.22550  0.30360  0.50000  Biso   1.000  O
  O32      1.0000 0.77450  0.69640  0.50000  Biso   1.000  O
  O33      1.0000 0.61930  0.16240  0.06850  Biso   1.000  O
  O34      1.0000 0.38070  0.83760  0.06850  Biso   1.000  O
  O35      1.0000 0.61930  0.83760  0.43150  Biso   1.000  O
  O36      1.0000 0.38070  0.16240  0.43150  Biso   1.000  O
  O37      1.0000 0.11930  0.66240  0.06850  Biso   1.000  O
  O38      1.0000 0.88070  0.33760  0.06850  Biso   1.000  O
  O39      1.0000 0.11930  0.33760  0.43150  Biso   1.000  O
  O40      1.0000 0.88070  0.66240  0.43150  Biso   1.000  O
  O41      1.0000 0.38070  0.83760  0.93150  Biso   1.000  O
  O42      1.0000 0.61930  0.16240  0.93150  Biso   1.000  O
  O43      1.0000 0.38070  0.16240  0.56850  Biso   1.000  O
  O44      1.0000 0.61930  0.83760  0.56850  Biso   1.000  O
  O45      1.0000 0.88070  0.33760  0.93150  Biso   1.000  O
  O46      1.0000 0.11930  0.66240  0.93150  Biso   1.000  O
  O47      1.0000 0.88070  0.66240  0.56850  Biso   1.000  O
  O48      1.0000 0.11930  0.33760  0.56850  Biso   1.000  O
  O49      1.0000 0.00000  0.45130  0.25000  Biso   1.000  O
  O50      1.0000 0.00000  0.54870  0.25000  Biso   1.000  O
  O51      1.0000 0.50000  0.95130  0.25000  Biso   1.000  O
  O52      1.0000 0.50000  0.04870  0.25000  Biso   1.000  O
  O53      1.0000 0.00000  0.54870  0.75000  Biso   1.000  O
  O54      1.0000 0.00000  0.45130  0.75000  Biso   1.000  O
  O55      1.0000 0.50000  0.04870  0.75000  Biso   1.000  O
  O56      1.0000 0.50000  0.95130  0.75000  Biso   1.000  O
  H97      1.0000 0.02380  0.48900  0.23600  Biso   1.000  H
  H98      1.0000 0.97620  0.51100  0.23600  Biso   1.000  H
  H99      1.0000 0.02380  0.51100  0.26400  Biso   1.000  H
  H100     1.0000 0.97620  0.48900  0.26400  Biso   1.000  H
  H101     1.0000 0.52380  0.98900  0.23600  Biso   1.000  H
  H102     1.0000 0.47620  0.01100  0.23600  Biso   1.000  H
  H103     1.0000 0.52380  0.01100  0.26400  Biso   1.000  H
  H104     1.0000 0.47620  0.98900  0.26400  Biso   1.000  H
  H105     1.0000 0.97620  0.51100  0.76400  Biso   1.000  H
  H106     1.0000 0.02380  0.48900  0.76400  Biso   1.000  H
  H107     1.0000 0.97620  0.48900  0.73600  Biso   1.000  H
  H108     1.0000 0.02380  0.51100  0.73600  Biso   1.000  H
  H109     1.0000 0.47620  0.01100  0.76400  Biso   1.000  H
  H110     1.0000 0.52380  0.98900  0.76400  Biso   1.000  H
  H111     1.0000 0.47620  0.98900  0.73600  Biso   1.000  H
  H112     1.0000 0.52380  0.01100  0.73600  Biso   1.000  H
  H113     1.0000 0.90540  0.46410  0.27800  Biso   1.000  H
  H114     1.0000 0.09460  0.53590  0.27800  Biso   1.000  H
  H115     1.0000 0.90540  0.53590  0.22200  Biso   1.000  H
  H116     1.0000 0.09460  0.46410  0.22200  Biso   1.000  H
  H117     1.0000 0.40540  0.96410  0.27800  Biso   1.000  H
  H118     1.0000 0.59460  0.03590  0.27800  Biso   1.000  H
  H119     1.0000 0.40540  0.03590  0.22200  Biso   1.000  H
  H120     1.0000 0.59460  0.96410  0.22200  Biso   1.000  H
  H121     1.0000 0.09460  0.53590  0.72200  Biso   1.000  H
  H122     1.0000 0.90540  0.46410  0.72200  Biso   1.000  H
  H123     1.0000 0.09460  0.46410  0.77800  Biso   1.000  H
  H124     1.0000 0.90540  0.53590  0.77800  Biso   1.000  H
  H125     1.0000 0.59460  0.03590  0.72200  Biso   1.000  H
  H126     1.0000 0.40540  0.96410  0.72200  Biso   1.000  H
  H127     1.0000 0.59460  0.96410  0.77800  Biso   1.000  H
  H128     1.0000 0.40540  0.03590  0.77800  Biso   1.000  H
  O57      1.0000 0.68300  0.02200  0.86920  Biso   1.000  O
  O58      1.0000 0.31700  0.97800  0.86920  Biso   1.000  O
  O59      1.0000 0.68300  0.97800  0.63080  Biso   1.000  O
  O60      1.0000 0.31700  0.02200  0.63080  Biso   1.000  O
  O61      1.0000 0.18300  0.52200  0.86920  Biso   1.000  O
  O62      1.0000 0.81700  0.47800  0.86920  Biso   1.000  O
  O63      1.0000 0.18300  0.47800  0.63080  Biso   1.000  O
  O64      1.0000 0.81700  0.52200  0.63080  Biso   1.000  O
  O65      1.0000 0.31700  0.97800  0.13080  Biso   1.000  O
  O66      1.0000 0.68300  0.02200  0.13080  Biso   1.000  O
  O67      1.0000 0.31700  0.02200  0.36920  Biso   1.000  O
  O68      1.0000 0.68300  0.97800  0.36920  Biso   1.000  O
  O69      1.0000 0.81700  0.47800  0.13080  Biso   1.000  O
  O70      1.0000 0.18300  0.52200  0.13080  Biso   1.000  O
  O71      1.0000 0.81700  0.52200  0.36920  Biso   1.000  O
  O72      1.0000 0.18300  0.47800  0.36920  Biso   1.000  O
  H129     1.0000 0.70310  0.05420  0.89750  Biso   1.000  H
  H130     1.0000 0.29690  0.94580  0.89750  Biso   1.000  H
  H131     1.0000 0.70310  0.94580  0.60250  Biso   1.000  H
  H132     1.0000 0.29690  0.05420  0.60250  Biso   1.000  H
  H133     1.0000 0.20310  0.55420  0.89750  Biso   1.000  H
  H134     1.0000 0.79690  0.44580  0.89750  Biso   1.000  H
  H135     1.0000 0.20310  0.44580  0.60250  Biso   1.000  H
  H136     1.0000 0.79690  0.55420  0.60250  Biso   1.000  H
  H137     1.0000 0.29690  0.94580  0.10250  Biso   1.000  H
  H138     1.0000 0.70310  0.05420  0.10250  Biso   1.000  H
  H139     1.0000 0.29690  0.05420  0.39750  Biso   1.000  H
  H140     1.0000 0.70310  0.94580  0.39750  Biso   1.000  H
  H141     1.0000 0.79690  0.44580  0.10250  Biso   1.000  H
  H142     1.0000 0.20310  0.55420  0.10250  Biso   1.000  H
  H143     1.0000 0.79690  0.55420  0.39750  Biso   1.000  H
  H144     1.0000 0.20310  0.44580  0.39750  Biso   1.000  H
  H145     1.0000 0.69150  0.98240  0.88970  Biso   1.000  H
  H146     1.0000 0.30850  0.01760  0.88970  Biso   1.000  H
  H147     1.0000 0.69150  0.01760  0.61030  Biso   1.000  H
  H148     1.0000 0.30850  0.98240  0.61030  Biso   1.000  H
  H149     1.0000 0.19150  0.48240  0.88970  Biso   1.000  H
  H150     1.0000 0.80850  0.51760  0.88970  Biso   1.000  H
  H151     1.0000 0.19150  0.51760  0.61030  Biso   1.000  H
  H152     1.0000 0.80850  0.48240  0.61030  Biso   1.000  H
  H153     1.0000 0.30850  0.01760  0.11030  Biso   1.000  H
  H154     1.0000 0.69150  0.98240  0.11030  Biso   1.000  H
  H155     1.0000 0.30850  0.98240  0.38970  Biso   1.000  H
  H156     1.0000 0.69150  0.01760  0.38970  Biso   1.000  H
  H157     1.0000 0.80850  0.51760  0.11030  Biso   1.000  H
  H158     1.0000 0.19150  0.48240  0.11030  Biso   1.000  H
  H159     1.0000 0.80850  0.48240  0.38970  Biso   1.000  H
  H160     1.0000 0.19150  0.51760  0.38970  Biso   1.000  H
  O73      1.0000 0.55300  0.00290  0.45540  Biso   1.000  O
  O74      1.0000 0.44700  0.99710  0.45540  Biso   1.000  O
  O75      1.0000 0.55300  0.99710  0.04460  Biso   1.000  O
  O76      1.0000 0.44700  0.00290  0.04460  Biso   1.000  O
  O77      1.0000 0.05300  0.50290  0.45540  Biso   1.000  O
  O78      1.0000 0.94700  0.49710  0.45540  Biso   1.000  O
  O79      1.0000 0.05300  0.49710  0.04460  Biso   1.000  O
  O80      1.0000 0.94700  0.50290  0.04460  Biso   1.000  O
  O81      1.0000 0.44700  0.99710  0.54460  Biso   1.000  O
  O82      1.0000 0.55300  0.00290  0.54460  Biso   1.000  O
  O83      1.0000 0.44700  0.00290  0.95540  Biso   1.000  O
  O84      1.0000 0.55300  0.99710  0.95540  Biso   1.000  O
  O85      1.0000 0.94700  0.49710  0.54460  Biso   1.000  O
  O86      1.0000 0.05300  0.50290  0.54460  Biso   1.000  O
  O87      1.0000 0.94700  0.50290  0.95540  Biso   1.000  O
  O88      1.0000 0.05300  0.49710  0.95540  Biso   1.000  O
  H161     1.0000 0.52130  0.97860  0.48820  Biso   1.000  H
  H162     1.0000 0.47870  0.02140  0.48820  Biso   1.000  H
  H163     1.0000 0.52130  0.02140  0.01180  Biso   1.000  H
  H164     1.0000 0.47870  0.97860  0.01180  Biso   1.000  H
  H165     1.0000 0.02130  0.47860  0.48820  Biso   1.000  H
  H166     1.0000 0.97870  0.52140  0.48820  Biso   1.000  H
  H167     1.0000 0.02130  0.52140  0.01180  Biso   1.000  H
  H168     1.0000 0.97870  0.47860  0.01180  Biso   1.000  H
  H169     1.0000 0.47870  0.02140  0.51180  Biso   1.000  H
  H170     1.0000 0.52130  0.97860  0.51180  Biso   1.000  H
  H171     1.0000 0.47870  0.97860  0.98820  Biso   1.000  H
  H172     1.0000 0.52130  0.02140  0.98820  Biso   1.000  H
  H173     1.0000 0.97870  0.52140  0.51180  Biso   1.000  H
  H174     1.0000 0.02130  0.47860  0.51180  Biso   1.000  H
  H175     1.0000 0.97870  0.47860  0.98820  Biso   1.000  H
  H176     1.0000 0.02130  0.52140  0.98820  Biso   1.000  H
  H177     1.0000 0.51540  0.97930  0.42310  Biso   1.000  H
  H178     1.0000 0.48460  0.02070  0.42310  Biso   1.000  H
  H179     1.0000 0.51540  0.02070  0.07690  Biso   1.000  H
  H180     1.0000 0.48460  0.97930  0.07690  Biso   1.000  H
  H181     1.0000 0.01540  0.47930  0.42310  Biso   1.000  H
  H182     1.0000 0.98460  0.52070  0.42310  Biso   1.000  H
  H183     1.0000 0.01540  0.52070  0.07690  Biso   1.000  H
  H184     1.0000 0.98460  0.47930  0.07690  Biso   1.000  H
  H185     1.0000 0.48460  0.02070  0.57690  Biso   1.000  H
  H186     1.0000 0.51540  0.97930  0.57690  Biso   1.000  H
  H187     1.0000 0.48460  0.97930  0.92310  Biso   1.000  H
  H188     1.0000 0.51540  0.02070  0.92310  Biso   1.000  H
  H189     1.0000 0.98460  0.52070  0.57690  Biso   1.000  H
  H190     1.0000 0.01540  0.47930  0.57690  Biso   1.000  H
  H191     1.0000 0.98460  0.47930  0.92310  Biso   1.000  H
  H192     1.0000 0.01540  0.52070  0.92310  Biso   1.000  H
  O89      1.0000 0.91500  0.98330  0.04000  Biso   1.000  O
  O90      1.0000 0.08500  0.01670  0.04000  Biso   1.000  O
  O91      1.0000 0.91500  0.01670  0.46000  Biso   1.000  O
  O92      1.0000 0.08500  0.98330  0.46000  Biso   1.000  O
  O93      1.0000 0.41500  0.48330  0.04000  Biso   1.000  O
  O94      1.0000 0.58500  0.51670  0.04000  Biso   1.000  O
  O95      1.0000 0.41500  0.51670  0.46000  Biso   1.000  O
  O96      1.0000 0.58500  0.48330  0.46000  Biso   1.000  O
  O97      1.0000 0.08500  0.01670  0.96000  Biso   1.000  O
  O98      1.0000 0.91500  0.98330  0.96000  Biso   1.000  O
  O99      1.0000 0.08500  0.98330  0.54000  Biso   1.000  O
  O100     1.0000 0.91500  0.01670  0.54000  Biso   1.000  O
  O101     1.0000 0.58500  0.51670  0.96000  Biso   1.000  O
  O102     1.0000 0.41500  0.48330  0.96000  Biso   1.000  O
  O103     1.0000 0.58500  0.48330  0.54000  Biso   1.000  O
  O104     1.0000 0.41500  0.51670  0.54000  Biso   1.000  O
  H193     1.0000 0.00900  0.98140  0.01920  Biso   1.000  H
  H194     1.0000 0.99100  0.01860  0.01920  Biso   1.000  H
  H195     1.0000 0.00900  0.01860  0.48080  Biso   1.000  H
  H196     1.0000 0.99100  0.98140  0.48080  Biso   1.000  H
  H197     1.0000 0.50900  0.48140  0.01920  Biso   1.000  H
  H198     1.0000 0.49100  0.51860  0.01920  Biso   1.000  H
  H199     1.0000 0.50900  0.51860  0.48080  Biso   1.000  H
  H200     1.0000 0.49100  0.48140  0.48080  Biso   1.000  H
  H201     1.0000 0.99100  0.01860  0.98080  Biso   1.000  H
  H202     1.0000 0.00900  0.98140  0.98080  Biso   1.000  H
  H203     1.0000 0.99100  0.98140  0.51920  Biso   1.000  H
  H204     1.0000 0.00900  0.01860  0.51920  Biso   1.000  H
  H205     1.0000 0.49100  0.51860  0.98080  Biso   1.000  H
  H206     1.0000 0.50900  0.48140  0.98080  Biso   1.000  H
  H207     1.0000 0.49100  0.48140  0.51920  Biso   1.000  H
  H208     1.0000 0.50900  0.51860  0.51920  Biso   1.000  H
  H209     1.0000 0.88390  0.02710  0.03750  Biso   1.000  H
  H210     1.0000 0.11610  0.97290  0.03750  Biso   1.000  H
  H211     1.0000 0.88390  0.97290  0.46250  Biso   1.000  H
  H212     1.0000 0.11610  0.02710  0.46250  Biso   1.000  H
  H213     1.0000 0.38390  0.52710  0.03750  Biso   1.000  H
  H214     1.0000 0.61610  0.47290  0.03750  Biso   1.000  H
  H215     1.0000 0.38390  0.47290  0.46250  Biso   1.000  H
  H216     1.0000 0.61610  0.52710  0.46250  Biso   1.000  H
  H217     1.0000 0.11610  0.97290  0.96250  Biso   1.000  H
  H218     1.0000 0.88390  0.02710  0.96250  Biso   1.000  H
  H219     1.0000 0.11610  0.02710  0.53750  Biso   1.000  H
  H220     1.0000 0.88390  0.97290  0.53750  Biso   1.000  H
  H221     1.0000 0.61610  0.47290  0.96250  Biso   1.000  H
  H222     1.0000 0.38390  0.52710  0.96250  Biso   1.000  H
  H223     1.0000 0.61610  0.52710  0.53750  Biso   1.000  H
  H224     1.0000 0.38390  0.47290  0.53750  Biso   1.000  H
  O105     1.0000 0.71400  0.28610  0.26320  Biso   1.000  O
  O106     1.0000 0.28600  0.71390  0.26320  Biso   1.000  O
  O107     1.0000 0.71400  0.71390  0.23680  Biso   1.000  O
  O108     1.0000 0.28600  0.28610  0.23680  Biso   1.000  O
  O109     1.0000 0.21400  0.78610  0.26320  Biso   1.000  O
  O110     1.0000 0.78600  0.21390  0.26320  Biso   1.000  O
  O111     1.0000 0.21400  0.21390  0.23680  Biso   1.000  O
  O112     1.0000 0.78600  0.78610  0.23680  Biso   1.000  O
  O113     1.0000 0.28600  0.71390  0.73680  Biso   1.000  O
  O114     1.0000 0.71400  0.28610  0.73680  Biso   1.000  O
  O115     1.0000 0.28600  0.28610  0.76320  Biso   1.000  O
  O116     1.0000 0.71400  0.71390  0.76320  Biso   1.000  O
  O117     1.0000 0.78600  0.21390  0.73680  Biso   1.000  O
  O118     1.0000 0.21400  0.78610  0.73680  Biso   1.000  O
  O119     1.0000 0.78600  0.78610  0.76320  Biso   1.000  O
  O120     1.0000 0.21400  0.21390  0.76320  Biso   1.000  O
  H225     1.0000 0.80520  0.30430  0.24750  Biso   1.000  H
  H226     1.0000 0.19480  0.69570  0.24750  Biso   1.000  H
  H227     1.0000 0.80520  0.69570  0.25250  Biso   1.000  H
  H228     1.0000 0.19480  0.30430  0.25250  Biso   1.000  H
  H229     1.0000 0.30520  0.80430  0.24750  Biso   1.000  H
  H230     1.0000 0.69480  0.19570  0.24750  Biso   1.000  H
  H231     1.0000 0.30520  0.19570  0.25250  Biso   1.000  H
  H232     1.0000 0.69480  0.80430  0.25250  Biso   1.000  H
  H233     1.0000 0.19480  0.69570  0.75250  Biso   1.000  H
  H234     1.0000 0.80520  0.30430  0.75250  Biso   1.000  H
  H235     1.0000 0.19480  0.30430  0.74750  Biso   1.000  H
  H236     1.0000 0.80520  0.69570  0.74750  Biso   1.000  H
  H237     1.0000 0.69480  0.19570  0.75250  Biso   1.000  H
  H238     1.0000 0.30520  0.80430  0.75250  Biso   1.000  H
  H239     1.0000 0.69480  0.80430  0.74750  Biso   1.000  H
  H240     1.0000 0.30520  0.19570  0.74750  Biso   1.000  H
  H241     1.0000 0.63600  0.31750  0.25590  Biso   1.000  H
  H242     1.0000 0.36400  0.68250  0.25590  Biso   1.000  H
  H243     1.0000 0.63600  0.68250  0.24410  Biso   1.000  H
  H244     1.0000 0.36400  0.31750  0.24410  Biso   1.000  H
  H245     1.0000 0.13600  0.81750  0.25590  Biso   1.000  H
  H246     1.0000 0.86400  0.18250  0.25590  Biso   1.000  H
  H247     1.0000 0.13600  0.18250  0.24410  Biso   1.000  H
  H248     1.0000 0.86400  0.81750  0.24410  Biso   1.000  H
  H249     1.0000 0.36400  0.68250  0.74410  Biso   1.000  H
  H250     1.0000 0.63600  0.31750  0.74410  Biso   1.000  H
  H251     1.0000 0.36400  0.31750  0.75590  Biso   1.000  H
  H252     1.0000 0.63600  0.68250  0.75590  Biso   1.000  H
  H253     1.0000 0.86400  0.18250  0.74410  Biso   1.000  H
  H254     1.0000 0.13600  0.81750  0.74410  Biso   1.000  H
  H255     1.0000 0.86400  0.81750  0.75590  Biso   1.000  H
  H256     1.0000 0.13600  0.18250  0.75590  Biso   1.000  H
  O121     1.0000 0.58000  0.03660  0.06380  Biso   1.000  O
  O122     1.0000 0.42000  0.96340  0.06380  Biso   1.000  O
  O123     1.0000 0.58000  0.96340  0.43620  Biso   1.000  O
  O124     1.0000 0.42000  0.03660  0.43620  Biso   1.000  O
  O125     1.0000 0.08000  0.53660  0.06380  Biso   1.000  O
  O126     1.0000 0.92000  0.46340  0.06380  Biso   1.000  O
  O127     1.0000 0.08000  0.46340  0.43620  Biso   1.000  O
  O128     1.0000 0.92000  0.53660  0.43620  Biso   1.000  O
  O129     1.0000 0.42000  0.96340  0.93620  Biso   1.000  O
  O130     1.0000 0.58000  0.03660  0.93620  Biso   1.000  O
  O131     1.0000 0.42000  0.03660  0.56380  Biso   1.000  O
  O132     1.0000 0.58000  0.96340  0.56380  Biso   1.000  O
  O133     1.0000 0.92000  0.46340  0.93620  Biso   1.000  O
  O134     1.0000 0.08000  0.53660  0.93620  Biso   1.000  O
  O135     1.0000 0.92000  0.53660  0.56380  Biso   1.000  O
  O136     1.0000 0.08000  0.46340  0.56380  Biso   1.000  O
  H257     1.0000 0.58110  0.01430  0.09980  Biso   1.000  H
  H258     1.0000 0.41890  0.98570  0.09980  Biso   1.000  H
  H259     1.0000 0.58110  0.98570  0.40020  Biso   1.000  H
  H260     1.0000 0.41890  0.01430  0.40020  Biso   1.000  H
  H261     1.0000 0.08110  0.51430  0.09980  Biso   1.000  H
  H262     1.0000 0.91890  0.48570  0.09980  Biso   1.000  H
  H263     1.0000 0.08110  0.48570  0.40020  Biso   1.000  H
  H264     1.0000 0.91890  0.51430  0.40020  Biso   1.000  H
  H265     1.0000 0.41890  0.98570  0.90020  Biso   1.000  H
  H266     1.0000 0.58110  0.01430  0.90020  Biso   1.000  H
  H267     1.0000 0.41890  0.01430  0.59980  Biso   1.000  H
  H268     1.0000 0.58110  0.98570  0.59980  Biso   1.000  H
  H269     1.0000 0.91890  0.48570  0.90020  Biso   1.000  H
  H270     1.0000 0.08110  0.51430  0.90020  Biso   1.000  H
  H271     1.0000 0.91890  0.51430  0.59980  Biso   1.000  H
  H272     1.0000 0.08110  0.48570  0.59980  Biso   1.000  H
  H273     1.0000 0.66700  0.02010  0.03980  Biso   1.000  H
  H274     1.0000 0.33300  0.97990  0.03980  Biso   1.000  H
  H275     1.0000 0.66700  0.97990  0.46020  Biso   1.000  H
  H276     1.0000 0.33300  0.02010  0.46020  Biso   1.000  H
  H277     1.0000 0.16700  0.52010  0.03980  Biso   1.000  H
  H278     1.0000 0.83300  0.47990  0.03980  Biso   1.000  H
  H279     1.0000 0.16700  0.47990  0.46020  Biso   1.000  H
  H280     1.0000 0.83300  0.52010  0.46020  Biso   1.000  H
  H281     1.0000 0.33300  0.97990  0.96020  Biso   1.000  H
  H282     1.0000 0.66700  0.02010  0.96020  Biso   1.000  H
  H283     1.0000 0.33300  0.02010  0.53980  Biso   1.000  H
  H284     1.0000 0.66700  0.97990  0.53980  Biso   1.000  H
  H285     1.0000 0.83300  0.47990  0.96020  Biso   1.000  H
  H286     1.0000 0.16700  0.52010  0.96020  Biso   1.000  H
  H287     1.0000 0.83300  0.52010  0.53980  Biso   1.000  H
  H288     1.0000 0.16700  0.47990  0.53980  Biso   1.000  H
  O137     1.0000 0.41400  0.12110  0.28040  Biso   1.000  O
  O138     1.0000 0.58600  0.87890  0.28040  Biso   1.000  O
  O139     1.0000 0.41400  0.87890  0.21960  Biso   1.000  O
  O140     1.0000 0.58600  0.12110  0.21960  Biso   1.000  O
  O141     1.0000 0.91400  0.62110  0.28040  Biso   1.000  O
  O142     1.0000 0.08600  0.37890  0.28040  Biso   1.000  O
  O143     1.0000 0.91400  0.37890  0.21960  Biso   1.000  O
  O144     1.0000 0.08600  0.62110  0.21960  Biso   1.000  O
  O145     1.0000 0.58600  0.87890  0.71960  Biso   1.000  O
  O146     1.0000 0.41400  0.12110  0.71960  Biso   1.000  O
  O147     1.0000 0.58600  0.12110  0.78040  Biso   1.000  O
  O148     1.0000 0.41400  0.87890  0.78040  Biso   1.000  O
  O149     1.0000 0.08600  0.37890  0.71960  Biso   1.000  O
  O150     1.0000 0.91400  0.62110  0.71960  Biso   1.000  O
  O151     1.0000 0.08600  0.62110  0.78040  Biso   1.000  O
  O152     1.0000 0.91400  0.37890  0.78040  Biso   1.000  O
  H289     1.0000 0.37400  0.10440  0.31580  Biso   1.000  H
  H290     1.0000 0.62600  0.89560  0.31580  Biso   1.000  H
  H291     1.0000 0.37400  0.89560  0.18420  Biso   1.000  H
  H292     1.0000 0.62600  0.10440  0.18420  Biso   1.000  H
  H293     1.0000 0.87400  0.60440  0.31580  Biso   1.000  H
  H294     1.0000 0.12600  0.39560  0.31580  Biso   1.000  H
  H295     1.0000 0.87400  0.39560  0.18420  Biso   1.000  H
  H296     1.0000 0.12600  0.60440  0.18420  Biso   1.000  H
  H297     1.0000 0.62600  0.89560  0.68420  Biso   1.000  H
  H298     1.0000 0.37400  0.10440  0.68420  Biso   1.000  H
  H299     1.0000 0.62600  0.10440  0.81580  Biso   1.000  H
  H300     1.0000 0.37400  0.89560  0.81580  Biso   1.000  H
  H301     1.0000 0.12600  0.39560  0.68420  Biso   1.000  H
  H302     1.0000 0.87400  0.60440  0.68420  Biso   1.000  H
  H303     1.0000 0.12600  0.60440  0.81580  Biso   1.000  H
  H304     1.0000 0.87400  0.39560  0.81580  Biso   1.000  H
  H305     1.0000 0.48660  0.08980  0.26800  Biso   1.000  H
  H306     1.0000 0.51340  0.91020  0.26800  Biso   1.000  H
  H307     1.0000 0.48660  0.91020  0.23200  Biso   1.000  H
  H308     1.0000 0.51340  0.08980  0.23200  Biso   1.000  H
  H309     1.0000 0.98660  0.58980  0.26800  Biso   1.000  H
  H310     1.0000 0.01340  0.41020  0.26800  Biso   1.000  H
  H311     1.0000 0.98660  0.41020  0.23200  Biso   1.000  H
  H312     1.0000 0.01340  0.58980  0.23200  Biso   1.000  H
  H313     1.0000 0.51340  0.91020  0.73200  Biso   1.000  H
  H314     1.0000 0.48660  0.08980  0.73200  Biso   1.000  H
  H315     1.0000 0.51340  0.08980  0.76800  Biso   1.000  H
  H316     1.0000 0.48660  0.91020  0.76800  Biso   1.000  H
  H317     1.0000 0.01340  0.41020  0.73200  Biso   1.000  H
  H318     1.0000 0.98660  0.58980  0.73200  Biso   1.000  H
  H319     1.0000 0.01340  0.58980  0.76800  Biso   1.000  H
  H320     1.0000 0.98660  0.41020  0.76800  Biso   1.000  H
  O153     1.0000 0.72100  0.18680  0.24030  Biso   1.000  O
  O154     1.0000 0.27900  0.81320  0.24030  Biso   1.000  O
  O155     1.0000 0.72100  0.81320  0.25970  Biso   1.000  O
  O156     1.0000 0.27900  0.18680  0.25970  Biso   1.000  O
  O157     1.0000 0.22100  0.68680  0.24030  Biso   1.000  O
  O158     1.0000 0.77900  0.31320  0.24030  Biso   1.000  O
  O159     1.0000 0.22100  0.31320  0.25970  Biso   1.000  O
  O160     1.0000 0.77900  0.68680  0.25970  Biso   1.000  O
  O161     1.0000 0.27900  0.81320  0.75970  Biso   1.000  O
  O162     1.0000 0.72100  0.18680  0.75970  Biso   1.000  O
  O163     1.0000 0.27900  0.18680  0.74030  Biso   1.000  O
  O164     1.0000 0.72100  0.81320  0.74030  Biso   1.000  O
  O165     1.0000 0.77900  0.31320  0.75970  Biso   1.000  O
  O166     1.0000 0.22100  0.68680  0.75970  Biso   1.000  O
  O167     1.0000 0.77900  0.68680  0.74030  Biso   1.000  O
  O168     1.0000 0.22100  0.31320  0.74030  Biso   1.000  O
  H321     1.0000 0.80520  0.16810  0.21980  Biso   1.000  H
  H322     1.0000 0.19480  0.83190  0.21980  Biso   1.000  H
  H323     1.0000 0.80520  0.83190  0.28020  Biso   1.000  H
  H324     1.0000 0.19480  0.16810  0.28020  Biso   1.000  H
  H325     1.0000 0.30520  0.66810  0.21980  Biso   1.000  H
  H326     1.0000 0.69480  0.33190  0.21980  Biso   1.000  H
  H327     1.0000 0.30520  0.33190  0.28020  Biso   1.000  H
  H328     1.0000 0.69480  0.66810  0.28020  Biso   1.000  H
  H329     1.0000 0.19480  0.83190  0.78020  Biso   1.000  H
  H330     1.0000 0.80520  0.16810  0.78020  Biso   1.000  H
  H331     1.0000 0.19480  0.16810  0.71980  Biso   1.000  H
  H332     1.0000 0.80520  0.83190  0.71980  Biso   1.000  H
  H333     1.0000 0.69480  0.33190  0.78020  Biso   1.000  H
  H334     1.0000 0.30520  0.66810  0.78020  Biso   1.000  H
  H335     1.0000 0.69480  0.66810  0.71980  Biso   1.000  H
  H336     1.0000 0.30520  0.33190  0.71980  Biso   1.000  H
  H337     1.0000 0.64470  0.19420  0.21150  Biso   1.000  H
  H338     1.0000 0.35530  0.80580  0.21150  Biso   1.000  H
  H339     1.0000 0.64470  0.80580  0.28850  Biso   1.000  H
  H340     1.0000 0.35530  0.19420  0.28850  Biso   1.000  H
  H341     1.0000 0.14470  0.69420  0.21150  Biso   1.000  H
  H342     1.0000 0.85530  0.30580  0.21150  Biso   1.000  H
  H343     1.0000 0.14470  0.30580  0.28850  Biso   1.000  H
  H344     1.0000 0.85530  0.69420  0.28850  Biso   1.000  H
  H345     1.0000 0.35530  0.80580  0.78850  Biso   1.000  H
  H346     1.0000 0.64470  0.19420  0.78850  Biso   1.000  H
  H347     1.0000 0.35530  0.19420  0.71150  Biso   1.000  H
  H348     1.0000 0.64470  0.80580  0.71150  Biso   1.000  H
  H349     1.0000 0.85530  0.30580  0.78850  Biso   1.000  H
  H350     1.0000 0.14470  0.69420  0.78850  Biso   1.000  H
  H351     1.0000 0.85530  0.69420  0.71150  Biso   1.000  H
  H352     1.0000 0.14470  0.30580  0.71150  Biso   1.000  H
  O169     1.0000 0.95600  0.53050  0.33460  Biso   1.000  O
  O170     1.0000 0.04400  0.46950  0.33460  Biso   1.000  O
  O171     1.0000 0.95600  0.46950  0.16540  Biso   1.000  O
  O172     1.0000 0.04400  0.53050  0.16540  Biso   1.000  O
  O173     1.0000 0.45600  0.03050  0.33460  Biso   1.000  O
  O174     1.0000 0.54400  0.96950  0.33460  Biso   1.000  O
  O175     1.0000 0.45600  0.96950  0.16540  Biso   1.000  O
  O176     1.0000 0.54400  0.03050  0.16540  Biso   1.000  O
  O177     1.0000 0.04400  0.46950  0.66540  Biso   1.000  O
  O178     1.0000 0.95600  0.53050  0.66540  Biso   1.000  O
  O179     1.0000 0.04400  0.53050  0.83460  Biso   1.000  O
  O180     1.0000 0.95600  0.46950  0.83460  Biso   1.000  O
  O181     1.0000 0.54400  0.96950  0.66540  Biso   1.000  O
  O182     1.0000 0.45600  0.03050  0.66540  Biso   1.000  O
  O183     1.0000 0.54400  0.03050  0.83460  Biso   1.000  O
  O184     1.0000 0.45600  0.96950  0.83460  Biso   1.000  O
  H353     1.0000 0.96600  0.54550  0.29590  Biso   1.000  H
  H354     1.0000 0.03400  0.45450  0.29590  Biso   1.000  H
  H355     1.0000 0.96600  0.45450  0.20410  Biso   1.000  H
  H356     1.0000 0.03400  0.54550  0.20410  Biso   1.000  H
  H357     1.0000 0.46600  0.04550  0.29590  Biso   1.000  H
  H358     1.0000 0.53400  0.95450  0.29590  Biso   1.000  H
  H359     1.0000 0.46600  0.95450  0.20410  Biso   1.000  H
  H360     1.0000 0.53400  0.04550  0.20410  Biso   1.000  H
  H361     1.0000 0.03400  0.45450  0.70410  Biso   1.000  H
  H362     1.0000 0.96600  0.54550  0.70410  Biso   1.000  H
  H363     1.0000 0.03400  0.54550  0.79590  Biso   1.000  H
  H364     1.0000 0.96600  0.45450  0.79590  Biso   1.000  H
  H365     1.0000 0.53400  0.95450  0.70410  Biso   1.000  H
  H366     1.0000 0.46600  0.04550  0.70410  Biso   1.000  H
  H367     1.0000 0.53400  0.04550  0.79590  Biso   1.000  H
  H368     1.0000 0.46600  0.95450  0.79590  Biso   1.000  H
  H369     1.0000 0.05280  0.53940  0.35210  Biso   1.000  H
  H370     1.0000 0.94720  0.46060  0.35210  Biso   1.000  H
  H371     1.0000 0.05280  0.46060  0.14790  Biso   1.000  H
  H372     1.0000 0.94720  0.53940  0.14790  Biso   1.000  H
  H373     1.0000 0.55280  0.03940  0.35210  Biso   1.000  H
  H374     1.0000 0.44720  0.96060  0.35210  Biso   1.000  H
  H375     1.0000 0.55280  0.96060  0.14790  Biso   1.000  H
  H376     1.0000 0.44720  0.03940  0.14790  Biso   1.000  H
  H377     1.0000 0.94720  0.46060  0.64790  Biso   1.000  H
  H378     1.0000 0.05280  0.53940  0.64790  Biso   1.000  H
  H379     1.0000 0.94720  0.53940  0.85210  Biso   1.000  H
  H380     1.0000 0.05280  0.46060  0.85210  Biso   1.000  H
  H381     1.0000 0.44720  0.96060  0.64790  Biso   1.000  H
  H382     1.0000 0.55280  0.03940  0.64790  Biso   1.000  H
  H383     1.0000 0.44720  0.03940  0.85210  Biso   1.000  H
  H384     1.0000 0.55280  0.96060  0.85210  Biso   1.000  H
  O185     1.0000 0.61100  0.43680  0.03930  Biso   1.000  O
  O186     1.0000 0.38900  0.56320  0.03930  Biso   1.000  O
  O187     1.0000 0.61100  0.56320  0.46070  Biso   1.000  O
  O188     1.0000 0.38900  0.43680  0.46070  Biso   1.000  O
  O189     1.0000 0.11100  0.93680  0.03930  Biso   1.000  O
  O190     1.0000 0.88900  0.06320  0.03930  Biso   1.000  O
  O191     1.0000 0.11100  0.06320  0.46070  Biso   1.000  O
  O192     1.0000 0.88900  0.93680  0.46070  Biso   1.000  O
  O193     1.0000 0.38900  0.56320  0.96070  Biso   1.000  O
  O194     1.0000 0.61100  0.43680  0.96070  Biso   1.000  O
  O195     1.0000 0.38900  0.43680  0.53930  Biso   1.000  O
  O196     1.0000 0.61100  0.56320  0.53930  Biso   1.000  O
  O197     1.0000 0.88900  0.06320  0.96070  Biso   1.000  O
  O198     1.0000 0.11100  0.93680  0.96070  Biso   1.000  O
  O199     1.0000 0.88900  0.93680  0.53930  Biso   1.000  O
  O200     1.0000 0.11100  0.06320  0.53930  Biso   1.000  O
  H385     1.0000 0.63800  0.42270  0.07720  Biso   1.000  H
  H386     1.0000 0.36200  0.57730  0.07720  Biso   1.000  H
  H387     1.0000 0.63800  0.57730  0.42280  Biso   1.000  H
  H388     1.0000 0.36200  0.42270  0.42280  Biso   1.000  H
  H389     1.0000 0.13800  0.92270  0.07720  Biso   1.000  H
  H390     1.0000 0.86200  0.07730  0.07720  Biso   1.000  H
  H391     1.0000 0.13800  0.07730  0.42280  Biso   1.000  H
  H392     1.0000 0.86200  0.92270  0.42280  Biso   1.000  H
  H393     1.0000 0.36200  0.57730  0.92280  Biso   1.000  H
  H394     1.0000 0.63800  0.42270  0.92280  Biso   1.000  H
  H395     1.0000 0.36200  0.42270  0.57720  Biso   1.000  H
  H396     1.0000 0.63800  0.57730  0.57720  Biso   1.000  H
  H397     1.0000 0.86200  0.07730  0.92280  Biso   1.000  H
  H398     1.0000 0.13800  0.92270  0.92280  Biso   1.000  H
  H399     1.0000 0.86200  0.92270  0.57720  Biso   1.000  H
  H400     1.0000 0.13800  0.07730  0.57720  Biso   1.000  H
  H401     1.0000 0.52910  0.40910  0.02790  Biso   1.000  H
  H402     1.0000 0.47090  0.59090  0.02790  Biso   1.000  H
  H403     1.0000 0.52910  0.59090  0.47210  Biso   1.000  H
  H404     1.0000 0.47090  0.40910  0.47210  Biso   1.000  H
  H405     1.0000 0.02910  0.90910  0.02790  Biso   1.000  H
  H406     1.0000 0.97090  0.09090  0.02790  Biso   1.000  H
  H407     1.0000 0.02910  0.09090  0.47210  Biso   1.000  H
  H408     1.0000 0.97090  0.90910  0.47210  Biso   1.000  H
  H409     1.0000 0.47090  0.59090  0.97210  Biso   1.000  H
  H410     1.0000 0.52910  0.40910  0.97210  Biso   1.000  H
  H411     1.0000 0.47090  0.40910  0.52790  Biso   1.000  H
  H412     1.0000 0.52910  0.59090  0.52790  Biso   1.000  H
  H413     1.0000 0.97090  0.09090  0.97210  Biso   1.000  H
  H414     1.0000 0.02910  0.90910  0.97210  Biso   1.000  H
  H415     1.0000 0.97090  0.90910  0.52790  Biso   1.000  H
  H416     1.0000 0.02910  0.09090  0.52790  Biso   1.000  H
