data_image0
_cell_length_a       39.952
_cell_length_b       15.031
_cell_length_c       16.253
_cell_angle_alpha    90
_cell_angle_beta     90
_cell_angle_gamma    90

_symmetry_space_group_name_H-M    "P 1"
_symmetry_int_tables_number       1

loop_
  _symmetry_equiv_pos_as_xyz
  'x, y, z'

loop_
  _atom_site_label
  _atom_site_occupancy
  _atom_site_fract_x
  _atom_site_fract_y
  _atom_site_fract_z
  _atom_site_thermal_displace_type
  _atom_site_B_iso_or_equiv
  _atom_site_type_symbol
  Cu1      1.0000 0.75000  0.25000  0.50000  Biso   1.000  Cu
  Cu2      1.0000 0.25000  0.75000  0.50000  Biso   1.000  Cu
  C1       1.0000 0.49430  0.75000  0.50000  Biso   1.000  C
  C2       1.0000 0.00570  0.75000  0.50000  Biso   1.000  C
  C3       1.0000 0.50570  0.25000  0.50000  Biso   1.000  C
  C4       1.0000 0.99430  0.25000  0.50000  Biso   1.000  C
  N1       1.0000 0.28600  0.75260  0.91310  Biso   1.000  N
  N2       1.0000 0.21400  0.74740  0.91310  Biso   1.000  N
  N3       1.0000 0.21400  0.75260  0.08690  Biso   1.000  N
  N4       1.0000 0.28600  0.74740  0.08690  Biso   1.000  N
  N5       1.0000 0.71400  0.24740  0.08690  Biso   1.000  N
  N6       1.0000 0.78600  0.25260  0.08690  Biso   1.000  N
  N7       1.0000 0.78600  0.24740  0.91310  Biso   1.000  N
  N8       1.0000 0.71400  0.25260  0.91310  Biso   1.000  N
  O1       1.0000 0.53970  0.84110  0.54270  Biso   1.000  O
  O2       1.0000 0.96030  0.65890  0.54270  Biso   1.000  O
  O3       1.0000 0.96030  0.84110  0.45730  Biso   1.000  O
  O4       1.0000 0.53970  0.65890  0.45730  Biso   1.000  O
  O5       1.0000 0.46030  0.15890  0.45730  Biso   1.000  O
  O6       1.0000 0.03970  0.34110  0.45730  Biso   1.000  O
  O7       1.0000 0.03970  0.15890  0.54270  Biso   1.000  O
  O8       1.0000 0.46030  0.34110  0.54270  Biso   1.000  O
  C5       1.0000 0.42460  0.72030  0.64240  Biso   1.000  C
  C6       1.0000 0.07540  0.77970  0.64240  Biso   1.000  C
  C7       1.0000 0.07540  0.72030  0.35760  Biso   1.000  C
  C8       1.0000 0.42460  0.77970  0.35760  Biso   1.000  C
  C9       1.0000 0.57540  0.27970  0.35760  Biso   1.000  C
  C10      1.0000 0.92460  0.22030  0.35760  Biso   1.000  C
  C11      1.0000 0.92460  0.27970  0.64240  Biso   1.000  C
  C12      1.0000 0.57540  0.22030  0.64240  Biso   1.000  C
  Cu3      1.0000 0.25000  0.75000  0.00000  Biso   1.000  Cu
  Cu4      1.0000 0.75000  0.25000  0.00000  Biso   1.000  Cu
  O9       1.0000 0.25000  0.91620  0.00000  Biso   1.000  O
  O10      1.0000 0.25000  0.58380  0.00000  Biso   1.000  O
  O11      1.0000 0.75000  0.08380  0.00000  Biso   1.000  O
  O12      1.0000 0.75000  0.41620  0.00000  Biso   1.000  O
  N9       1.0000 0.71360  0.15510  0.49460  Biso   1.000  N
  N10      1.0000 0.78640  0.34490  0.49460  Biso   1.000  N
  N11      1.0000 0.78640  0.15510  0.50540  Biso   1.000  N
  N12      1.0000 0.71360  0.34490  0.50540  Biso   1.000  N
  N13      1.0000 0.28640  0.84490  0.50540  Biso   1.000  N
  N14      1.0000 0.21360  0.65510  0.50540  Biso   1.000  N
  N15      1.0000 0.21360  0.84490  0.49460  Biso   1.000  N
  N16      1.0000 0.28640  0.65510  0.49460  Biso   1.000  N
  O13      1.0000 0.45100  0.70540  0.59210  Biso   1.000  O
  O14      1.0000 0.04900  0.79460  0.59210  Biso   1.000  O
  O15      1.0000 0.04900  0.70540  0.40790  Biso   1.000  O
  O16      1.0000 0.45100  0.79460  0.40790  Biso   1.000  O
  O17      1.0000 0.54900  0.29460  0.40790  Biso   1.000  O
  O18      1.0000 0.95100  0.20540  0.40790  Biso   1.000  O
  O19      1.0000 0.95100  0.29460  0.59210  Biso   1.000  O
  O20      1.0000 0.54900  0.20540  0.59210  Biso   1.000  O
  O21      1.0000 0.75000  0.25000  0.35180  Biso   1.000  O
  O22      1.0000 0.75000  0.25000  0.64820  Biso   1.000  O
  O23      1.0000 0.25000  0.75000  0.64820  Biso   1.000  O
  O24      1.0000 0.25000  0.75000  0.35180  Biso   1.000  O
  C13      1.0000 0.40200  0.65250  0.64950  Biso   1.000  C
  C14      1.0000 0.09800  0.84750  0.64950  Biso   1.000  C
  C15      1.0000 0.09800  0.65250  0.35050  Biso   1.000  C
  C16      1.0000 0.40200  0.84750  0.35050  Biso   1.000  C
  C17      1.0000 0.59800  0.34750  0.35050  Biso   1.000  C
  C18      1.0000 0.90200  0.15250  0.35050  Biso   1.000  C
  C19      1.0000 0.90200  0.34750  0.64950  Biso   1.000  C
  C20      1.0000 0.59800  0.15250  0.64950  Biso   1.000  C
  H1       1.0000 0.40490  0.59950  0.61960  Biso   1.000  H
  H2       1.0000 0.09510  0.90050  0.61960  Biso   1.000  H
  H3       1.0000 0.09510  0.59950  0.38040  Biso   1.000  H
  H4       1.0000 0.40490  0.90050  0.38040  Biso   1.000  H
  H5       1.0000 0.59510  0.40050  0.38040  Biso   1.000  H
  H6       1.0000 0.90490  0.09950  0.38040  Biso   1.000  H
  H7       1.0000 0.90490  0.40050  0.61960  Biso   1.000  H
  H8       1.0000 0.59510  0.09950  0.61960  Biso   1.000  H
  C21      1.0000 0.37460  0.66270  0.70130  Biso   1.000  C
  C22      1.0000 0.12540  0.83730  0.70130  Biso   1.000  C
  C23      1.0000 0.12540  0.66270  0.29870  Biso   1.000  C
  C24      1.0000 0.37460  0.83730  0.29870  Biso   1.000  C
  C25      1.0000 0.62540  0.33730  0.29870  Biso   1.000  C
  C26      1.0000 0.87460  0.16270  0.29870  Biso   1.000  C
  C27      1.0000 0.87460  0.33730  0.70130  Biso   1.000  C
  C28      1.0000 0.62540  0.16270  0.70130  Biso   1.000  C
  H9       1.0000 0.35950  0.61510  0.70620  Biso   1.000  H
  H10      1.0000 0.14050  0.88490  0.70620  Biso   1.000  H
  H11      1.0000 0.14050  0.61510  0.29380  Biso   1.000  H
  H12      1.0000 0.35950  0.88490  0.29380  Biso   1.000  H
  H13      1.0000 0.64050  0.38490  0.29380  Biso   1.000  H
  H14      1.0000 0.85950  0.11510  0.29380  Biso   1.000  H
  H15      1.0000 0.85950  0.38490  0.70620  Biso   1.000  H
  H16      1.0000 0.64050  0.11510  0.70620  Biso   1.000  H
  C29      1.0000 0.36850  0.73760  0.74510  Biso   1.000  C
  C30      1.0000 0.13150  0.76240  0.74510  Biso   1.000  C
  C31      1.0000 0.13150  0.73760  0.25490  Biso   1.000  C
  C32      1.0000 0.36850  0.76240  0.25490  Biso   1.000  C
  C33      1.0000 0.63150  0.26240  0.25490  Biso   1.000  C
  C34      1.0000 0.86850  0.23760  0.25490  Biso   1.000  C
  C35      1.0000 0.86850  0.26240  0.74510  Biso   1.000  C
  C36      1.0000 0.63150  0.23760  0.74510  Biso   1.000  C
  C37      1.0000 0.39190  0.80370  0.73650  Biso   1.000  C
  C38      1.0000 0.10810  0.69630  0.73650  Biso   1.000  C
  C39      1.0000 0.10810  0.80370  0.26350  Biso   1.000  C
  C40      1.0000 0.39190  0.69630  0.26350  Biso   1.000  C
  C41      1.0000 0.60810  0.19630  0.26350  Biso   1.000  C
  C42      1.0000 0.89190  0.30370  0.26350  Biso   1.000  C
  C43      1.0000 0.89190  0.19630  0.73650  Biso   1.000  C
  C44      1.0000 0.60810  0.30370  0.73650  Biso   1.000  C
  H17      1.0000 0.38870  0.85670  0.76630  Biso   1.000  H
  H18      1.0000 0.11130  0.64330  0.76630  Biso   1.000  H
  H19      1.0000 0.11130  0.85670  0.23370  Biso   1.000  H
  H20      1.0000 0.38870  0.64330  0.23370  Biso   1.000  H
  H21      1.0000 0.61130  0.14330  0.23370  Biso   1.000  H
  H22      1.0000 0.88870  0.35670  0.23370  Biso   1.000  H
  H23      1.0000 0.88870  0.14330  0.76630  Biso   1.000  H
  H24      1.0000 0.61130  0.35670  0.76630  Biso   1.000  H
  C45      1.0000 0.41980  0.79740  0.68730  Biso   1.000  C
  C46      1.0000 0.08020  0.70260  0.68730  Biso   1.000  C
  C47      1.0000 0.08020  0.79740  0.31270  Biso   1.000  C
  C48      1.0000 0.41980  0.70260  0.31270  Biso   1.000  C
  C49      1.0000 0.58020  0.20260  0.31270  Biso   1.000  C
  C50      1.0000 0.91980  0.29740  0.31270  Biso   1.000  C
  C51      1.0000 0.91980  0.20260  0.68730  Biso   1.000  C
  C52      1.0000 0.58020  0.29740  0.68730  Biso   1.000  C
  H25      1.0000 0.43520  0.84450  0.68410  Biso   1.000  H
  H26      1.0000 0.06480  0.65550  0.68410  Biso   1.000  H
  H27      1.0000 0.06480  0.84450  0.31590  Biso   1.000  H
  H28      1.0000 0.43520  0.65550  0.31590  Biso   1.000  H
  H29      1.0000 0.56480  0.15550  0.31590  Biso   1.000  H
  H30      1.0000 0.93520  0.34450  0.31590  Biso   1.000  H
  H31      1.0000 0.93520  0.15550  0.68410  Biso   1.000  H
  H32      1.0000 0.56480  0.34450  0.68410  Biso   1.000  H
  C53      1.0000 0.33990  0.74340  0.80020  Biso   1.000  C
  C54      1.0000 0.16010  0.75660  0.80020  Biso   1.000  C
  C55      1.0000 0.16010  0.74340  0.19980  Biso   1.000  C
  C56      1.0000 0.33990  0.75660  0.19980  Biso   1.000  C
  C57      1.0000 0.66010  0.25660  0.19980  Biso   1.000  C
  C58      1.0000 0.83990  0.24340  0.19980  Biso   1.000  C
  C59      1.0000 0.83990  0.25660  0.80020  Biso   1.000  C
  C60      1.0000 0.66010  0.24340  0.80020  Biso   1.000  C
  C61      1.0000 0.31290  0.68570  0.79700  Biso   1.000  C
  C62      1.0000 0.18710  0.81430  0.79700  Biso   1.000  C
  C63      1.0000 0.18710  0.68570  0.20300  Biso   1.000  C
  C64      1.0000 0.31290  0.81430  0.20300  Biso   1.000  C
  C65      1.0000 0.68710  0.31430  0.20300  Biso   1.000  C
  C66      1.0000 0.81290  0.18570  0.20300  Biso   1.000  C
  C67      1.0000 0.81290  0.31430  0.79700  Biso   1.000  C
  C68      1.0000 0.68710  0.18570  0.79700  Biso   1.000  C
  H33      1.0000 0.31180  0.64160  0.75610  Biso   1.000  H
  H34      1.0000 0.18820  0.85840  0.75610  Biso   1.000  H
  H35      1.0000 0.18820  0.64160  0.24390  Biso   1.000  H
  H36      1.0000 0.31180  0.85840  0.24390  Biso   1.000  H
  H37      1.0000 0.68820  0.35840  0.24390  Biso   1.000  H
  H38      1.0000 0.81180  0.14160  0.24390  Biso   1.000  H
  H39      1.0000 0.81180  0.35840  0.75610  Biso   1.000  H
  H40      1.0000 0.68820  0.14160  0.75610  Biso   1.000  H
  C69      1.0000 0.47290  0.77700  0.57290  Biso   1.000  C
  C70      1.0000 0.02710  0.72300  0.57290  Biso   1.000  C
  C71      1.0000 0.02710  0.77700  0.42710  Biso   1.000  C
  C72      1.0000 0.47290  0.72300  0.42710  Biso   1.000  C
  C73      1.0000 0.52710  0.22300  0.42710  Biso   1.000  C
  C74      1.0000 0.97290  0.27700  0.42710  Biso   1.000  C
  C75      1.0000 0.97290  0.22300  0.57290  Biso   1.000  C
  C76      1.0000 0.52710  0.27700  0.57290  Biso   1.000  C
  H41      1.0000 0.48720  0.79050  0.62040  Biso   1.000  H
  H42      1.0000 0.01280  0.70950  0.62040  Biso   1.000  H
  H43      1.0000 0.01280  0.79050  0.37960  Biso   1.000  H
  H44      1.0000 0.48720  0.70950  0.37960  Biso   1.000  H
  H45      1.0000 0.51280  0.20950  0.37960  Biso   1.000  H
  H46      1.0000 0.98720  0.29050  0.37960  Biso   1.000  H
  H47      1.0000 0.98720  0.20950  0.62040  Biso   1.000  H
  H48      1.0000 0.51280  0.29050  0.62040  Biso   1.000  H
  H49      1.0000 0.45990  0.83030  0.55940  Biso   1.000  H
  H50      1.0000 0.04010  0.66970  0.55940  Biso   1.000  H
  H51      1.0000 0.04010  0.83030  0.44060  Biso   1.000  H
  H52      1.0000 0.45990  0.66970  0.44060  Biso   1.000  H
  H53      1.0000 0.54010  0.16970  0.44060  Biso   1.000  H
  H54      1.0000 0.95990  0.33030  0.44060  Biso   1.000  H
  H55      1.0000 0.95990  0.16970  0.55940  Biso   1.000  H
  H56      1.0000 0.54010  0.33030  0.55940  Biso   1.000  H
  C77      1.0000 0.28750  0.69360  0.85470  Biso   1.000  C
  C78      1.0000 0.21250  0.80640  0.85470  Biso   1.000  C
  C79      1.0000 0.21250  0.69360  0.14530  Biso   1.000  C
  C80      1.0000 0.28750  0.80640  0.14530  Biso   1.000  C
  C81      1.0000 0.71250  0.30640  0.14530  Biso   1.000  C
  C82      1.0000 0.78750  0.19360  0.14530  Biso   1.000  C
  C83      1.0000 0.78750  0.30640  0.85470  Biso   1.000  C
  C84      1.0000 0.71250  0.19360  0.85470  Biso   1.000  C
  H57      1.0000 0.26970  0.65260  0.85130  Biso   1.000  H
  H58      1.0000 0.23030  0.84740  0.85130  Biso   1.000  H
  H59      1.0000 0.23030  0.65260  0.14870  Biso   1.000  H
  H60      1.0000 0.26970  0.84740  0.14870  Biso   1.000  H
  H61      1.0000 0.73030  0.34740  0.14870  Biso   1.000  H
  H62      1.0000 0.76970  0.15260  0.14870  Biso   1.000  H
  H63      1.0000 0.76970  0.34740  0.85130  Biso   1.000  H
  H64      1.0000 0.73030  0.15260  0.85130  Biso   1.000  H
  C85      1.0000 0.31120  0.80930  0.91560  Biso   1.000  C
  C86      1.0000 0.18880  0.69070  0.91560  Biso   1.000  C
  C87      1.0000 0.18880  0.80930  0.08440  Biso   1.000  C
  C88      1.0000 0.31120  0.69070  0.08440  Biso   1.000  C
  C89      1.0000 0.68880  0.19070  0.08440  Biso   1.000  C
  C90      1.0000 0.81120  0.30930  0.08440  Biso   1.000  C
  C91      1.0000 0.81120  0.19070  0.91560  Biso   1.000  C
  C92      1.0000 0.68880  0.30930  0.91560  Biso   1.000  C
  H65      1.0000 0.31090  0.85400  0.95600  Biso   1.000  H
  H66      1.0000 0.18910  0.64600  0.95600  Biso   1.000  H
  H67      1.0000 0.18910  0.85400  0.04400  Biso   1.000  H
  H68      1.0000 0.31090  0.64600  0.04400  Biso   1.000  H
  H69      1.0000 0.68910  0.14600  0.04400  Biso   1.000  H
  H70      1.0000 0.81090  0.35400  0.04400  Biso   1.000  H
  H71      1.0000 0.81090  0.14600  0.95600  Biso   1.000  H
  H72      1.0000 0.68910  0.35400  0.95600  Biso   1.000  H
  C93      1.0000 0.33840  0.80610  0.86080  Biso   1.000  C
  C94      1.0000 0.16160  0.69390  0.86080  Biso   1.000  C
  C95      1.0000 0.16160  0.80610  0.13920  Biso   1.000  C
  C96      1.0000 0.33840  0.69390  0.13920  Biso   1.000  C
  C97      1.0000 0.66160  0.19390  0.13920  Biso   1.000  C
  C98      1.0000 0.83840  0.30610  0.13920  Biso   1.000  C
  C99      1.0000 0.83840  0.19390  0.86080  Biso   1.000  C
  C100     1.0000 0.66160  0.30610  0.86080  Biso   1.000  C
  H73      1.0000 0.35590  0.84770  0.86600  Biso   1.000  H
  H74      1.0000 0.14410  0.65230  0.86600  Biso   1.000  H
  H75      1.0000 0.14410  0.84770  0.13400  Biso   1.000  H
  H76      1.0000 0.35590  0.65230  0.13400  Biso   1.000  H
  H77      1.0000 0.64410  0.15230  0.13400  Biso   1.000  H
  H78      1.0000 0.85590  0.34770  0.13400  Biso   1.000  H
  H79      1.0000 0.85590  0.15230  0.86600  Biso   1.000  H
  H80      1.0000 0.64410  0.34770  0.86600  Biso   1.000  H
  C101     1.0000 0.51650  0.82820  0.47670  Biso   1.000  C
  C102     1.0000 0.98350  0.67180  0.47670  Biso   1.000  C
  C103     1.0000 0.98350  0.82820  0.52330  Biso   1.000  C
  C104     1.0000 0.51650  0.67180  0.52330  Biso   1.000  C
  C105     1.0000 0.48350  0.17180  0.52330  Biso   1.000  C
  C106     1.0000 0.01650  0.32820  0.52330  Biso   1.000  C
  C107     1.0000 0.01650  0.17180  0.47670  Biso   1.000  C
  C108     1.0000 0.48350  0.32820  0.47670  Biso   1.000  C
  H81      1.0000 0.52850  0.81550  0.42540  Biso   1.000  H
  H82      1.0000 0.97150  0.68450  0.42540  Biso   1.000  H
  H83      1.0000 0.97150  0.81550  0.57460  Biso   1.000  H
  H84      1.0000 0.52850  0.68450  0.57460  Biso   1.000  H
  H85      1.0000 0.47150  0.18450  0.57460  Biso   1.000  H
  H86      1.0000 0.02850  0.31550  0.57460  Biso   1.000  H
  H87      1.0000 0.02850  0.18450  0.42540  Biso   1.000  H
  H88      1.0000 0.47150  0.31550  0.42540  Biso   1.000  H
  H89      1.0000 0.50300  0.88190  0.46870  Biso   1.000  H
  H90      1.0000 0.99700  0.61810  0.46870  Biso   1.000  H
  H91      1.0000 0.99700  0.88190  0.53130  Biso   1.000  H
  H92      1.0000 0.50300  0.61810  0.53130  Biso   1.000  H
  H93      1.0000 0.49700  0.11810  0.53130  Biso   1.000  H
  H94      1.0000 0.00300  0.38190  0.53130  Biso   1.000  H
  H95      1.0000 0.00300  0.11810  0.46870  Biso   1.000  H
  H96      1.0000 0.49700  0.38190  0.46870  Biso   1.000  H
  C109     1.0000 0.56760  0.89010  0.52660  Biso   1.000  C
  C110     1.0000 0.93240  0.60990  0.52660  Biso   1.000  C
  C111     1.0000 0.93240  0.89010  0.47340  Biso   1.000  C
  C112     1.0000 0.56760  0.60990  0.47340  Biso   1.000  C
  C113     1.0000 0.43240  0.10990  0.47340  Biso   1.000  C
  C114     1.0000 0.06760  0.39010  0.47340  Biso   1.000  C
  C115     1.0000 0.06760  0.10990  0.52660  Biso   1.000  C
  C116     1.0000 0.43240  0.39010  0.52660  Biso   1.000  C
  C117     1.0000 0.57160  0.94620  0.46200  Biso   1.000  C
  C118     1.0000 0.92840  0.55380  0.46200  Biso   1.000  C
  C119     1.0000 0.92840  0.94620  0.53800  Biso   1.000  C
  C120     1.0000 0.57160  0.55380  0.53800  Biso   1.000  C
  C121     1.0000 0.42840  0.05380  0.53800  Biso   1.000  C
  C122     1.0000 0.07160  0.44620  0.53800  Biso   1.000  C
  C123     1.0000 0.07160  0.05380  0.46200  Biso   1.000  C
  C124     1.0000 0.42840  0.44620  0.46200  Biso   1.000  C
  H97      1.0000 0.55430  0.95230  0.42320  Biso   1.000  H
  H98      1.0000 0.94570  0.54770  0.42320  Biso   1.000  H
  H99      1.0000 0.94570  0.95230  0.57680  Biso   1.000  H
  H100     1.0000 0.55430  0.54770  0.57680  Biso   1.000  H
  H101     1.0000 0.44570  0.04770  0.57680  Biso   1.000  H
  H102     1.0000 0.05430  0.45230  0.57680  Biso   1.000  H
  H103     1.0000 0.05430  0.04770  0.42320  Biso   1.000  H
  H104     1.0000 0.44570  0.45230  0.42320  Biso   1.000  H
  C125     1.0000 0.60080  0.99480  0.45210  Biso   1.000  C
  C126     1.0000 0.89920  0.50520  0.45210  Biso   1.000  C
  C127     1.0000 0.89920  0.99480  0.54790  Biso   1.000  C
  C128     1.0000 0.60080  0.50520  0.54790  Biso   1.000  C
  C129     1.0000 0.39920  0.00520  0.54790  Biso   1.000  C
  C130     1.0000 0.10080  0.49480  0.54790  Biso   1.000  C
  C131     1.0000 0.10080  0.00520  0.45210  Biso   1.000  C
  C132     1.0000 0.39920  0.49480  0.45210  Biso   1.000  C
  H105     1.0000 0.60310  0.03250  0.40630  Biso   1.000  H
  H106     1.0000 0.89690  0.46750  0.40630  Biso   1.000  H
  H107     1.0000 0.89690  0.03250  0.59370  Biso   1.000  H
  H108     1.0000 0.60310  0.46750  0.59370  Biso   1.000  H
  H109     1.0000 0.39690  0.96750  0.59370  Biso   1.000  H
  H110     1.0000 0.10310  0.53250  0.59370  Biso   1.000  H
  H111     1.0000 0.10310  0.96750  0.40630  Biso   1.000  H
  H112     1.0000 0.39690  0.53250  0.40630  Biso   1.000  H
  C133     1.0000 0.62700  0.98840  0.50970  Biso   1.000  C
  C134     1.0000 0.87300  0.51160  0.50970  Biso   1.000  C
  C135     1.0000 0.87300  0.98840  0.49030  Biso   1.000  C
  C136     1.0000 0.62700  0.51160  0.49030  Biso   1.000  C
  C137     1.0000 0.37300  0.01160  0.49030  Biso   1.000  C
  C138     1.0000 0.12700  0.48840  0.49030  Biso   1.000  C
  C139     1.0000 0.12700  0.01160  0.50970  Biso   1.000  C
  C140     1.0000 0.37300  0.48840  0.50970  Biso   1.000  C
  C141     1.0000 0.62190  0.93210  0.57570  Biso   1.000  C
  C142     1.0000 0.87810  0.56790  0.57570  Biso   1.000  C
  C143     1.0000 0.87810  0.93210  0.42430  Biso   1.000  C
  C144     1.0000 0.62190  0.56790  0.42430  Biso   1.000  C
  C145     1.0000 0.37810  0.06790  0.42430  Biso   1.000  C
  C146     1.0000 0.12190  0.43210  0.42430  Biso   1.000  C
  C147     1.0000 0.12190  0.06790  0.57570  Biso   1.000  C
  C148     1.0000 0.37810  0.43210  0.57570  Biso   1.000  C
  H113     1.0000 0.63860  0.92670  0.61600  Biso   1.000  H
  H114     1.0000 0.86140  0.57330  0.61600  Biso   1.000  H
  H115     1.0000 0.86140  0.92670  0.38400  Biso   1.000  H
  H116     1.0000 0.63860  0.57330  0.38400  Biso   1.000  H
  H117     1.0000 0.36140  0.07330  0.38400  Biso   1.000  H
  H118     1.0000 0.13860  0.42670  0.38400  Biso   1.000  H
  H119     1.0000 0.13860  0.07330  0.61600  Biso   1.000  H
  H120     1.0000 0.36140  0.42670  0.61600  Biso   1.000  H
  C149     1.0000 0.59290  0.88380  0.58390  Biso   1.000  C
  C150     1.0000 0.90710  0.61620  0.58390  Biso   1.000  C
  C151     1.0000 0.90710  0.88380  0.41610  Biso   1.000  C
  C152     1.0000 0.59290  0.61620  0.41610  Biso   1.000  C
  C153     1.0000 0.40710  0.11620  0.41610  Biso   1.000  C
  C154     1.0000 0.09290  0.38380  0.41610  Biso   1.000  C
  C155     1.0000 0.09290  0.11620  0.58390  Biso   1.000  C
  C156     1.0000 0.40710  0.38380  0.58390  Biso   1.000  C
  H121     1.0000 0.59030  0.84580  0.62940  Biso   1.000  H
  H122     1.0000 0.90970  0.65420  0.62940  Biso   1.000  H
  H123     1.0000 0.90970  0.84580  0.37060  Biso   1.000  H
  H124     1.0000 0.59030  0.65420  0.37060  Biso   1.000  H
  H125     1.0000 0.40970  0.15420  0.37060  Biso   1.000  H
  H126     1.0000 0.09030  0.34580  0.37060  Biso   1.000  H
  H127     1.0000 0.09030  0.15420  0.62940  Biso   1.000  H
  H128     1.0000 0.40970  0.34580  0.62940  Biso   1.000  H
  C157     1.0000 0.65730  0.04530  0.50170  Biso   1.000  C
  C158     1.0000 0.84270  0.45470  0.50170  Biso   1.000  C
  C159     1.0000 0.84270  0.04530  0.49830  Biso   1.000  C
  C160     1.0000 0.65730  0.45470  0.49830  Biso   1.000  C
  C161     1.0000 0.34270  0.95470  0.49830  Biso   1.000  C
  C162     1.0000 0.15730  0.54530  0.49830  Biso   1.000  C
  C163     1.0000 0.15730  0.95470  0.50170  Biso   1.000  C
  C164     1.0000 0.34270  0.54530  0.50170  Biso   1.000  C
  C165     1.0000 0.65990  0.10980  0.44520  Biso   1.000  C
  C166     1.0000 0.84010  0.39020  0.44520  Biso   1.000  C
  C167     1.0000 0.84010  0.10980  0.55480  Biso   1.000  C
  C168     1.0000 0.65990  0.39020  0.55480  Biso   1.000  C
  C169     1.0000 0.34010  0.89020  0.55480  Biso   1.000  C
  C170     1.0000 0.15990  0.60980  0.55480  Biso   1.000  C
  C171     1.0000 0.15990  0.89020  0.44520  Biso   1.000  C
  C172     1.0000 0.34010  0.60980  0.44520  Biso   1.000  C
  H129     1.0000 0.64240  0.11850  0.40740  Biso   1.000  H
  H130     1.0000 0.85760  0.38150  0.40740  Biso   1.000  H
  H131     1.0000 0.85760  0.11850  0.59260  Biso   1.000  H
  H132     1.0000 0.64240  0.38150  0.59260  Biso   1.000  H
  H133     1.0000 0.35760  0.88150  0.59260  Biso   1.000  H
  H134     1.0000 0.14240  0.61850  0.59260  Biso   1.000  H
  H135     1.0000 0.14240  0.88150  0.40740  Biso   1.000  H
  H136     1.0000 0.35760  0.61850  0.40740  Biso   1.000  H
  C173     1.0000 0.68810  0.16450  0.44130  Biso   1.000  C
  C174     1.0000 0.81190  0.33550  0.44130  Biso   1.000  C
  C175     1.0000 0.81190  0.16450  0.55870  Biso   1.000  C
  C176     1.0000 0.68810  0.33550  0.55870  Biso   1.000  C
  C177     1.0000 0.31190  0.83550  0.55870  Biso   1.000  C
  C178     1.0000 0.18810  0.66450  0.55870  Biso   1.000  C
  C179     1.0000 0.18810  0.83550  0.44130  Biso   1.000  C
  C180     1.0000 0.31190  0.66450  0.44130  Biso   1.000  C
  H137     1.0000 0.68930  0.20880  0.40060  Biso   1.000  H
  H138     1.0000 0.81070  0.29120  0.40060  Biso   1.000  H
  H139     1.0000 0.81070  0.20880  0.59940  Biso   1.000  H
  H140     1.0000 0.68930  0.29120  0.59940  Biso   1.000  H
  H141     1.0000 0.31070  0.79120  0.59940  Biso   1.000  H
  H142     1.0000 0.18930  0.70880  0.59940  Biso   1.000  H
  H143     1.0000 0.18930  0.79120  0.40060  Biso   1.000  H
  H144     1.0000 0.31070  0.70880  0.40060  Biso   1.000  H
  C181     1.0000 0.71130  0.09060  0.55120  Biso   1.000  C
  C182     1.0000 0.78870  0.40940  0.55120  Biso   1.000  C
  C183     1.0000 0.78870  0.09060  0.44880  Biso   1.000  C
  C184     1.0000 0.71130  0.40940  0.44880  Biso   1.000  C
  C185     1.0000 0.28870  0.90940  0.44880  Biso   1.000  C
  C186     1.0000 0.21130  0.59060  0.44880  Biso   1.000  C
  C187     1.0000 0.21130  0.90940  0.55120  Biso   1.000  C
  C188     1.0000 0.28870  0.59060  0.55120  Biso   1.000  C
  H145     1.0000 0.72900  0.08300  0.58850  Biso   1.000  H
  H146     1.0000 0.77100  0.41700  0.58850  Biso   1.000  H
  H147     1.0000 0.77100  0.08300  0.41150  Biso   1.000  H
  H148     1.0000 0.72900  0.41700  0.41150  Biso   1.000  H
  H149     1.0000 0.27100  0.91700  0.41150  Biso   1.000  H
  H150     1.0000 0.22900  0.58300  0.41150  Biso   1.000  H
  H151     1.0000 0.22900  0.91700  0.58850  Biso   1.000  H
  H152     1.0000 0.27100  0.58300  0.58850  Biso   1.000  H
  C189     1.0000 0.68410  0.03530  0.55700  Biso   1.000  C
  C190     1.0000 0.81590  0.46470  0.55700  Biso   1.000  C
  C191     1.0000 0.81590  0.03530  0.44300  Biso   1.000  C
  C192     1.0000 0.68410  0.46470  0.44300  Biso   1.000  C
  C193     1.0000 0.31590  0.96470  0.44300  Biso   1.000  C
  C194     1.0000 0.18410  0.53530  0.44300  Biso   1.000  C
  C195     1.0000 0.18410  0.96470  0.55700  Biso   1.000  C
  C196     1.0000 0.31590  0.53530  0.55700  Biso   1.000  C
  H153     1.0000 0.68340  0.99090  0.59770  Biso   1.000  H
  H154     1.0000 0.81660  0.50910  0.59770  Biso   1.000  H
  H155     1.0000 0.81660  0.99090  0.40230  Biso   1.000  H
  H156     1.0000 0.68340  0.50910  0.40230  Biso   1.000  H
  H157     1.0000 0.31660  0.00910  0.40230  Biso   1.000  H
  H158     1.0000 0.18340  0.49090  0.40230  Biso   1.000  H
  H159     1.0000 0.18340  0.00910  0.59770  Biso   1.000  H
  H160     1.0000 0.31660  0.49090  0.59770  Biso   1.000  H
  N17      1.0000 0.69540  0.91670  0.73200  Biso   1.000  N
  N18      1.0000 0.80460  0.58330  0.73200  Biso   1.000  N
  N19      1.0000 0.80460  0.91670  0.26800  Biso   1.000  N
  N20      1.0000 0.69540  0.58330  0.26800  Biso   1.000  N
  N21      1.0000 0.30460  0.08330  0.26800  Biso   1.000  N
  N22      1.0000 0.19540  0.41670  0.26800  Biso   1.000  N
  N23      1.0000 0.19540  0.08330  0.73200  Biso   1.000  N
  N24      1.0000 0.30460  0.41670  0.73200  Biso   1.000  N
  O25      1.0000 0.72230  0.96200  0.74000  Biso   1.000  O
  O26      1.0000 0.77770  0.53800  0.74000  Biso   1.000  O
  O27      1.0000 0.77770  0.96200  0.26000  Biso   1.000  O
  O28      1.0000 0.72230  0.53800  0.26000  Biso   1.000  O
  O29      1.0000 0.27770  0.03800  0.26000  Biso   1.000  O
  O30      1.0000 0.22230  0.46200  0.26000  Biso   1.000  O
  O31      1.0000 0.22230  0.03800  0.74000  Biso   1.000  O
  O32      1.0000 0.27770  0.46200  0.74000  Biso   1.000  O
  O33      1.0000 0.69580  0.84300  0.69300  Biso   1.000  O
  O34      1.0000 0.80420  0.65700  0.69300  Biso   1.000  O
  O35      1.0000 0.80420  0.84300  0.30700  Biso   1.000  O
  O36      1.0000 0.69580  0.65700  0.30700  Biso   1.000  O
  O37      1.0000 0.30420  0.15700  0.30700  Biso   1.000  O
  O38      1.0000 0.19580  0.34300  0.30700  Biso   1.000  O
  O39      1.0000 0.19580  0.15700  0.69300  Biso   1.000  O
  O40      1.0000 0.30420  0.34300  0.69300  Biso   1.000  O
  O41      1.0000 0.66810  0.94500  0.76300  Biso   1.000  O
  O42      1.0000 0.83190  0.55500  0.76300  Biso   1.000  O
  O43      1.0000 0.83190  0.94500  0.23700  Biso   1.000  O
  O44      1.0000 0.66810  0.55500  0.23700  Biso   1.000  O
  O45      1.0000 0.33190  0.05500  0.23700  Biso   1.000  O
  O46      1.0000 0.16810  0.44500  0.23700  Biso   1.000  O
  O47      1.0000 0.16810  0.05500  0.76300  Biso   1.000  O
  O48      1.0000 0.33190  0.44500  0.76300  Biso   1.000  O
  N25      1.0000 0.48560  0.00800  0.26610  Biso   1.000  N
  N26      1.0000 0.01440  0.49200  0.26610  Biso   1.000  N
  N27      1.0000 0.01440  0.00800  0.73390  Biso   1.000  N
  N28      1.0000 0.48560  0.49200  0.73390  Biso   1.000  N
  N29      1.0000 0.51440  0.99200  0.73390  Biso   1.000  N
  N30      1.0000 0.98560  0.50800  0.73390  Biso   1.000  N
  N31      1.0000 0.98560  0.99200  0.26610  Biso   1.000  N
  N32      1.0000 0.51440  0.50800  0.26610  Biso   1.000  N
  O49      1.0000 0.50990  0.01900  0.32100  Biso   1.000  O
  O50      1.0000 0.99010  0.48100  0.32100  Biso   1.000  O
  O51      1.0000 0.99010  0.01900  0.67900  Biso   1.000  O
  O52      1.0000 0.50990  0.48100  0.67900  Biso   1.000  O
  O53      1.0000 0.49010  0.98100  0.67900  Biso   1.000  O
  O54      1.0000 0.00990  0.51900  0.67900  Biso   1.000  O
  O55      1.0000 0.00990  0.98100  0.32100  Biso   1.000  O
  O56      1.0000 0.49010  0.51900  0.32100  Biso   1.000  O
  O57      1.0000 0.47890  0.92600  0.23800  Biso   1.000  O
  O58      1.0000 0.02110  0.57400  0.23800  Biso   1.000  O
  O59      1.0000 0.02110  0.92600  0.76200  Biso   1.000  O
  O60      1.0000 0.47890  0.57400  0.76200  Biso   1.000  O
  O61      1.0000 0.52110  0.07400  0.76200  Biso   1.000  O
  O62      1.0000 0.97890  0.42600  0.76200  Biso   1.000  O
  O63      1.0000 0.97890  0.07400  0.23800  Biso   1.000  O
  O64      1.0000 0.52110  0.42600  0.23800  Biso   1.000  O
  O65      1.0000 0.46810  0.07700  0.24000  Biso   1.000  O
  O66      1.0000 0.03190  0.42300  0.24000  Biso   1.000  O
  O67      1.0000 0.03190  0.07700  0.76000  Biso   1.000  O
  O68      1.0000 0.46810  0.42300  0.76000  Biso   1.000  O
  O69      1.0000 0.53190  0.92300  0.76000  Biso   1.000  O
  O70      1.0000 0.96810  0.57700  0.76000  Biso   1.000  O
  O71      1.0000 0.96810  0.92300  0.24000  Biso   1.000  O
  O72      1.0000 0.53190  0.57700  0.24000  Biso   1.000  O
  O73      1.0000 0.73120  0.08990  0.27370  Biso   1.000  O
  O74      1.0000 0.76880  0.41010  0.27370  Biso   1.000  O
  O75      1.0000 0.76880  0.08990  0.72630  Biso   1.000  O
  O76      1.0000 0.73120  0.41010  0.72630  Biso   1.000  O
  O77      1.0000 0.26880  0.91010  0.72630  Biso   1.000  O
  O78      1.0000 0.23120  0.58990  0.72630  Biso   1.000  O
  O79      1.0000 0.23120  0.91010  0.27370  Biso   1.000  O
  O80      1.0000 0.26880  0.58990  0.27370  Biso   1.000  O
  H161     1.0000 0.74040  0.14080  0.27380  Biso   1.000  H
  H162     1.0000 0.75960  0.35920  0.27380  Biso   1.000  H
  H163     1.0000 0.75960  0.14080  0.72620  Biso   1.000  H
  H164     1.0000 0.74040  0.35920  0.72620  Biso   1.000  H
  H165     1.0000 0.25960  0.85920  0.72620  Biso   1.000  H
  H166     1.0000 0.24040  0.64080  0.72620  Biso   1.000  H
  H167     1.0000 0.24040  0.85920  0.27380  Biso   1.000  H
  H168     1.0000 0.25960  0.64080  0.27380  Biso   1.000  H
  H169     1.0000 0.74610  0.05120  0.26600  Biso   1.000  H
  H170     1.0000 0.75390  0.44880  0.26600  Biso   1.000  H
  H171     1.0000 0.75390  0.05120  0.73400  Biso   1.000  H
  H172     1.0000 0.74610  0.44880  0.73400  Biso   1.000  H
  H173     1.0000 0.25390  0.94880  0.73400  Biso   1.000  H
  H174     1.0000 0.24610  0.55120  0.73400  Biso   1.000  H
  H175     1.0000 0.24610  0.94880  0.26600  Biso   1.000  H
  H176     1.0000 0.25390  0.55120  0.26600  Biso   1.000  H
  O81      1.0000 0.45900  0.24300  0.25200  Biso   1.000  O
  O82      1.0000 0.04100  0.25700  0.25200  Biso   1.000  O
  O83      1.0000 0.04100  0.24300  0.74800  Biso   1.000  O
  O84      1.0000 0.45900  0.25700  0.74800  Biso   1.000  O
  O85      1.0000 0.54100  0.75700  0.74800  Biso   1.000  O
  O86      1.0000 0.95900  0.74300  0.74800  Biso   1.000  O
  O87      1.0000 0.95900  0.75700  0.25200  Biso   1.000  O
  O88      1.0000 0.54100  0.74300  0.25200  Biso   1.000  O
  H177     1.0000 0.44790  0.28160  0.23160  Biso   1.000  H
  H178     1.0000 0.05210  0.21840  0.23160  Biso   1.000  H
  H179     1.0000 0.05210  0.28160  0.76840  Biso   1.000  H
  H180     1.0000 0.44790  0.21840  0.76840  Biso   1.000  H
  H181     1.0000 0.55210  0.71840  0.76840  Biso   1.000  H
  H182     1.0000 0.94790  0.78160  0.76840  Biso   1.000  H
  H183     1.0000 0.94790  0.71840  0.23160  Biso   1.000  H
  H184     1.0000 0.55210  0.78160  0.23160  Biso   1.000  H
  H185     1.0000 0.47610  0.26660  0.27760  Biso   1.000  H
  H186     1.0000 0.02390  0.23340  0.27760  Biso   1.000  H
  H187     1.0000 0.02390  0.26660  0.72240  Biso   1.000  H
  H188     1.0000 0.47610  0.23340  0.72240  Biso   1.000  H
  H189     1.0000 0.52390  0.73340  0.72240  Biso   1.000  H
  H190     1.0000 0.97610  0.76660  0.72240  Biso   1.000  H
  H191     1.0000 0.97610  0.73340  0.27760  Biso   1.000  H
  H192     1.0000 0.52390  0.76660  0.27760  Biso   1.000  H
  O89      1.0000 0.55310  0.99100  0.24200  Biso   1.000  O
  O90      1.0000 0.94690  0.50900  0.24200  Biso   1.000  O
  O91      1.0000 0.94690  0.99100  0.75800  Biso   1.000  O
  O92      1.0000 0.55310  0.50900  0.75800  Biso   1.000  O
  O93      1.0000 0.44690  0.00900  0.75800  Biso   1.000  O
  O94      1.0000 0.05310  0.49100  0.75800  Biso   1.000  O
  O95      1.0000 0.05310  0.00900  0.24200  Biso   1.000  O
  O96      1.0000 0.44690  0.49100  0.24200  Biso   1.000  O
  H193     1.0000 0.53650  0.00250  0.27230  Biso   1.000  H
  H194     1.0000 0.96350  0.49750  0.27230  Biso   1.000  H
  H195     1.0000 0.96350  0.00250  0.72770  Biso   1.000  H
  H196     1.0000 0.53650  0.49750  0.72770  Biso   1.000  H
  H197     1.0000 0.46350  0.99750  0.72770  Biso   1.000  H
  H198     1.0000 0.03650  0.50250  0.72770  Biso   1.000  H
  H199     1.0000 0.03650  0.99750  0.27230  Biso   1.000  H
  H200     1.0000 0.46350  0.50250  0.27230  Biso   1.000  H
  H201     1.0000 0.57610  0.96530  0.23860  Biso   1.000  H
  H202     1.0000 0.92390  0.53470  0.23860  Biso   1.000  H
  H203     1.0000 0.92390  0.96530  0.76140  Biso   1.000  H
  H204     1.0000 0.57610  0.53470  0.76140  Biso   1.000  H
  H205     1.0000 0.42390  0.03470  0.76140  Biso   1.000  H
  H206     1.0000 0.07610  0.46530  0.76140  Biso   1.000  H
  H207     1.0000 0.07610  0.03470  0.23860  Biso   1.000  H
  H208     1.0000 0.42390  0.46530  0.23860  Biso   1.000  H
  C197     1.0000 0.64560  0.86300  0.31200  Biso   1.000  C
  C198     1.0000 0.85440  0.63700  0.31200  Biso   1.000  C
  C199     1.0000 0.85440  0.86300  0.68800  Biso   1.000  C
  C200     1.0000 0.64560  0.63700  0.68800  Biso   1.000  C
  C201     1.0000 0.35440  0.13700  0.68800  Biso   1.000  C
  C202     1.0000 0.14560  0.36300  0.68800  Biso   1.000  C
  C203     1.0000 0.14560  0.13700  0.31200  Biso   1.000  C
  C204     1.0000 0.35440  0.36300  0.31200  Biso   1.000  C
  H209     1.0000 0.64500  0.83620  0.36610  Biso   1.000  H
  H210     1.0000 0.85500  0.66380  0.36610  Biso   1.000  H
  H211     1.0000 0.85500  0.83620  0.63390  Biso   1.000  H
  H212     1.0000 0.64500  0.66380  0.63390  Biso   1.000  H
  H213     1.0000 0.35500  0.16380  0.63390  Biso   1.000  H
  H214     1.0000 0.14500  0.33620  0.63390  Biso   1.000  H
  H215     1.0000 0.14500  0.16380  0.36610  Biso   1.000  H
  H216     1.0000 0.35500  0.33620  0.36610  Biso   1.000  H
  H217     1.0000 0.64910  0.81740  0.27070  Biso   1.000  H
  H218     1.0000 0.85090  0.68260  0.27070  Biso   1.000  H
  H219     1.0000 0.85090  0.81740  0.72930  Biso   1.000  H
  H220     1.0000 0.64910  0.68260  0.72930  Biso   1.000  H
  H221     1.0000 0.35090  0.18260  0.72930  Biso   1.000  H
  H222     1.0000 0.14910  0.31740  0.72930  Biso   1.000  H
  H223     1.0000 0.14910  0.18260  0.27070  Biso   1.000  H
  H224     1.0000 0.35090  0.31740  0.27070  Biso   1.000  H
  H225     1.0000 0.62460  0.89330  0.30130  Biso   1.000  H
  H226     1.0000 0.87540  0.60670  0.30130  Biso   1.000  H
  H227     1.0000 0.87540  0.89330  0.69870  Biso   1.000  H
  H228     1.0000 0.62460  0.60670  0.69870  Biso   1.000  H
  H229     1.0000 0.37540  0.10670  0.69870  Biso   1.000  H
  H230     1.0000 0.12460  0.39330  0.69870  Biso   1.000  H
  H231     1.0000 0.12460  0.10670  0.30130  Biso   1.000  H
  H232     1.0000 0.37540  0.39330  0.30130  Biso   1.000  H
  C205     1.0000 0.66710  0.00320  0.25690  Biso   1.000  C
  C206     1.0000 0.83290  0.49680  0.25690  Biso   1.000  C
  C207     1.0000 0.83290  0.00320  0.74310  Biso   1.000  C
  C208     1.0000 0.66710  0.49680  0.74310  Biso   1.000  C
  C209     1.0000 0.33290  0.99680  0.74310  Biso   1.000  C
  C210     1.0000 0.16710  0.50320  0.74310  Biso   1.000  C
  C211     1.0000 0.16710  0.99680  0.25690  Biso   1.000  C
  C212     1.0000 0.33290  0.50320  0.25690  Biso   1.000  C
  H233     1.0000 0.67600  0.05570  0.28390  Biso   1.000  H
  H234     1.0000 0.82400  0.44430  0.28390  Biso   1.000  H
  H235     1.0000 0.82400  0.05570  0.71610  Biso   1.000  H
  H236     1.0000 0.67600  0.44430  0.71610  Biso   1.000  H
  H237     1.0000 0.32400  0.94430  0.71610  Biso   1.000  H
  H238     1.0000 0.17600  0.55570  0.71610  Biso   1.000  H
  H239     1.0000 0.17600  0.94430  0.28390  Biso   1.000  H
  H240     1.0000 0.32400  0.55570  0.28390  Biso   1.000  H
  H241     1.0000 0.64330  0.01070  0.24760  Biso   1.000  H
  H242     1.0000 0.85670  0.48930  0.24760  Biso   1.000  H
  H243     1.0000 0.85670  0.01070  0.75240  Biso   1.000  H
  H244     1.0000 0.64330  0.48930  0.75240  Biso   1.000  H
  H245     1.0000 0.35670  0.98930  0.75240  Biso   1.000  H
  H246     1.0000 0.14330  0.51070  0.75240  Biso   1.000  H
  H247     1.0000 0.14330  0.98930  0.24760  Biso   1.000  H
  H248     1.0000 0.35670  0.51070  0.24760  Biso   1.000  H
  H249     1.0000 0.67840  0.99480  0.20460  Biso   1.000  H
  H250     1.0000 0.82160  0.50520  0.20460  Biso   1.000  H
  H251     1.0000 0.82160  0.99480  0.79540  Biso   1.000  H
  H252     1.0000 0.67840  0.50520  0.79540  Biso   1.000  H
  H253     1.0000 0.32160  0.00520  0.79540  Biso   1.000  H
  H254     1.0000 0.17840  0.49480  0.79540  Biso   1.000  H
  H255     1.0000 0.17840  0.00520  0.20460  Biso   1.000  H
  H256     1.0000 0.32160  0.49480  0.20460  Biso   1.000  H
  N33      1.0000 0.67260  0.92700  0.30800  Biso   1.000  N
  N34      1.0000 0.82740  0.57300  0.30800  Biso   1.000  N
  N35      1.0000 0.82740  0.92700  0.69200  Biso   1.000  N
  N36      1.0000 0.67260  0.57300  0.69200  Biso   1.000  N
  N37      1.0000 0.32740  0.07300  0.69200  Biso   1.000  N
  N38      1.0000 0.17260  0.42700  0.69200  Biso   1.000  N
  N39      1.0000 0.17260  0.07300  0.30800  Biso   1.000  N
  N40      1.0000 0.32740  0.42700  0.30800  Biso   1.000  N
  C213     1.0000 0.70160  0.91500  0.35100  Biso   1.000  C
  C214     1.0000 0.79840  0.58500  0.35100  Biso   1.000  C
  C215     1.0000 0.79840  0.91500  0.64900  Biso   1.000  C
  C216     1.0000 0.70160  0.58500  0.64900  Biso   1.000  C
  C217     1.0000 0.29840  0.08500  0.64900  Biso   1.000  C
  C218     1.0000 0.20160  0.41500  0.64900  Biso   1.000  C
  C219     1.0000 0.20160  0.08500  0.35100  Biso   1.000  C
  C220     1.0000 0.29840  0.41500  0.35100  Biso   1.000  C
  H257     1.0000 0.71880  0.95730  0.34750  Biso   1.000  H
  H258     1.0000 0.78120  0.54270  0.34750  Biso   1.000  H
  H259     1.0000 0.78120  0.95730  0.65250  Biso   1.000  H
  H260     1.0000 0.71880  0.54270  0.65250  Biso   1.000  H
  H261     1.0000 0.28120  0.04270  0.65250  Biso   1.000  H
  H262     1.0000 0.21880  0.45730  0.65250  Biso   1.000  H
  H263     1.0000 0.21880  0.04270  0.34750  Biso   1.000  H
  H264     1.0000 0.28120  0.45730  0.34750  Biso   1.000  H
  O97      1.0000 0.70510  0.85100  0.39200  Biso   1.000  O
  O98      1.0000 0.79490  0.64900  0.39200  Biso   1.000  O
  O99      1.0000 0.79490  0.85100  0.60800  Biso   1.000  O
  O100     1.0000 0.70510  0.64900  0.60800  Biso   1.000  O
  O101     1.0000 0.29490  0.14900  0.60800  Biso   1.000  O
  O102     1.0000 0.20510  0.35100  0.60800  Biso   1.000  O
  O103     1.0000 0.20510  0.14900  0.39200  Biso   1.000  O
  O104     1.0000 0.29490  0.35100  0.39200  Biso   1.000  O
  C221     1.0000 0.41910  0.83600  0.00200  Biso   1.000  C
  C222     1.0000 0.08090  0.66400  0.00200  Biso   1.000  C
  C223     1.0000 0.08090  0.83600  0.99800  Biso   1.000  C
  C224     1.0000 0.41910  0.66400  0.99800  Biso   1.000  C
  C225     1.0000 0.58090  0.16400  0.99800  Biso   1.000  C
  C226     1.0000 0.91910  0.33600  0.99800  Biso   1.000  C
  C227     1.0000 0.91910  0.16400  0.00200  Biso   1.000  C
  C228     1.0000 0.58090  0.33600  0.00200  Biso   1.000  C
  H265     1.0000 0.41780  0.80030  0.05110  Biso   1.000  H
  H266     1.0000 0.08220  0.69970  0.05110  Biso   1.000  H
  H267     1.0000 0.08220  0.80030  0.94890  Biso   1.000  H
  H268     1.0000 0.41780  0.69970  0.94890  Biso   1.000  H
  H269     1.0000 0.58220  0.19970  0.94890  Biso   1.000  H
  H270     1.0000 0.91780  0.30030  0.94890  Biso   1.000  H
  H271     1.0000 0.91780  0.19970  0.05110  Biso   1.000  H
  H272     1.0000 0.58220  0.30030  0.05110  Biso   1.000  H
  H273     1.0000 0.44220  0.85210  0.99110  Biso   1.000  H
  H274     1.0000 0.05780  0.64790  0.99110  Biso   1.000  H
  H275     1.0000 0.05780  0.85210  0.00890  Biso   1.000  H
  H276     1.0000 0.44220  0.64790  0.00890  Biso   1.000  H
  H277     1.0000 0.55780  0.14790  0.00890  Biso   1.000  H
  H278     1.0000 0.94220  0.35210  0.00890  Biso   1.000  H
  H279     1.0000 0.94220  0.14790  0.99110  Biso   1.000  H
  H280     1.0000 0.55780  0.35210  0.99110  Biso   1.000  H
  H281     1.0000 0.41040  0.80250  0.95530  Biso   1.000  H
  H282     1.0000 0.08960  0.69750  0.95530  Biso   1.000  H
  H283     1.0000 0.08960  0.80250  0.04470  Biso   1.000  H
  H284     1.0000 0.41040  0.69750  0.04470  Biso   1.000  H
  H285     1.0000 0.58960  0.19750  0.04470  Biso   1.000  H
  H286     1.0000 0.91040  0.30250  0.04470  Biso   1.000  H
  H287     1.0000 0.91040  0.19750  0.95530  Biso   1.000  H
  H288     1.0000 0.58960  0.30250  0.95530  Biso   1.000  H
  C229     1.0000 0.40180  0.98000  0.94700  Biso   1.000  C
  C230     1.0000 0.09820  0.52000  0.94700  Biso   1.000  C
  C231     1.0000 0.09820  0.98000  0.05300  Biso   1.000  C
  C232     1.0000 0.40180  0.52000  0.05300  Biso   1.000  C
  C233     1.0000 0.59820  0.02000  0.05300  Biso   1.000  C
  C234     1.0000 0.90180  0.48000  0.05300  Biso   1.000  C
  C235     1.0000 0.90180  0.02000  0.94700  Biso   1.000  C
  C236     1.0000 0.59820  0.48000  0.94700  Biso   1.000  C
  H289     1.0000 0.38490  0.96740  0.90550  Biso   1.000  H
  H290     1.0000 0.11510  0.53260  0.90550  Biso   1.000  H
  H291     1.0000 0.11510  0.96740  0.09450  Biso   1.000  H
  H292     1.0000 0.38490  0.53260  0.09450  Biso   1.000  H
  H293     1.0000 0.61510  0.03260  0.09450  Biso   1.000  H
  H294     1.0000 0.88490  0.46740  0.09450  Biso   1.000  H
  H295     1.0000 0.88490  0.03260  0.90550  Biso   1.000  H
  H296     1.0000 0.61510  0.46740  0.90550  Biso   1.000  H
  H297     1.0000 0.42380  0.97690  0.92170  Biso   1.000  H
  H298     1.0000 0.07620  0.52310  0.92170  Biso   1.000  H
  H299     1.0000 0.07620  0.97690  0.07830  Biso   1.000  H
  H300     1.0000 0.42380  0.52310  0.07830  Biso   1.000  H
  H301     1.0000 0.57620  0.02310  0.07830  Biso   1.000  H
  H302     1.0000 0.92380  0.47690  0.07830  Biso   1.000  H
  H303     1.0000 0.92380  0.02310  0.92170  Biso   1.000  H
  H304     1.0000 0.57620  0.47690  0.92170  Biso   1.000  H
  H305     1.0000 0.39820  0.03940  0.96870  Biso   1.000  H
  H306     1.0000 0.10180  0.46060  0.96870  Biso   1.000  H
  H307     1.0000 0.10180  0.03940  0.03130  Biso   1.000  H
  H308     1.0000 0.39820  0.46060  0.03130  Biso   1.000  H
  H309     1.0000 0.60180  0.96060  0.03130  Biso   1.000  H
  H310     1.0000 0.89820  0.53940  0.03130  Biso   1.000  H
  H311     1.0000 0.89820  0.96060  0.96870  Biso   1.000  H
  H312     1.0000 0.60180  0.53940  0.96870  Biso   1.000  H
  N41      1.0000 0.39950  0.91600  0.01200  Biso   1.000  N
  N42      1.0000 0.10050  0.58400  0.01200  Biso   1.000  N
  N43      1.0000 0.10050  0.91600  0.98800  Biso   1.000  N
  N44      1.0000 0.39950  0.58400  0.98800  Biso   1.000  N
  N45      1.0000 0.60050  0.08400  0.98800  Biso   1.000  N
  N46      1.0000 0.89950  0.41600  0.98800  Biso   1.000  N
  N47      1.0000 0.89950  0.08400  0.01200  Biso   1.000  N
  N48      1.0000 0.60050  0.41600  0.01200  Biso   1.000  N
  C237     1.0000 0.38010  0.93000  0.08000  Biso   1.000  C
  C238     1.0000 0.11990  0.57000  0.08000  Biso   1.000  C
  C239     1.0000 0.11990  0.93000  0.92000  Biso   1.000  C
  C240     1.0000 0.38010  0.57000  0.92000  Biso   1.000  C
  C241     1.0000 0.61990  0.07000  0.92000  Biso   1.000  C
  C242     1.0000 0.88010  0.43000  0.92000  Biso   1.000  C
  C243     1.0000 0.88010  0.07000  0.08000  Biso   1.000  C
  C244     1.0000 0.61990  0.43000  0.08000  Biso   1.000  C
  H313     1.0000 0.37900  0.88690  0.12190  Biso   1.000  H
  H314     1.0000 0.12100  0.61310  0.12190  Biso   1.000  H
  H315     1.0000 0.12100  0.88690  0.87810  Biso   1.000  H
  H316     1.0000 0.37900  0.61310  0.87810  Biso   1.000  H
  H317     1.0000 0.62100  0.11310  0.87810  Biso   1.000  H
  H318     1.0000 0.87900  0.38690  0.87810  Biso   1.000  H
  H319     1.0000 0.87900  0.11310  0.12190  Biso   1.000  H
  H320     1.0000 0.62100  0.38690  0.12190  Biso   1.000  H
  O105     1.0000 0.36450  0.99800  0.08400  Biso   1.000  O
  O106     1.0000 0.13550  0.50200  0.08400  Biso   1.000  O
  O107     1.0000 0.13550  0.99800  0.91600  Biso   1.000  O
  O108     1.0000 0.36450  0.50200  0.91600  Biso   1.000  O
  O109     1.0000 0.63550  0.00200  0.91600  Biso   1.000  O
  O110     1.0000 0.86450  0.49800  0.91600  Biso   1.000  O
  O111     1.0000 0.86450  0.00200  0.08400  Biso   1.000  O
  O112     1.0000 0.63550  0.49800  0.08400  Biso   1.000  O
