data_image0
_cell_length_a       16.4315
_cell_length_b       18.87
_cell_length_c       30.286
_cell_angle_alpha    90
_cell_angle_beta     90
_cell_angle_gamma    90

_symmetry_space_group_name_H-M    "P 1"
_symmetry_int_tables_number       1

loop_
  _symmetry_equiv_pos_as_xyz
  'x, y, z'

loop_
  _atom_site_label
  _atom_site_occupancy
  _atom_site_fract_x
  _atom_site_fract_y
  _atom_site_fract_z
  _atom_site_thermal_displace_type
  _atom_site_B_iso_or_equiv
  _atom_site_type_symbol
  Cu1      1.0000 0.93776  0.11524  0.01124  Biso   1.000  Cu
  Cu2      1.0000 0.56224  0.88476  0.51124  Biso   1.000  Cu
  Cu3      1.0000 0.06224  0.61524  0.48876  Biso   1.000  Cu
  Cu4      1.0000 0.43776  0.38476  0.98876  Biso   1.000  Cu
  Cu5      1.0000 0.09475  0.10202  0.94914  Biso   1.000  Cu
  Cu6      1.0000 0.40525  0.89798  0.44914  Biso   1.000  Cu
  Cu7      1.0000 0.90525  0.60202  0.55086  Biso   1.000  Cu
  Cu8      1.0000 0.59475  0.39798  0.05086  Biso   1.000  Cu
  Cu9      1.0000 0.11695  0.91175  0.94926  Biso   1.000  Cu
  Cu10     1.0000 0.38305  0.08825  0.44926  Biso   1.000  Cu
  Cu11     1.0000 0.88305  0.41175  0.55074  Biso   1.000  Cu
  Cu12     1.0000 0.61695  0.58825  0.05074  Biso   1.000  Cu
  Cu13     1.0000 0.93025  0.93207  0.04765  Biso   1.000  Cu
  Cu14     1.0000 0.56975  0.06793  0.54765  Biso   1.000  Cu
  Cu15     1.0000 0.06975  0.43207  0.45235  Biso   1.000  Cu
  Cu16     1.0000 0.43025  0.56793  0.95235  Biso   1.000  Cu
  O1       1.0000 0.03050  0.81707  0.96024  Biso   1.000  O
  O2       1.0000 0.46950  0.18293  0.46024  Biso   1.000  O
  O3       1.0000 0.96950  0.31707  0.53976  Biso   1.000  O
  O4       1.0000 0.53050  0.68293  0.03976  Biso   1.000  O
  H1       1.0000 0.01800  0.78400  0.94310  Biso   1.000  H
  H2       1.0000 0.48200  0.21600  0.44310  Biso   1.000  H
  H3       1.0000 0.98200  0.28400  0.55690  Biso   1.000  H
  H4       1.0000 0.51800  0.71600  0.05690  Biso   1.000  H
  H5       1.0000 0.98650  0.83700  0.96610  Biso   1.000  H
  H6       1.0000 0.51350  0.16300  0.46610  Biso   1.000  H
  H7       1.0000 0.01350  0.33700  0.53390  Biso   1.000  H
  H8       1.0000 0.48650  0.66300  0.03390  Biso   1.000  H
  O5       1.0000 0.02460  0.84125  0.05622  Biso   1.000  O
  O6       1.0000 0.47540  0.15875  0.55622  Biso   1.000  O
  O7       1.0000 0.97540  0.34125  0.44378  Biso   1.000  O
  O8       1.0000 0.52460  0.65875  0.94378  Biso   1.000  O
  H9       1.0000 0.01700  0.81100  0.03660  Biso   1.000  H
  H10      1.0000 0.48300  0.18900  0.53660  Biso   1.000  H
  H11      1.0000 0.98300  0.31100  0.46340  Biso   1.000  H
  H12      1.0000 0.51700  0.68900  0.96340  Biso   1.000  H
  H13      1.0000 0.06800  0.86100  0.04800  Biso   1.000  H
  H14      1.0000 0.43200  0.13900  0.54800  Biso   1.000  H
  H15      1.0000 0.93200  0.36100  0.45200  Biso   1.000  H
  H16      1.0000 0.56800  0.63900  0.95200  Biso   1.000  H
  O9       1.0000 0.02019  0.16345  0.97782  Biso   1.000  O
  O10      1.0000 0.47981  0.83655  0.47782  Biso   1.000  O
  O11      1.0000 0.97981  0.66345  0.52218  Biso   1.000  O
  O12      1.0000 0.52019  0.33655  0.02218  Biso   1.000  O
  H17      1.0000 0.00500  0.19510  0.96250  Biso   1.000  H
  H18      1.0000 0.49500  0.80490  0.46250  Biso   1.000  H
  H19      1.0000 0.99500  0.69510  0.53750  Biso   1.000  H
  H20      1.0000 0.50500  0.30490  0.03750  Biso   1.000  H
  Cl1      1.0000 0.85326  0.28752  0.95987  Biso   1.000  Cl
  Cl2      1.0000 0.64674  0.71248  0.45987  Biso   1.000  Cl
  Cl3      1.0000 0.14674  0.78752  0.54013  Biso   1.000  Cl
  Cl4      1.0000 0.35326  0.21248  0.04013  Biso   1.000  Cl
  O13      1.0000 0.83430  0.21980  0.97936  Biso   1.000  O
  O14      1.0000 0.66570  0.78020  0.47936  Biso   1.000  O
  O15      1.0000 0.16570  0.71980  0.52064  Biso   1.000  O
  O16      1.0000 0.33430  0.28020  0.02064  Biso   1.000  O
  O17      1.0000 0.93490  0.28547  0.94191  Biso   1.000  O
  O18      1.0000 0.56510  0.71453  0.44191  Biso   1.000  O
  O19      1.0000 0.06510  0.78547  0.55809  Biso   1.000  O
  O20      1.0000 0.43490  0.21453  0.05809  Biso   1.000  O
  O21      1.0000 0.79740  0.30130  0.92554  Biso   1.000  O
  O22      1.0000 0.70260  0.69870  0.42554  Biso   1.000  O
  O23      1.0000 0.20260  0.80130  0.57446  Biso   1.000  O
  O24      1.0000 0.29740  0.19870  0.07446  Biso   1.000  O
  O25      1.0000 0.84800  0.34220  0.99206  Biso   1.000  O
  O26      1.0000 0.65200  0.65780  0.49206  Biso   1.000  O
  O27      1.0000 0.15200  0.84220  0.50794  Biso   1.000  O
  O28      1.0000 0.34800  0.15780  0.00794  Biso   1.000  O
  N1       1.0000 0.84310  0.08757  0.04813  Biso   1.000  N
  N2       1.0000 0.65690  0.91243  0.54813  Biso   1.000  N
  N3       1.0000 0.15690  0.58757  0.45187  Biso   1.000  N
  N4       1.0000 0.34310  0.41243  0.95187  Biso   1.000  N
  N5       1.0000 0.97380  0.15583  0.06918  Biso   1.000  N
  N6       1.0000 0.52620  0.84417  0.56918  Biso   1.000  N
  N7       1.0000 0.02620  0.65583  0.43082  Biso   1.000  N
  N8       1.0000 0.47380  0.34417  0.93082  Biso   1.000  N
  C1       1.0000 0.77530  0.05550  0.03328  Biso   1.000  C
  C2       1.0000 0.72470  0.94450  0.53328  Biso   1.000  C
  C3       1.0000 0.22470  0.55550  0.46672  Biso   1.000  C
  C4       1.0000 0.27530  0.44450  0.96672  Biso   1.000  C
  H21      1.0000 0.76910  0.04800  0.00240  Biso   1.000  H
  H22      1.0000 0.73090  0.95200  0.50240  Biso   1.000  H
  H23      1.0000 0.23090  0.54800  0.49760  Biso   1.000  H
  H24      1.0000 0.26910  0.45200  0.99760  Biso   1.000  H
  C5       1.0000 0.71470  0.03330  0.06134  Biso   1.000  C
  C6       1.0000 0.78530  0.96670  0.56134  Biso   1.000  C
  C7       1.0000 0.28530  0.53330  0.43866  Biso   1.000  C
  C8       1.0000 0.21470  0.46670  0.93866  Biso   1.000  C
  H25      1.0000 0.66730  0.01070  0.05020  Biso   1.000  H
  H26      1.0000 0.83270  0.98930  0.55020  Biso   1.000  H
  H27      1.0000 0.33270  0.51070  0.44980  Biso   1.000  H
  H28      1.0000 0.16730  0.48930  0.94980  Biso   1.000  H
  C9       1.0000 0.72400  0.04440  0.10601  Biso   1.000  C
  C10      1.0000 0.77600  0.95560  0.60601  Biso   1.000  C
  C11      1.0000 0.27600  0.54440  0.39399  Biso   1.000  C
  C12      1.0000 0.22400  0.45560  0.89399  Biso   1.000  C
  H29      1.0000 0.68350  0.02840  0.12600  Biso   1.000  H
  H30      1.0000 0.81650  0.97160  0.62600  Biso   1.000  H
  H31      1.0000 0.31650  0.52840  0.37400  Biso   1.000  H
  H32      1.0000 0.18350  0.47160  0.87400  Biso   1.000  H
  C13      1.0000 0.79210  0.07860  0.12160  Biso   1.000  C
  C14      1.0000 0.70790  0.92140  0.62160  Biso   1.000  C
  C15      1.0000 0.20790  0.57860  0.37840  Biso   1.000  C
  C16      1.0000 0.29210  0.42140  0.87840  Biso   1.000  C
  H33      1.0000 0.79830  0.08760  0.15230  Biso   1.000  H
  H34      1.0000 0.70170  0.91240  0.65230  Biso   1.000  H
  H35      1.0000 0.20170  0.58760  0.34770  Biso   1.000  H
  H36      1.0000 0.29830  0.41240  0.84770  Biso   1.000  H
  C17      1.0000 0.85130  0.09980  0.09198  Biso   1.000  C
  C18      1.0000 0.64870  0.90020  0.59198  Biso   1.000  C
  C19      1.0000 0.14870  0.59980  0.40802  Biso   1.000  C
  C20      1.0000 0.35130  0.40020  0.90802  Biso   1.000  C
  C21      1.0000 0.92780  0.13610  0.10391  Biso   1.000  C
  C22      1.0000 0.57220  0.86390  0.60391  Biso   1.000  C
  C23      1.0000 0.07220  0.63610  0.39609  Biso   1.000  C
  C24      1.0000 0.42780  0.36390  0.89609  Biso   1.000  C
  C25      1.0000 0.95300  0.14800  0.14711  Biso   1.000  C
  C26      1.0000 0.54700  0.85200  0.64711  Biso   1.000  C
  C27      1.0000 0.04700  0.64800  0.35289  Biso   1.000  C
  C28      1.0000 0.45300  0.35200  0.85289  Biso   1.000  C
  H37      1.0000 0.91970  0.13460  0.17130  Biso   1.000  H
  H38      1.0000 0.58030  0.86540  0.67130  Biso   1.000  H
  H39      1.0000 0.08030  0.63460  0.32870  Biso   1.000  H
  H40      1.0000 0.41970  0.36540  0.82870  Biso   1.000  H
  C29      1.0000 0.02830  0.18020  0.15405  Biso   1.000  C
  C30      1.0000 0.47170  0.81980  0.65405  Biso   1.000  C
  C31      1.0000 0.97170  0.68020  0.34595  Biso   1.000  C
  C32      1.0000 0.52830  0.31980  0.84595  Biso   1.000  C
  H41      1.0000 0.04730  0.18840  0.18320  Biso   1.000  H
  H42      1.0000 0.45270  0.81160  0.68320  Biso   1.000  H
  H43      1.0000 0.95270  0.68840  0.31680  Biso   1.000  H
  H44      1.0000 0.54730  0.31160  0.81680  Biso   1.000  H
  C33      1.0000 0.07510  0.20030  0.11821  Biso   1.000  C
  C34      1.0000 0.42490  0.79970  0.61821  Biso   1.000  C
  C35      1.0000 0.92490  0.70030  0.38179  Biso   1.000  C
  C36      1.0000 0.57510  0.29970  0.88179  Biso   1.000  C
  H45      1.0000 0.12630  0.22280  0.12230  Biso   1.000  H
  H46      1.0000 0.37370  0.77720  0.62230  Biso   1.000  H
  H47      1.0000 0.87370  0.72280  0.37770  Biso   1.000  H
  H48      1.0000 0.62630  0.27720  0.87770  Biso   1.000  H
  C37      1.0000 0.04570  0.18700  0.07614  Biso   1.000  C
  C38      1.0000 0.45430  0.81300  0.57614  Biso   1.000  C
  C39      1.0000 0.95430  0.68700  0.42386  Biso   1.000  C
  C40      1.0000 0.54570  0.31300  0.92386  Biso   1.000  C
  H49      1.0000 0.07770  0.20050  0.05140  Biso   1.000  H
  H50      1.0000 0.42230  0.79950  0.55140  Biso   1.000  H
  H51      1.0000 0.92230  0.70050  0.44860  Biso   1.000  H
  H52      1.0000 0.57770  0.29950  0.94860  Biso   1.000  H
  N9       1.0000 0.19330  0.06525  0.91907  Biso   1.000  N
  N10      1.0000 0.30670  0.93475  0.41907  Biso   1.000  N
  N11      1.0000 0.80670  0.56525  0.58093  Biso   1.000  N
  N12      1.0000 0.69330  0.43475  0.08093  Biso   1.000  N
  N13      1.0000 0.05920  0.11630  0.88695  Biso   1.000  N
  N14      1.0000 0.44080  0.88370  0.38695  Biso   1.000  N
  N15      1.0000 0.94080  0.61630  0.61305  Biso   1.000  N
  N16      1.0000 0.55920  0.38370  0.11305  Biso   1.000  N
  C41      1.0000 0.26110  0.04240  0.93926  Biso   1.000  C
  C42      1.0000 0.23890  0.95760  0.43926  Biso   1.000  C
  C43      1.0000 0.73890  0.54240  0.56074  Biso   1.000  C
  C44      1.0000 0.76110  0.45760  0.06074  Biso   1.000  C
  H53      1.0000 0.26430  0.04510  0.97050  Biso   1.000  H
  H54      1.0000 0.23570  0.95490  0.47050  Biso   1.000  H
  H55      1.0000 0.73570  0.54510  0.52950  Biso   1.000  H
  H56      1.0000 0.76430  0.45490  0.02950  Biso   1.000  H
  C45      1.0000 0.32640  0.01490  0.91608  Biso   1.000  C
  C46      1.0000 0.17360  0.98510  0.41608  Biso   1.000  C
  C47      1.0000 0.67360  0.51490  0.58392  Biso   1.000  C
  C48      1.0000 0.82640  0.48510  0.08392  Biso   1.000  C
  H57      1.0000 0.37370  0.99860  0.93100  Biso   1.000  H
  H58      1.0000 0.12630  0.00140  0.43100  Biso   1.000  H
  H59      1.0000 0.62630  0.49860  0.56900  Biso   1.000  H
  H60      1.0000 0.87370  0.50140  0.06900  Biso   1.000  H
  C49      1.0000 0.32100  0.01180  0.87024  Biso   1.000  C
  C50      1.0000 0.17900  0.98820  0.37024  Biso   1.000  C
  C51      1.0000 0.67900  0.51180  0.62976  Biso   1.000  C
  C52      1.0000 0.82100  0.48820  0.12976  Biso   1.000  C
  H61      1.0000 0.36460  0.99280  0.85340  Biso   1.000  H
  H62      1.0000 0.13540  0.00720  0.35340  Biso   1.000  H
  H63      1.0000 0.63540  0.49280  0.64660  Biso   1.000  H
  H64      1.0000 0.86460  0.50720  0.14660  Biso   1.000  H
  C53      1.0000 0.25190  0.03640  0.84928  Biso   1.000  C
  C54      1.0000 0.24810  0.96360  0.34928  Biso   1.000  C
  C55      1.0000 0.74810  0.53640  0.65072  Biso   1.000  C
  C56      1.0000 0.75190  0.46360  0.15072  Biso   1.000  C
  H65      1.0000 0.24800  0.03510  0.81800  Biso   1.000  H
  H66      1.0000 0.25200  0.96490  0.31800  Biso   1.000  H
  H67      1.0000 0.75200  0.53510  0.68200  Biso   1.000  H
  H68      1.0000 0.74800  0.46490  0.18200  Biso   1.000  H
  C57      1.0000 0.18860  0.06320  0.87434  Biso   1.000  C
  C58      1.0000 0.31140  0.93680  0.37434  Biso   1.000  C
  C59      1.0000 0.81140  0.56320  0.62566  Biso   1.000  C
  C60      1.0000 0.68860  0.43680  0.12566  Biso   1.000  C
  C61      1.0000 0.11040  0.08930  0.85648  Biso   1.000  C
  C62      1.0000 0.38960  0.91070  0.35648  Biso   1.000  C
  C63      1.0000 0.88960  0.58930  0.64352  Biso   1.000  C
  C64      1.0000 0.61040  0.41070  0.14352  Biso   1.000  C
  C65      1.0000 0.08800  0.08450  0.81236  Biso   1.000  C
  C66      1.0000 0.41200  0.91550  0.31236  Biso   1.000  C
  C67      1.0000 0.91200  0.58450  0.68764  Biso   1.000  C
  C68      1.0000 0.58800  0.41550  0.18764  Biso   1.000  C
  H69      1.0000 0.12430  0.06510  0.79120  Biso   1.000  H
  H70      1.0000 0.37570  0.93490  0.29120  Biso   1.000  H
  H71      1.0000 0.87570  0.56510  0.70880  Biso   1.000  H
  H72      1.0000 0.62430  0.43490  0.20880  Biso   1.000  H
  C69      1.0000 0.01220  0.10870  0.79992  Biso   1.000  C
  C70      1.0000 0.48780  0.89130  0.29992  Biso   1.000  C
  C71      1.0000 0.98780  0.60870  0.70008  Biso   1.000  C
  C72      1.0000 0.51220  0.39130  0.20008  Biso   1.000  C
  H73      1.0000 0.99590  0.10570  0.76990  Biso   1.000  H
  H74      1.0000 0.50410  0.89430  0.26990  Biso   1.000  H
  H75      1.0000 0.00410  0.60570  0.73010  Biso   1.000  H
  H76      1.0000 0.49590  0.39430  0.23010  Biso   1.000  H
  C73      1.0000 0.96050  0.13680  0.83059  Biso   1.000  C
  C74      1.0000 0.53950  0.86320  0.33059  Biso   1.000  C
  C75      1.0000 0.03950  0.63680  0.66941  Biso   1.000  C
  C76      1.0000 0.46050  0.36320  0.16941  Biso   1.000  C
  H77      1.0000 0.90870  0.15450  0.82210  Biso   1.000  H
  H78      1.0000 0.59130  0.84550  0.32210  Biso   1.000  H
  H79      1.0000 0.09130  0.65450  0.67790  Biso   1.000  H
  H80      1.0000 0.40870  0.34550  0.17790  Biso   1.000  H
  C77      1.0000 0.98530  0.13920  0.87450  Biso   1.000  C
  C78      1.0000 0.51470  0.86080  0.37450  Biso   1.000  C
  C79      1.0000 0.01470  0.63920  0.62550  Biso   1.000  C
  C80      1.0000 0.48530  0.36080  0.12550  Biso   1.000  C
  H81      1.0000 0.94910  0.15740  0.89620  Biso   1.000  H
  H82      1.0000 0.55090  0.84260  0.39620  Biso   1.000  H
  H83      1.0000 0.05090  0.65740  0.60380  Biso   1.000  H
  H84      1.0000 0.44910  0.34260  0.10380  Biso   1.000  H
  N17      1.0000 0.22470  0.86339  0.95151  Biso   1.000  N
  N18      1.0000 0.27530  0.13661  0.45151  Biso   1.000  N
  N19      1.0000 0.77530  0.36339  0.54849  Biso   1.000  N
  N20      1.0000 0.72470  0.63661  0.04849  Biso   1.000  N
  N21      1.0000 0.13220  0.89366  0.88460  Biso   1.000  N
  N22      1.0000 0.36780  0.10634  0.38460  Biso   1.000  N
  N23      1.0000 0.86780  0.39366  0.61540  Biso   1.000  N
  N24      1.0000 0.63220  0.60634  0.11540  Biso   1.000  N
  C81      1.0000 0.26890  0.85310  0.98787  Biso   1.000  C
  C82      1.0000 0.23110  0.14690  0.48787  Biso   1.000  C
  C83      1.0000 0.73110  0.35310  0.51213  Biso   1.000  C
  C84      1.0000 0.76890  0.64690  0.01213  Biso   1.000  C
  H85      1.0000 0.24610  0.86500  0.01570  Biso   1.000  H
  H86      1.0000 0.25390  0.13500  0.51570  Biso   1.000  H
  H87      1.0000 0.75390  0.36500  0.48430  Biso   1.000  H
  H88      1.0000 0.74610  0.63500  0.98430  Biso   1.000  H
  C85      1.0000 0.34700  0.82570  0.98641  Biso   1.000  C
  C86      1.0000 0.15300  0.17430  0.48641  Biso   1.000  C
  C87      1.0000 0.65300  0.32570  0.51359  Biso   1.000  C
  C88      1.0000 0.84700  0.67430  0.01359  Biso   1.000  C
  H89      1.0000 0.37730  0.81880  0.01280  Biso   1.000  H
  H90      1.0000 0.12270  0.18120  0.51280  Biso   1.000  H
  H91      1.0000 0.62270  0.31880  0.48720  Biso   1.000  H
  H92      1.0000 0.87730  0.68120  0.98720  Biso   1.000  H
  C89      1.0000 0.37980  0.80860  0.94632  Biso   1.000  C
  C90      1.0000 0.12020  0.19140  0.44632  Biso   1.000  C
  C91      1.0000 0.62020  0.30860  0.55368  Biso   1.000  C
  C92      1.0000 0.87980  0.69140  0.05368  Biso   1.000  C
  H93      1.0000 0.43330  0.78980  0.94460  Biso   1.000  H
  H94      1.0000 0.06670  0.21020  0.44460  Biso   1.000  H
  H95      1.0000 0.56670  0.28980  0.55540  Biso   1.000  H
  H96      1.0000 0.93330  0.71020  0.05540  Biso   1.000  H
  C93      1.0000 0.33440  0.81870  0.90828  Biso   1.000  C
  C94      1.0000 0.16560  0.18130  0.40828  Biso   1.000  C
  C95      1.0000 0.66560  0.31870  0.59172  Biso   1.000  C
  C96      1.0000 0.83440  0.68130  0.09172  Biso   1.000  C
  H97      1.0000 0.35640  0.80700  0.88020  Biso   1.000  H
  H98      1.0000 0.14360  0.19300  0.38020  Biso   1.000  H
  H99      1.0000 0.64360  0.30700  0.61980  Biso   1.000  H
  H100     1.0000 0.85640  0.69300  0.11980  Biso   1.000  H
  C97      1.0000 0.25630  0.84630  0.91180  Biso   1.000  C
  C98      1.0000 0.24370  0.15370  0.41180  Biso   1.000  C
  C99      1.0000 0.74370  0.34630  0.58820  Biso   1.000  C
  C100     1.0000 0.75630  0.65370  0.08820  Biso   1.000  C
  C101     1.0000 0.20300  0.86140  0.87392  Biso   1.000  C
  C102     1.0000 0.29700  0.13860  0.37392  Biso   1.000  C
  C103     1.0000 0.79700  0.36140  0.62608  Biso   1.000  C
  C104     1.0000 0.70300  0.63860  0.12608  Biso   1.000  C
  C105     1.0000 0.22210  0.84590  0.83026  Biso   1.000  C
  C106     1.0000 0.27790  0.15410  0.33026  Biso   1.000  C
  C107     1.0000 0.77790  0.34590  0.66974  Biso   1.000  C
  C108     1.0000 0.72210  0.65410  0.16974  Biso   1.000  C
  H101     1.0000 0.27130  0.82210  0.82320  Biso   1.000  H
  H102     1.0000 0.22870  0.17790  0.32320  Biso   1.000  H
  H103     1.0000 0.72870  0.32210  0.67680  Biso   1.000  H
  H104     1.0000 0.77130  0.67790  0.17680  Biso   1.000  H
  C109     1.0000 0.16850  0.86570  0.79734  Biso   1.000  C
  C110     1.0000 0.33150  0.13430  0.29734  Biso   1.000  C
  C111     1.0000 0.83150  0.36570  0.70266  Biso   1.000  C
  C112     1.0000 0.66850  0.63430  0.20266  Biso   1.000  C
  H105     1.0000 0.18120  0.85660  0.76730  Biso   1.000  H
  H106     1.0000 0.31880  0.14340  0.26730  Biso   1.000  H
  H107     1.0000 0.81880  0.35660  0.73270  Biso   1.000  H
  H108     1.0000 0.68120  0.64340  0.23270  Biso   1.000  H
  C113     1.0000 0.09660  0.89890  0.80843  Biso   1.000  C
  C114     1.0000 0.40340  0.10110  0.30843  Biso   1.000  C
  C115     1.0000 0.90340  0.39890  0.69157  Biso   1.000  C
  C116     1.0000 0.59660  0.60110  0.19157  Biso   1.000  C
  H109     1.0000 0.05890  0.91260  0.78620  Biso   1.000  H
  H110     1.0000 0.44110  0.08740  0.28620  Biso   1.000  H
  H111     1.0000 0.94110  0.41260  0.71380  Biso   1.000  H
  H112     1.0000 0.55890  0.58740  0.21380  Biso   1.000  H
  C117     1.0000 0.08020  0.91200  0.85271  Biso   1.000  C
  C118     1.0000 0.41980  0.08800  0.35271  Biso   1.000  C
  C119     1.0000 0.91980  0.41200  0.64729  Biso   1.000  C
  C120     1.0000 0.58020  0.58800  0.14729  Biso   1.000  C
  H113     1.0000 0.03060  0.93460  0.86050  Biso   1.000  H
  H114     1.0000 0.46940  0.06540  0.36050  Biso   1.000  H
  H115     1.0000 0.96940  0.43460  0.63950  Biso   1.000  H
  H116     1.0000 0.53060  0.56540  0.13950  Biso   1.000  H
  N25      1.0000 0.82810  0.87691  0.05730  Biso   1.000  N
  N26      1.0000 0.67190  0.12309  0.55730  Biso   1.000  N
  N27      1.0000 0.17190  0.37691  0.44270  Biso   1.000  N
  N28      1.0000 0.32810  0.62309  0.94270  Biso   1.000  N
  N29      1.0000 0.92330  0.94072  0.11338  Biso   1.000  N
  N30      1.0000 0.57670  0.05928  0.61338  Biso   1.000  N
  N31      1.0000 0.07670  0.44072  0.38662  Biso   1.000  N
  N32      1.0000 0.42330  0.55928  0.88662  Biso   1.000  N
  C121     1.0000 0.78040  0.85000  0.02551  Biso   1.000  C
  C122     1.0000 0.71960  0.15000  0.52551  Biso   1.000  C
  C123     1.0000 0.21960  0.35000  0.47449  Biso   1.000  C
  C124     1.0000 0.28040  0.65000  0.97449  Biso   1.000  C
  H117     1.0000 0.79800  0.85200  0.99570  Biso   1.000  H
  H118     1.0000 0.70200  0.14800  0.49570  Biso   1.000  H
  H119     1.0000 0.20200  0.35200  0.50430  Biso   1.000  H
  H120     1.0000 0.29800  0.64800  0.00430  Biso   1.000  H
  C125     1.0000 0.70580  0.81920  0.03525  Biso   1.000  C
  C126     1.0000 0.79420  0.18080  0.53525  Biso   1.000  C
  C127     1.0000 0.29420  0.31920  0.46475  Biso   1.000  C
  C128     1.0000 0.20580  0.68080  0.96475  Biso   1.000  C
  H121     1.0000 0.67300  0.80010  0.01230  Biso   1.000  H
  H122     1.0000 0.82700  0.19990  0.51230  Biso   1.000  H
  H123     1.0000 0.32700  0.30010  0.48770  Biso   1.000  H
  H124     1.0000 0.17300  0.69990  0.98770  Biso   1.000  H
  C129     1.0000 0.67980  0.81650  0.07831  Biso   1.000  C
  C130     1.0000 0.82020  0.18350  0.57831  Biso   1.000  C
  C131     1.0000 0.32020  0.31650  0.42169  Biso   1.000  C
  C132     1.0000 0.17980  0.68350  0.92169  Biso   1.000  C
  H125     1.0000 0.62880  0.79580  0.08540  Biso   1.000  H
  H126     1.0000 0.87120  0.20420  0.58540  Biso   1.000  H
  H127     1.0000 0.37120  0.29580  0.41460  Biso   1.000  H
  H128     1.0000 0.12880  0.70420  0.91460  Biso   1.000  H
  C133     1.0000 0.72910  0.84440  0.11144  Biso   1.000  C
  C134     1.0000 0.77090  0.15560  0.61144  Biso   1.000  C
  C135     1.0000 0.27090  0.34440  0.38856  Biso   1.000  C
  C136     1.0000 0.22910  0.65560  0.88856  Biso   1.000  C
  H129     1.0000 0.71200  0.84360  0.14140  Biso   1.000  H
  H130     1.0000 0.78800  0.15640  0.64140  Biso   1.000  H
  H131     1.0000 0.28800  0.34360  0.35860  Biso   1.000  H
  H132     1.0000 0.21200  0.65640  0.85860  Biso   1.000  H
  C137     1.0000 0.80330  0.87330  0.09990  Biso   1.000  C
  C138     1.0000 0.69670  0.12670  0.59990  Biso   1.000  C
  C139     1.0000 0.19670  0.37330  0.40010  Biso   1.000  C
  C140     1.0000 0.30330  0.62670  0.90010  Biso   1.000  C
  C141     1.0000 0.86060  0.90520  0.13191  Biso   1.000  C
  C142     1.0000 0.63940  0.09480  0.63191  Biso   1.000  C
  C143     1.0000 0.13940  0.40520  0.36809  Biso   1.000  C
  C144     1.0000 0.36060  0.59480  0.86809  Biso   1.000  C
  C145     1.0000 0.85130  0.90000  0.17751  Biso   1.000  C
  C146     1.0000 0.64870  0.10000  0.67751  Biso   1.000  C
  C147     1.0000 0.14870  0.40000  0.32249  Biso   1.000  C
  C148     1.0000 0.35130  0.60000  0.82249  Biso   1.000  C
  H133     1.0000 0.80760  0.87380  0.19000  Biso   1.000  H
  H134     1.0000 0.69240  0.12620  0.69000  Biso   1.000  H
  H135     1.0000 0.19240  0.37380  0.31000  Biso   1.000  H
  H136     1.0000 0.30760  0.62620  0.81000  Biso   1.000  H
  C149     1.0000 0.90780  0.93410  0.20435  Biso   1.000  C
  C150     1.0000 0.59220  0.06590  0.70435  Biso   1.000  C
  C151     1.0000 0.09220  0.43410  0.29565  Biso   1.000  C
  C152     1.0000 0.40780  0.56590  0.79565  Biso   1.000  C
  H137     1.0000 0.90290  0.93170  0.23560  Biso   1.000  H
  H138     1.0000 0.59710  0.06830  0.73560  Biso   1.000  H
  H139     1.0000 0.09710  0.43170  0.26440  Biso   1.000  H
  H140     1.0000 0.40290  0.56830  0.76440  Biso   1.000  H
  C153     1.0000 0.97150  0.97150  0.18521  Biso   1.000  C
  C154     1.0000 0.52850  0.02850  0.68521  Biso   1.000  C
  C155     1.0000 0.02850  0.47150  0.31479  Biso   1.000  C
  C156     1.0000 0.47150  0.52850  0.81479  Biso   1.000  C
  H141     1.0000 0.01040  0.99540  0.20300  Biso   1.000  H
  H142     1.0000 0.48960  0.00460  0.70300  Biso   1.000  H
  H143     1.0000 0.98960  0.49540  0.29700  Biso   1.000  H
  H144     1.0000 0.51040  0.50460  0.79700  Biso   1.000  H
  C157     1.0000 0.97690  0.97320  0.13946  Biso   1.000  C
  C158     1.0000 0.52310  0.02680  0.63946  Biso   1.000  C
  C159     1.0000 0.02310  0.47320  0.36054  Biso   1.000  C
  C160     1.0000 0.47690  0.52680  0.86054  Biso   1.000  C
  H145     1.0000 0.02060  0.99850  0.12620  Biso   1.000  H
  H146     1.0000 0.47940  0.00150  0.62620  Biso   1.000  H
  H147     1.0000 0.97940  0.49850  0.37380  Biso   1.000  H
  H148     1.0000 0.52060  0.50150  0.87380  Biso   1.000  H
  N33      1.0000 0.19390  0.91142  0.19044  Biso   1.000  N
  N34      1.0000 0.30610  0.08858  0.69044  Biso   1.000  N
  N35      1.0000 0.80610  0.41142  0.30956  Biso   1.000  N
  N36      1.0000 0.69390  0.58858  0.80956  Biso   1.000  N
  C161     1.0000 0.20340  0.86850  0.22658  Biso   1.000  C
  C162     1.0000 0.29660  0.13150  0.72658  Biso   1.000  C
  C163     1.0000 0.79660  0.36850  0.27342  Biso   1.000  C
  C164     1.0000 0.70340  0.63150  0.77342  Biso   1.000  C
  O29      1.0000 0.25055  0.88462  0.25749  Biso   1.000  O
  O30      1.0000 0.24945  0.11538  0.75749  Biso   1.000  O
  O31      1.0000 0.74945  0.38462  0.24251  Biso   1.000  O
  O32      1.0000 0.75055  0.61538  0.74251  Biso   1.000  O
  N37      1.0000 0.16290  0.80602  0.22849  Biso   1.000  N
  N38      1.0000 0.33710  0.19398  0.72849  Biso   1.000  N
  N39      1.0000 0.83710  0.30602  0.27151  Biso   1.000  N
  N40      1.0000 0.66290  0.69398  0.77151  Biso   1.000  N
  C165     1.0000 0.11450  0.78400  0.19584  Biso   1.000  C
  C166     1.0000 0.38550  0.21600  0.69584  Biso   1.000  C
  C167     1.0000 0.88550  0.28400  0.30416  Biso   1.000  C
  C168     1.0000 0.61450  0.71600  0.80416  Biso   1.000  C
  N41      1.0000 0.07760  0.72260  0.19899  Biso   1.000  N
  N42      1.0000 0.42240  0.27740  0.69899  Biso   1.000  N
  N43      1.0000 0.92240  0.22260  0.30101  Biso   1.000  N
  N44      1.0000 0.57760  0.77740  0.80101  Biso   1.000  N
  H149     1.0000 0.08700  0.69460  0.21720  Biso   1.000  H
  H150     1.0000 0.41300  0.30540  0.71720  Biso   1.000  H
  H151     1.0000 0.91300  0.19460  0.28280  Biso   1.000  H
  H152     1.0000 0.58700  0.80540  0.78280  Biso   1.000  H
  H153     1.0000 0.05300  0.70700  0.17850  Biso   1.000  H
  H154     1.0000 0.44700  0.29300  0.67850  Biso   1.000  H
  H155     1.0000 0.94700  0.20700  0.32150  Biso   1.000  H
  H156     1.0000 0.55300  0.79300  0.82150  Biso   1.000  H
  C169     1.0000 0.10300  0.82850  0.15810  Biso   1.000  C
  C170     1.0000 0.39700  0.17150  0.65810  Biso   1.000  C
  C171     1.0000 0.89700  0.32850  0.34190  Biso   1.000  C
  C172     1.0000 0.60300  0.67150  0.84190  Biso   1.000  C
  H157     1.0000 0.06770  0.81490  0.13470  Biso   1.000  H
  H158     1.0000 0.43230  0.18510  0.63470  Biso   1.000  H
  H159     1.0000 0.93230  0.31490  0.36530  Biso   1.000  H
  H160     1.0000 0.56770  0.68510  0.86530  Biso   1.000  H
  C173     1.0000 0.14380  0.89020  0.15684  Biso   1.000  C
  C174     1.0000 0.35620  0.10980  0.65684  Biso   1.000  C
  C175     1.0000 0.85620  0.39020  0.34316  Biso   1.000  C
  C176     1.0000 0.64380  0.60980  0.84316  Biso   1.000  C
  H161     1.0000 0.13770  0.92000  0.13180  Biso   1.000  H
  H162     1.0000 0.36230  0.08000  0.63180  Biso   1.000  H
  H163     1.0000 0.86230  0.42000  0.36820  Biso   1.000  H
  H164     1.0000 0.63770  0.58000  0.86820  Biso   1.000  H
  C177     1.0000 0.23910  0.97970  0.18886  Biso   1.000  C
  C178     1.0000 0.26090  0.02030  0.68886  Biso   1.000  C
  C179     1.0000 0.76090  0.47970  0.31114  Biso   1.000  C
  C180     1.0000 0.73910  0.52030  0.81114  Biso   1.000  C
  H165     1.0000 0.24380  0.99940  0.21940  Biso   1.000  H
  H166     1.0000 0.25620  0.00060  0.71940  Biso   1.000  H
  H167     1.0000 0.75620  0.49940  0.28060  Biso   1.000  H
  H168     1.0000 0.74380  0.50060  0.78060  Biso   1.000  H
  O33      1.0000 0.19374  0.02702  0.16240  Biso   1.000  O
  O34      1.0000 0.30626  0.97298  0.66240  Biso   1.000  O
  O35      1.0000 0.80626  0.52702  0.33760  Biso   1.000  O
  O36      1.0000 0.69374  0.47298  0.83760  Biso   1.000  O
  C181     1.0000 0.32400  0.97350  0.16841  Biso   1.000  C
  C182     1.0000 0.17600  0.02650  0.66841  Biso   1.000  C
  C183     1.0000 0.67600  0.47350  0.33159  Biso   1.000  C
  C184     1.0000 0.82400  0.52650  0.83159  Biso   1.000  C
  H169     1.0000 0.32550  0.93300  0.14710  Biso   1.000  H
  H170     1.0000 0.17450  0.06700  0.64710  Biso   1.000  H
  H171     1.0000 0.67450  0.43300  0.35290  Biso   1.000  H
  H172     1.0000 0.82550  0.56700  0.85290  Biso   1.000  H
  O37      1.0000 0.38248  0.96328  0.20182  Biso   1.000  O
  O38      1.0000 0.11752  0.03672  0.70182  Biso   1.000  O
  O39      1.0000 0.61752  0.46328  0.29818  Biso   1.000  O
  O40      1.0000 0.88248  0.53672  0.79818  Biso   1.000  O
  H173     1.0000 0.42490  0.94590  0.19080  Biso   1.000  H
  H174     1.0000 0.07510  0.05410  0.69080  Biso   1.000  H
  H175     1.0000 0.57510  0.44590  0.30920  Biso   1.000  H
  H176     1.0000 0.92490  0.55410  0.80920  Biso   1.000  H
  C185     1.0000 0.33120  0.04420  0.14334  Biso   1.000  C
  C186     1.0000 0.16880  0.95580  0.64334  Biso   1.000  C
  C187     1.0000 0.66880  0.54420  0.35666  Biso   1.000  C
  C188     1.0000 0.83120  0.45580  0.85666  Biso   1.000  C
  H177     1.0000 0.37110  0.04160  0.11840  Biso   1.000  H
  H178     1.0000 0.12890  0.95840  0.61840  Biso   1.000  H
  H179     1.0000 0.62890  0.54160  0.38160  Biso   1.000  H
  H180     1.0000 0.87110  0.45840  0.88160  Biso   1.000  H
  O41      1.0000 0.34888  0.10059  0.17317  Biso   1.000  O
  O42      1.0000 0.15112  0.89941  0.67317  Biso   1.000  O
  O43      1.0000 0.65112  0.60059  0.32683  Biso   1.000  O
  O44      1.0000 0.84888  0.39941  0.82683  Biso   1.000  O
  H181     1.0000 0.39550  0.09470  0.18400  Biso   1.000  H
  H182     1.0000 0.10450  0.90530  0.68400  Biso   1.000  H
  H183     1.0000 0.60450  0.59470  0.31600  Biso   1.000  H
  H184     1.0000 0.89550  0.40530  0.81600  Biso   1.000  H
  C189     1.0000 0.24440  0.05430  0.12732  Biso   1.000  C
  C190     1.0000 0.25560  0.94570  0.62732  Biso   1.000  C
  C191     1.0000 0.75560  0.55430  0.37268  Biso   1.000  C
  C192     1.0000 0.74440  0.44570  0.87268  Biso   1.000  C
  H185     1.0000 0.23340  0.10610  0.12340  Biso   1.000  H
  H186     1.0000 0.26660  0.89390  0.62340  Biso   1.000  H
  H187     1.0000 0.76660  0.60610  0.37660  Biso   1.000  H
  H188     1.0000 0.73340  0.39390  0.87660  Biso   1.000  H
  C193     1.0000 0.22790  0.01570  0.08403  Biso   1.000  C
  C194     1.0000 0.27210  0.98430  0.58403  Biso   1.000  C
  C195     1.0000 0.77210  0.51570  0.41597  Biso   1.000  C
  C196     1.0000 0.72790  0.48430  0.91597  Biso   1.000  C
  H189     1.0000 0.25140  0.04230  0.05890  Biso   1.000  H
  H190     1.0000 0.24860  0.95770  0.55890  Biso   1.000  H
  H191     1.0000 0.74860  0.54230  0.44110  Biso   1.000  H
  H192     1.0000 0.75140  0.45770  0.94110  Biso   1.000  H
  H193     1.0000 0.25260  0.96780  0.08460  Biso   1.000  H
  H194     1.0000 0.24740  0.03220  0.58460  Biso   1.000  H
  H195     1.0000 0.74740  0.46780  0.41540  Biso   1.000  H
  H196     1.0000 0.75260  0.53220  0.91540  Biso   1.000  H
  P1       1.0000 0.10062  0.00609  0.03171  Biso   1.000  P
  P2       1.0000 0.39938  0.99391  0.53171  Biso   1.000  P
  P3       1.0000 0.89938  0.50609  0.46829  Biso   1.000  P
  P4       1.0000 0.60062  0.49391  0.96829  Biso   1.000  P
  O45      1.0000 0.13058  0.06946  0.00637  Biso   1.000  O
  O46      1.0000 0.36942  0.93054  0.50637  Biso   1.000  O
  O47      1.0000 0.86942  0.56946  0.49363  Biso   1.000  O
  O48      1.0000 0.63058  0.43054  0.99363  Biso   1.000  O
  O49      1.0000 0.12619  0.93524  0.01165  Biso   1.000  O
  O50      1.0000 0.37381  0.06476  0.51165  Biso   1.000  O
  O51      1.0000 0.87381  0.43524  0.48835  Biso   1.000  O
  O52      1.0000 0.62619  0.56476  0.98835  Biso   1.000  O
  O53      1.0000 0.01024  0.00887  0.04217  Biso   1.000  O
  O54      1.0000 0.48976  0.99113  0.54217  Biso   1.000  O
  O55      1.0000 0.98976  0.50887  0.45783  Biso   1.000  O
  O56      1.0000 0.51024  0.49113  0.95783  Biso   1.000  O
  O57      1.0000 0.14162  0.01057  0.07946  Biso   1.000  O
  O58      1.0000 0.35838  0.98943  0.57946  Biso   1.000  O
  O59      1.0000 0.85838  0.51057  0.42054  Biso   1.000  O
  O60      1.0000 0.64162  0.48943  0.92054  Biso   1.000  O
  N45      1.0000 0.79660  0.90281  0.79263  Biso   1.000  N
  N46      1.0000 0.70340  0.09719  0.29263  Biso   1.000  N
  N47      1.0000 0.20340  0.40281  0.70737  Biso   1.000  N
  N48      1.0000 0.29660  0.59719  0.20737  Biso   1.000  N
  C197     1.0000 0.75460  0.85860  0.76441  Biso   1.000  C
  C198     1.0000 0.74540  0.14140  0.26441  Biso   1.000  C
  C199     1.0000 0.24540  0.35860  0.73559  Biso   1.000  C
  C200     1.0000 0.25460  0.64140  0.23559  Biso   1.000  C
  O61      1.0000 0.68847  0.87582  0.74817  Biso   1.000  O
  O62      1.0000 0.81153  0.12418  0.24817  Biso   1.000  O
  O63      1.0000 0.31153  0.37582  0.75183  Biso   1.000  O
  O64      1.0000 0.18847  0.62418  0.25183  Biso   1.000  O
  N49      1.0000 0.78730  0.79318  0.75538  Biso   1.000  N
  N50      1.0000 0.71270  0.20682  0.25538  Biso   1.000  N
  N51      1.0000 0.21270  0.29318  0.74462  Biso   1.000  N
  N52      1.0000 0.28730  0.70682  0.24462  Biso   1.000  N
  C201     1.0000 0.85770  0.77230  0.77394  Biso   1.000  C
  C202     1.0000 0.64230  0.22770  0.27394  Biso   1.000  C
  C203     1.0000 0.14230  0.27230  0.72606  Biso   1.000  C
  C204     1.0000 0.35770  0.72770  0.22606  Biso   1.000  C
  N53      1.0000 0.88380  0.70700  0.76660  Biso   1.000  N
  N54      1.0000 0.61620  0.29300  0.26660  Biso   1.000  N
  N55      1.0000 0.11620  0.20700  0.73340  Biso   1.000  N
  N56      1.0000 0.38380  0.79300  0.23340  Biso   1.000  N
  H197     1.0000 0.85600  0.68050  0.75300  Biso   1.000  H
  H198     1.0000 0.64400  0.31950  0.25300  Biso   1.000  H
  H199     1.0000 0.14400  0.18050  0.74700  Biso   1.000  H
  H200     1.0000 0.35600  0.81950  0.24700  Biso   1.000  H
  H201     1.0000 0.92600  0.69500  0.77810  Biso   1.000  H
  H202     1.0000 0.57400  0.30500  0.27810  Biso   1.000  H
  H203     1.0000 0.07400  0.19500  0.72190  Biso   1.000  H
  H204     1.0000 0.42600  0.80500  0.22190  Biso   1.000  H
  C205     1.0000 0.90310  0.82000  0.80044  Biso   1.000  C
  C206     1.0000 0.59690  0.18000  0.30044  Biso   1.000  C
  C207     1.0000 0.09690  0.32000  0.69956  Biso   1.000  C
  C208     1.0000 0.40310  0.68000  0.19956  Biso   1.000  C
  H205     1.0000 0.95470  0.80710  0.81210  Biso   1.000  H
  H206     1.0000 0.54530  0.19290  0.31210  Biso   1.000  H
  H207     1.0000 0.04530  0.30710  0.68790  Biso   1.000  H
  H208     1.0000 0.45470  0.69290  0.18790  Biso   1.000  H
  C209     1.0000 0.87080  0.88410  0.80846  Biso   1.000  C
  C210     1.0000 0.62920  0.11590  0.30846  Biso   1.000  C
  C211     1.0000 0.12920  0.38410  0.69154  Biso   1.000  C
  C212     1.0000 0.37080  0.61590  0.19154  Biso   1.000  C
  H209     1.0000 0.90060  0.91720  0.82570  Biso   1.000  H
  H210     1.0000 0.59940  0.08280  0.32570  Biso   1.000  H
  H211     1.0000 0.09940  0.41720  0.67430  Biso   1.000  H
  H212     1.0000 0.40060  0.58280  0.17430  Biso   1.000  H
  C213     1.0000 0.76140  0.97470  0.80141  Biso   1.000  C
  C214     1.0000 0.73860  0.02530  0.30141  Biso   1.000  C
  C215     1.0000 0.23860  0.47470  0.69859  Biso   1.000  C
  C216     1.0000 0.26140  0.52530  0.19859  Biso   1.000  C
  H213     1.0000 0.75270  0.00000  0.77280  Biso   1.000  H
  H214     1.0000 0.74730  0.00000  0.27280  Biso   1.000  H
  H215     1.0000 0.24730  0.50000  0.72720  Biso   1.000  H
  H216     1.0000 0.25270  0.50000  0.22720  Biso   1.000  H
  O65      1.0000 0.81710  0.01295  0.82759  Biso   1.000  O
  O66      1.0000 0.68290  0.98705  0.32759  Biso   1.000  O
  O67      1.0000 0.18290  0.51295  0.67241  Biso   1.000  O
  O68      1.0000 0.31710  0.48705  0.17241  Biso   1.000  O
  C217     1.0000 0.67990  0.97140  0.82730  Biso   1.000  C
  C218     1.0000 0.82010  0.02860  0.32730  Biso   1.000  C
  C219     1.0000 0.32010  0.47140  0.67270  Biso   1.000  C
  C220     1.0000 0.17990  0.52860  0.17270  Biso   1.000  C
  H217     1.0000 0.67090  0.92230  0.83860  Biso   1.000  H
  H218     1.0000 0.82910  0.07770  0.33860  Biso   1.000  H
  H219     1.0000 0.32910  0.42230  0.66140  Biso   1.000  H
  H220     1.0000 0.17090  0.57770  0.16140  Biso   1.000  H
  O69      1.0000 0.61246  0.99312  0.80252  Biso   1.000  O
  O70      1.0000 0.88754  0.00688  0.30252  Biso   1.000  O
  O71      1.0000 0.38754  0.49312  0.69748  Biso   1.000  O
  O72      1.0000 0.11246  0.50688  0.19748  Biso   1.000  O
  H221     1.0000 0.59890  0.96060  0.78510  Biso   1.000  H
  H222     1.0000 0.90110  0.03940  0.28510  Biso   1.000  H
  H223     1.0000 0.40110  0.46060  0.71490  Biso   1.000  H
  H224     1.0000 0.09890  0.53940  0.21490  Biso   1.000  H
  C221     1.0000 0.69450  0.02220  0.86636  Biso   1.000  C
  C222     1.0000 0.80550  0.97780  0.36636  Biso   1.000  C
  C223     1.0000 0.30550  0.52220  0.63364  Biso   1.000  C
  C224     1.0000 0.19450  0.47780  0.13364  Biso   1.000  C
  H225     1.0000 0.66500  0.00630  0.89350  Biso   1.000  H
  H226     1.0000 0.83500  0.99370  0.39350  Biso   1.000  H
  H227     1.0000 0.33500  0.50630  0.60650  Biso   1.000  H
  H228     1.0000 0.16500  0.49370  0.10650  Biso   1.000  H
  O73      1.0000 0.67127  0.09221  0.85369  Biso   1.000  O
  O74      1.0000 0.82873  0.90779  0.35369  Biso   1.000  O
  O75      1.0000 0.32873  0.59221  0.64631  Biso   1.000  O
  O76      1.0000 0.17127  0.40779  0.14631  Biso   1.000  O
  H229     1.0000 0.67200  0.11880  0.87590  Biso   1.000  H
  H230     1.0000 0.82800  0.88120  0.37590  Biso   1.000  H
  H231     1.0000 0.32800  0.61880  0.62410  Biso   1.000  H
  H232     1.0000 0.17200  0.38120  0.12410  Biso   1.000  H
  C225     1.0000 0.78630  0.01830  0.87233  Biso   1.000  C
  C226     1.0000 0.71370  0.98170  0.37233  Biso   1.000  C
  C227     1.0000 0.21370  0.51830  0.62767  Biso   1.000  C
  C228     1.0000 0.28630  0.48170  0.12767  Biso   1.000  C
  H233     1.0000 0.80580  0.06370  0.88560  Biso   1.000  H
  H234     1.0000 0.69420  0.93630  0.38560  Biso   1.000  H
  H235     1.0000 0.19420  0.56370  0.61440  Biso   1.000  H
  H236     1.0000 0.30580  0.43630  0.11440  Biso   1.000  H
  C229     1.0000 0.81330  0.95750  0.90130  Biso   1.000  C
  C230     1.0000 0.68670  0.04250  0.40130  Biso   1.000  C
  C231     1.0000 0.18670  0.45750  0.59870  Biso   1.000  C
  C232     1.0000 0.31330  0.54250  0.09870  Biso   1.000  C
  H237     1.0000 0.78870  0.96240  0.93100  Biso   1.000  H
  H238     1.0000 0.71130  0.03760  0.43100  Biso   1.000  H
  H239     1.0000 0.21130  0.46240  0.56900  Biso   1.000  H
  H240     1.0000 0.28870  0.53760  0.06900  Biso   1.000  H
  H241     1.0000 0.79480  0.91210  0.88840  Biso   1.000  H
  H242     1.0000 0.70520  0.08790  0.38840  Biso   1.000  H
  H243     1.0000 0.20520  0.41210  0.61160  Biso   1.000  H
  H244     1.0000 0.29480  0.58790  0.11160  Biso   1.000  H
  P5       1.0000 0.94101  0.98157  0.95049  Biso   1.000  P
  P6       1.0000 0.55899  0.01843  0.45049  Biso   1.000  P
  P7       1.0000 0.05899  0.48157  0.54951  Biso   1.000  P
  P8       1.0000 0.44101  0.51843  0.04951  Biso   1.000  P
  O77      1.0000 0.90724  0.05381  0.96182  Biso   1.000  O
  O78      1.0000 0.59276  0.94619  0.46182  Biso   1.000  O
  O79      1.0000 0.09276  0.55381  0.53818  Biso   1.000  O
  O80      1.0000 0.40724  0.44619  0.03818  Biso   1.000  O
  O81      1.0000 0.03167  0.98312  0.93981  Biso   1.000  O
  O82      1.0000 0.46833  0.01688  0.43981  Biso   1.000  O
  O83      1.0000 0.96833  0.48312  0.56019  Biso   1.000  O
  O84      1.0000 0.53167  0.51688  0.06019  Biso   1.000  O
  O85      1.0000 0.91937  0.92400  0.98410  Biso   1.000  O
  O86      1.0000 0.58063  0.07600  0.48410  Biso   1.000  O
  O87      1.0000 0.08063  0.42400  0.51590  Biso   1.000  O
  O88      1.0000 0.41937  0.57600  0.01590  Biso   1.000  O
  O89      1.0000 0.90082  0.95750  0.90498  Biso   1.000  O
  O90      1.0000 0.59918  0.04250  0.40498  Biso   1.000  O
  O91      1.0000 0.09918  0.45750  0.59502  Biso   1.000  O
  O92      1.0000 0.40082  0.54250  0.09502  Biso   1.000  O
  Cu17     1.0000 0.71301  0.73665  0.71736  Biso   1.000  Cu
  Cu18     1.0000 0.78699  0.26335  0.21736  Biso   1.000  Cu
  Cu19     1.0000 0.28699  0.23665  0.78264  Biso   1.000  Cu
  Cu20     1.0000 0.21301  0.76335  0.28264  Biso   1.000  Cu
  N57      1.0000 0.63080  0.69456  0.67654  Biso   1.000  N
  N58      1.0000 0.86920  0.30544  0.17654  Biso   1.000  N
  N59      1.0000 0.36920  0.19456  0.82346  Biso   1.000  N
  N60      1.0000 0.13080  0.80544  0.32346  Biso   1.000  N
  N61      1.0000 0.77040  0.75331  0.66001  Biso   1.000  N
  N62      1.0000 0.72960  0.24669  0.16001  Biso   1.000  N
  N63      1.0000 0.22960  0.25331  0.83999  Biso   1.000  N
  N64      1.0000 0.27040  0.74669  0.33999  Biso   1.000  N
  C233     1.0000 0.56380  0.65930  0.68876  Biso   1.000  C
  C234     1.0000 0.93620  0.34070  0.18876  Biso   1.000  C
  C235     1.0000 0.43620  0.15930  0.81124  Biso   1.000  C
  C236     1.0000 0.06380  0.84070  0.31124  Biso   1.000  C
  H245     1.0000 0.55210  0.65480  0.71940  Biso   1.000  H
  H246     1.0000 0.94790  0.34520  0.21940  Biso   1.000  H
  H247     1.0000 0.44790  0.15480  0.78060  Biso   1.000  H
  H248     1.0000 0.05210  0.84520  0.28060  Biso   1.000  H
  C237     1.0000 0.51120  0.62930  0.65868  Biso   1.000  C
  C238     1.0000 0.98880  0.37070  0.15868  Biso   1.000  C
  C239     1.0000 0.48880  0.12930  0.84132  Biso   1.000  C
  C240     1.0000 0.01120  0.87070  0.34132  Biso   1.000  C
  H249     1.0000 0.46500  0.60320  0.66830  Biso   1.000  H
  H250     1.0000 0.03500  0.39680  0.16830  Biso   1.000  H
  H251     1.0000 0.53500  0.10320  0.83170  Biso   1.000  H
  H252     1.0000 0.96500  0.89680  0.33170  Biso   1.000  H
  C241     1.0000 0.52720  0.63820  0.61392  Biso   1.000  C
  C242     1.0000 0.97280  0.36180  0.11392  Biso   1.000  C
  C243     1.0000 0.47280  0.13820  0.88608  Biso   1.000  C
  C244     1.0000 0.02720  0.86180  0.38608  Biso   1.000  C
  H253     1.0000 0.49100  0.61940  0.59240  Biso   1.000  H
  H254     1.0000 0.00900  0.38060  0.09240  Biso   1.000  H
  H255     1.0000 0.50900  0.11940  0.90760  Biso   1.000  H
  H256     1.0000 0.99100  0.88060  0.40760  Biso   1.000  H
  C245     1.0000 0.59630  0.67450  0.60105  Biso   1.000  C
  C246     1.0000 0.90370  0.32550  0.10105  Biso   1.000  C
  C247     1.0000 0.40370  0.17450  0.89895  Biso   1.000  C
  C248     1.0000 0.09630  0.82550  0.39895  Biso   1.000  C
  H257     1.0000 0.60820  0.68110  0.57060  Biso   1.000  H
  H258     1.0000 0.89180  0.31890  0.07060  Biso   1.000  H
  H259     1.0000 0.39180  0.18110  0.92940  Biso   1.000  H
  H260     1.0000 0.10820  0.81890  0.42940  Biso   1.000  H
  C249     1.0000 0.64830  0.70140  0.63339  Biso   1.000  C
  C250     1.0000 0.85170  0.29860  0.13339  Biso   1.000  C
  C251     1.0000 0.35170  0.20140  0.86661  Biso   1.000  C
  C252     1.0000 0.14830  0.79860  0.36661  Biso   1.000  C
  C253     1.0000 0.72750  0.73520  0.62395  Biso   1.000  C
  C254     1.0000 0.77250  0.26480  0.12395  Biso   1.000  C
  C255     1.0000 0.27250  0.23520  0.87605  Biso   1.000  C
  C256     1.0000 0.22750  0.76480  0.37605  Biso   1.000  C
  C257     1.0000 0.75740  0.74600  0.58138  Biso   1.000  C
  C258     1.0000 0.74260  0.25400  0.08138  Biso   1.000  C
  C259     1.0000 0.24260  0.24600  0.91862  Biso   1.000  C
  C260     1.0000 0.25740  0.75400  0.41862  Biso   1.000  C
  H261     1.0000 0.72580  0.73380  0.55620  Biso   1.000  H
  H262     1.0000 0.77420  0.26620  0.05620  Biso   1.000  H
  H263     1.0000 0.27420  0.23380  0.94380  Biso   1.000  H
  H264     1.0000 0.22580  0.76620  0.44380  Biso   1.000  H
  C261     1.0000 0.83440  0.77530  0.57672  Biso   1.000  C
  C262     1.0000 0.66560  0.22470  0.07672  Biso   1.000  C
  C263     1.0000 0.16560  0.27530  0.92328  Biso   1.000  C
  C264     1.0000 0.33440  0.72470  0.42328  Biso   1.000  C
  H265     1.0000 0.85620  0.78380  0.54820  Biso   1.000  H
  H266     1.0000 0.64380  0.21620  0.04820  Biso   1.000  H
  H267     1.0000 0.14380  0.28380  0.95180  Biso   1.000  H
  H268     1.0000 0.35620  0.71620  0.45180  Biso   1.000  H
  C265     1.0000 0.87920  0.79200  0.61394  Biso   1.000  C
  C266     1.0000 0.62080  0.20800  0.11394  Biso   1.000  C
  C267     1.0000 0.12080  0.29200  0.88606  Biso   1.000  C
  C268     1.0000 0.37920  0.70800  0.38606  Biso   1.000  C
  H269     1.0000 0.93250  0.81110  0.61120  Biso   1.000  H
  H270     1.0000 0.56750  0.18890  0.11120  Biso   1.000  H
  H271     1.0000 0.06750  0.31110  0.88880  Biso   1.000  H
  H272     1.0000 0.43250  0.68890  0.38880  Biso   1.000  H
  C269     1.0000 0.84550  0.78070  0.65527  Biso   1.000  C
  C270     1.0000 0.65450  0.21930  0.15527  Biso   1.000  C
  C271     1.0000 0.15450  0.28070  0.84473  Biso   1.000  C
  C272     1.0000 0.34550  0.71930  0.34473  Biso   1.000  C
  H273     1.0000 0.87610  0.79250  0.68080  Biso   1.000  H
  H274     1.0000 0.62390  0.20750  0.18080  Biso   1.000  H
  H275     1.0000 0.12390  0.29250  0.81920  Biso   1.000  H
  H276     1.0000 0.37610  0.70750  0.31920  Biso   1.000  H
  Cl5      1.0000 0.56422  0.05343  0.20024  Biso   1.000  Cl
  Cl6      1.0000 0.93578  0.94657  0.70024  Biso   1.000  Cl
  Cl7      1.0000 0.43578  0.55343  0.29976  Biso   1.000  Cl
  Cl8      1.0000 0.06422  0.44657  0.79976  Biso   1.000  Cl
  O93      1.0000 0.54350  0.01550  0.16069  Biso   1.000  O
  O94      1.0000 0.95650  0.98450  0.66069  Biso   1.000  O
  O95      1.0000 0.45650  0.51550  0.33931  Biso   1.000  O
  O96      1.0000 0.04350  0.48450  0.83931  Biso   1.000  O
  O97      1.0000 0.64778  0.07473  0.19844  Biso   1.000  O
  O98      1.0000 0.85222  0.92527  0.69844  Biso   1.000  O
  O99      1.0000 0.35222  0.57473  0.30156  Biso   1.000  O
  O100     1.0000 0.14778  0.42527  0.80156  Biso   1.000  O
  O101     1.0000 0.51320  0.11523  0.20375  Biso   1.000  O
  O102     1.0000 0.98680  0.88477  0.70375  Biso   1.000  O
  O103     1.0000 0.48680  0.61523  0.29625  Biso   1.000  O
  O104     1.0000 0.01320  0.38477  0.79625  Biso   1.000  O
  O105     1.0000 0.55270  0.00910  0.23819  Biso   1.000  O
  O106     1.0000 0.94730  0.99090  0.73819  Biso   1.000  O
  O107     1.0000 0.44730  0.50910  0.26181  Biso   1.000  O
  O108     1.0000 0.05270  0.49090  0.76181  Biso   1.000  O
  Cl9      1.0000 0.05402  0.55319  0.02535  Biso   1.000  Cl
  Cl10     1.0000 0.44598  0.44681  0.52535  Biso   1.000  Cl
  Cl11     1.0000 0.94598  0.05319  0.47465  Biso   1.000  Cl
  Cl12     1.0000 0.55402  0.94681  0.97465  Biso   1.000  Cl
  O109     1.0000 0.04150  0.62250  0.00711  Biso   1.000  O
  O110     1.0000 0.45850  0.37750  0.50711  Biso   1.000  O
  O111     1.0000 0.95850  0.12250  0.49289  Biso   1.000  O
  O112     1.0000 0.54150  0.87750  0.99289  Biso   1.000  O
  O113     1.0000 0.13940  0.53900  0.02817  Biso   1.000  O
  O114     1.0000 0.36060  0.46100  0.52817  Biso   1.000  O
  O115     1.0000 0.86060  0.03900  0.47183  Biso   1.000  O
  O116     1.0000 0.63940  0.96100  0.97183  Biso   1.000  O
  O117     1.0000 0.01880  0.54800  0.06859  Biso   1.000  O
  O118     1.0000 0.48120  0.45200  0.56859  Biso   1.000  O
  O119     1.0000 0.98120  0.04800  0.43141  Biso   1.000  O
  O120     1.0000 0.51880  0.95200  0.93141  Biso   1.000  O
  O121     1.0000 0.01530  0.50240  0.99647  Biso   1.000  O
  O122     1.0000 0.48470  0.49760  0.49647  Biso   1.000  O
  O123     1.0000 0.98470  0.00240  0.50353  Biso   1.000  O
  O124     1.0000 0.51530  0.99760  0.00353  Biso   1.000  O
  Cl13     1.0000 0.26728  0.74958  0.09836  Biso   1.000  Cl
  Cl14     1.0000 0.23272  0.25042  0.59836  Biso   1.000  Cl
  Cl15     1.0000 0.73272  0.24958  0.40164  Biso   1.000  Cl
  Cl16     1.0000 0.76728  0.75042  0.90164  Biso   1.000  Cl
  O125     1.0000 0.33570  0.71261  0.07921  Biso   1.000  O
  O126     1.0000 0.16430  0.28739  0.57921  Biso   1.000  O
  O127     1.0000 0.66430  0.21261  0.42079  Biso   1.000  O
  O128     1.0000 0.83570  0.78739  0.92079  Biso   1.000  O
  O129     1.0000 0.20060  0.74560  0.06771  Biso   1.000  O
  O130     1.0000 0.29940  0.25440  0.56771  Biso   1.000  O
  O131     1.0000 0.79940  0.24560  0.43229  Biso   1.000  O
  O132     1.0000 0.70060  0.75440  0.93229  Biso   1.000  O
  O133     1.0000 0.24250  0.71600  0.13768  Biso   1.000  O
  O134     1.0000 0.25750  0.28400  0.63768  Biso   1.000  O
  O135     1.0000 0.75750  0.21600  0.36232  Biso   1.000  O
  O136     1.0000 0.74250  0.78400  0.86232  Biso   1.000  O
  O137     1.0000 0.28870  0.82170  0.10330  Biso   1.000  O
  O138     1.0000 0.21130  0.17830  0.60330  Biso   1.000  O
  O139     1.0000 0.71130  0.32170  0.39670  Biso   1.000  O
  O140     1.0000 0.78870  0.67830  0.89670  Biso   1.000  O
  Cl17     1.0000 0.92555  0.59807  0.22450  Biso   1.000  Cl
  Cl18     1.0000 0.57445  0.40193  0.72450  Biso   1.000  Cl
  Cl19     1.0000 0.07445  0.09807  0.27550  Biso   1.000  Cl
  Cl20     1.0000 0.42555  0.90193  0.77550  Biso   1.000  Cl
  O141     1.0000 0.87380  0.65320  0.24237  Biso   1.000  O
  O142     1.0000 0.62620  0.34680  0.74237  Biso   1.000  O
  O143     1.0000 0.12620  0.15320  0.25763  Biso   1.000  O
  O144     1.0000 0.37380  0.84680  0.75763  Biso   1.000  O
  O145     1.0000 0.88910  0.53000  0.23069  Biso   1.000  O
  O146     1.0000 0.61090  0.47000  0.73069  Biso   1.000  O
  O147     1.0000 0.11090  0.03000  0.26931  Biso   1.000  O
  O148     1.0000 0.38910  0.97000  0.76931  Biso   1.000  O
  O149     1.0000 0.00273  0.60089  0.24720  Biso   1.000  O
  O150     1.0000 0.49727  0.39911  0.74720  Biso   1.000  O
  O151     1.0000 0.99727  0.10089  0.25280  Biso   1.000  O
  O152     1.0000 0.50273  0.89911  0.75280  Biso   1.000  O
  O153     1.0000 0.93730  0.61163  0.17850  Biso   1.000  O
  O154     1.0000 0.56270  0.38837  0.67850  Biso   1.000  O
  O155     1.0000 0.06270  0.11163  0.32150  Biso   1.000  O
  O156     1.0000 0.43730  0.88837  0.82150  Biso   1.000  O
  O157     1.0000 0.65620  0.88370  0.21902  Biso   1.000  O
  O158     1.0000 0.84380  0.11630  0.71902  Biso   1.000  O
  O159     1.0000 0.34380  0.38370  0.28098  Biso   1.000  O
  O160     1.0000 0.15620  0.61630  0.78098  Biso   1.000  O
  H277     1.0000 0.63700  0.92260  0.22710  Biso   1.000  H
  H278     1.0000 0.86300  0.07740  0.72710  Biso   1.000  H
  H279     1.0000 0.36300  0.42260  0.27290  Biso   1.000  H
  H280     1.0000 0.13700  0.57740  0.77290  Biso   1.000  H
  H281     1.0000 0.68400  0.86900  0.24030  Biso   1.000  H
  H282     1.0000 0.81600  0.13100  0.74030  Biso   1.000  H
  H283     1.0000 0.31600  0.36900  0.25970  Biso   1.000  H
  H284     1.0000 0.18400  0.63100  0.75970  Biso   1.000  H
  O161     1.0000 0.18280  0.34060  0.06692  Biso   1.000  O
  O162     1.0000 0.31720  0.65940  0.56692  Biso   1.000  O
  O163     1.0000 0.81720  0.84060  0.43308  Biso   1.000  O
  O164     1.0000 0.68280  0.15940  0.93308  Biso   1.000  O
  H285     1.0000 0.14700  0.34100  0.04740  Biso   1.000  H
  H286     1.0000 0.35300  0.65900  0.54740  Biso   1.000  H
  H287     1.0000 0.85300  0.84100  0.45260  Biso   1.000  H
  H288     1.0000 0.64700  0.15900  0.95260  Biso   1.000  H
  H289     1.0000 0.22000  0.31500  0.05670  Biso   1.000  H
  H290     1.0000 0.28000  0.68500  0.55670  Biso   1.000  H
  H291     1.0000 0.78000  0.81500  0.44330  Biso   1.000  H
  H292     1.0000 0.72000  0.18500  0.94330  Biso   1.000  H
  O165     1.0000 0.76790  0.70292  0.30686  Biso   1.000  O
  O166     1.0000 0.73210  0.29708  0.80686  Biso   1.000  O
  O167     1.0000 0.23210  0.20292  0.19314  Biso   1.000  O
  O168     1.0000 0.26790  0.79708  0.69314  Biso   1.000  O
  H293     1.0000 0.72800  0.67700  0.31400  Biso   1.000  H
  H294     1.0000 0.77200  0.32300  0.81400  Biso   1.000  H
  H295     1.0000 0.27200  0.17700  0.18600  Biso   1.000  H
  H296     1.0000 0.22800  0.82300  0.68600  Biso   1.000  H
  H297     1.0000 0.79600  0.67800  0.28990  Biso   1.000  H
  H298     1.0000 0.70400  0.32200  0.78990  Biso   1.000  H
  H299     1.0000 0.20400  0.17800  0.21010  Biso   1.000  H
  H300     1.0000 0.29600  0.82200  0.71010  Biso   1.000  H
  O169     1.0000 0.05560  0.35530  0.00639  Biso   1.000  O
  O170     1.0000 0.44440  0.64470  0.50639  Biso   1.000  O
  O171     1.0000 0.94440  0.85530  0.49361  Biso   1.000  O
  O172     1.0000 0.55560  0.14470  0.99361  Biso   1.000  O
  H301     1.0000 0.01600  0.33100  0.99700  Biso   1.000  H
  H302     1.0000 0.48400  0.66900  0.49700  Biso   1.000  H
  H303     1.0000 0.98400  0.83100  0.50300  Biso   1.000  H
  H304     1.0000 0.51600  0.16900  0.00300  Biso   1.000  H
  H305     1.0000 0.04100  0.39760  0.00200  Biso   1.000  H
  H306     1.0000 0.45900  0.60240  0.50200  Biso   1.000  H
  H307     1.0000 0.95900  0.89760  0.49800  Biso   1.000  H
  H308     1.0000 0.54100  0.10240  0.99800  Biso   1.000  H
  O173     1.0000 0.98200  0.70640  0.90303  Biso   1.000  O
  O174     1.0000 0.51800  0.29360  0.40303  Biso   1.000  O
  O175     1.0000 0.01800  0.20640  0.59697  Biso   1.000  O
  O176     1.0000 0.48200  0.79360  0.09697  Biso   1.000  O
  H309     1.0000 0.93280  0.71900  0.90210  Biso   1.000  H
  H310     1.0000 0.56720  0.28100  0.40210  Biso   1.000  H
  H311     1.0000 0.06720  0.21900  0.59790  Biso   1.000  H
  H312     1.0000 0.43280  0.78100  0.09790  Biso   1.000  H
  H313     1.0000 0.99500  0.70100  0.87610  Biso   1.000  H
  H314     1.0000 0.50500  0.29900  0.37610  Biso   1.000  H
  H315     1.0000 0.00500  0.20100  0.62390  Biso   1.000  H
  H316     1.0000 0.49500  0.79900  0.12390  Biso   1.000  H
  O177     1.0000 0.04980  0.68840  0.10735  Biso   1.000  O
  O178     1.0000 0.45020  0.31160  0.60735  Biso   1.000  O
  O179     1.0000 0.95020  0.18840  0.39265  Biso   1.000  O
  O180     1.0000 0.54980  0.81160  0.89265  Biso   1.000  O
  H317     1.0000 0.09760  0.69700  0.10000  Biso   1.000  H
  H318     1.0000 0.40240  0.30300  0.60000  Biso   1.000  H
  H319     1.0000 0.90240  0.19700  0.40000  Biso   1.000  H
  H320     1.0000 0.59760  0.80300  0.90000  Biso   1.000  H
  H321     1.0000 0.04100  0.64650  0.10000  Biso   1.000  H
  H322     1.0000 0.45900  0.35350  0.60000  Biso   1.000  H
  H323     1.0000 0.95900  0.14650  0.40000  Biso   1.000  H
  H324     1.0000 0.54100  0.85350  0.90000  Biso   1.000  H
  O181     1.0000 0.97210  0.56380  0.91295  Biso   1.000  O
  O182     1.0000 0.52790  0.43620  0.41295  Biso   1.000  O
  O183     1.0000 0.02790  0.06380  0.58705  Biso   1.000  O
  O184     1.0000 0.47210  0.93620  0.08705  Biso   1.000  O
  H325     1.0000 0.98500  0.55100  0.93900  Biso   1.000  H
  H326     1.0000 0.51500  0.44900  0.43900  Biso   1.000  H
  H327     1.0000 0.01500  0.05100  0.56100  Biso   1.000  H
  H328     1.0000 0.48500  0.94900  0.06100  Biso   1.000  H
  H329     1.0000 0.97300  0.60870  0.91400  Biso   1.000  H
  H330     1.0000 0.52700  0.39130  0.41400  Biso   1.000  H
  H331     1.0000 0.02700  0.10870  0.58600  Biso   1.000  H
  H332     1.0000 0.47300  0.89130  0.08600  Biso   1.000  H
  O185     1.0000 0.51030  0.84420  0.18275  Biso   1.000  O
  O186     1.0000 0.98970  0.15580  0.68275  Biso   1.000  O
  O187     1.0000 0.48970  0.34420  0.31725  Biso   1.000  O
  O188     1.0000 0.01030  0.65580  0.81725  Biso   1.000  O
  H333     1.0000 0.54800  0.87100  0.19200  Biso   1.000  H
  H334     1.0000 0.95200  0.12900  0.69200  Biso   1.000  H
  H335     1.0000 0.45200  0.37100  0.30800  Biso   1.000  H
  H336     1.0000 0.04800  0.62900  0.80800  Biso   1.000  H
  H337     1.0000 0.53500  0.80400  0.18200  Biso   1.000  H
  H338     1.0000 0.96500  0.19600  0.68200  Biso   1.000  H
  H339     1.0000 0.46500  0.30400  0.31800  Biso   1.000  H
  H340     1.0000 0.03500  0.69600  0.81800  Biso   1.000  H
  O189     1.0000 0.76560  0.83990  0.27819  Biso   1.000  O
  O190     1.0000 0.73440  0.16010  0.77819  Biso   1.000  O
  O191     1.0000 0.23440  0.33990  0.22181  Biso   1.000  O
  O192     1.0000 0.26560  0.66010  0.72181  Biso   1.000  O
  H341     1.0000 0.75400  0.79880  0.28700  Biso   1.000  H
  H342     1.0000 0.74600  0.20120  0.78700  Biso   1.000  H
  H343     1.0000 0.24600  0.29880  0.21300  Biso   1.000  H
  H344     1.0000 0.25400  0.70120  0.71300  Biso   1.000  H
  H345     1.0000 0.77200  0.86300  0.30200  Biso   1.000  H
  H346     1.0000 0.72800  0.13700  0.80200  Biso   1.000  H
  H347     1.0000 0.22800  0.36300  0.19800  Biso   1.000  H
  H348     1.0000 0.27200  0.63700  0.69800  Biso   1.000  H
