data_image0
_cell_length_a       17.821
_cell_length_b       49.945
_cell_length_c       18.529
_cell_angle_alpha    90
_cell_angle_beta     108.269
_cell_angle_gamma    90

_symmetry_space_group_name_H-M    "P 1"
_symmetry_int_tables_number       1

loop_
  _symmetry_equiv_pos_as_xyz
  'x, y, z'

loop_
  _atom_site_label
  _atom_site_occupancy
  _atom_site_fract_x
  _atom_site_fract_y
  _atom_site_fract_z
  _atom_site_thermal_displace_type
  _atom_site_B_iso_or_equiv
  _atom_site_type_symbol
  Cu1      1.0000 0.93975  0.59164  0.87248  Biso   1.000  Cu
  Cu2      1.0000 0.06025  0.09164  0.12752  Biso   1.000  Cu
  Cu3      1.0000 0.84008  0.54467  0.91588  Biso   1.000  Cu
  Cu4      1.0000 0.15992  0.04467  0.08412  Biso   1.000  Cu
  Cu5      1.0000 0.65775  0.54691  0.74857  Biso   1.000  Cu
  Cu6      1.0000 0.34225  0.04691  0.25143  Biso   1.000  Cu
  Cu7      1.0000 0.79704  0.60121  0.67248  Biso   1.000  Cu
  Cu8      1.0000 0.20296  0.10121  0.32752  Biso   1.000  Cu
  O1       1.0000 0.94020  0.56231  0.94050  Biso   1.000  O
  O2       1.0000 0.05980  0.06231  0.05950  Biso   1.000  O
  H1       1.0000 0.96220  0.56570  0.98740  Biso   1.000  H
  H2       1.0000 0.03780  0.06570  0.01260  Biso   1.000  H
  O3       1.0000 0.70854  0.57486  0.57890  Biso   1.000  O
  O4       1.0000 0.29146  0.07486  0.42110  Biso   1.000  O
  H3       1.0000 0.70820  0.55840  0.60320  Biso   1.000  H
  H4       1.0000 0.29180  0.05840  0.39680  Biso   1.000  H
  H5       1.0000 0.65370  0.57820  0.56500  Biso   1.000  H
  H6       1.0000 0.34630  0.07820  0.43500  Biso   1.000  H
  O5       1.0000 0.58270  0.57880  0.67020  Biso   1.000  O
  O6       1.0000 0.41730  0.07880  0.32980  Biso   1.000  O
  H7       1.0000 0.52890  0.57580  0.64180  Biso   1.000  H
  H8       1.0000 0.47110  0.07580  0.35820  Biso   1.000  H
  H9       1.0000 0.57750  0.59490  0.69460  Biso   1.000  H
  H10      1.0000 0.42250  0.09490  0.30540  Biso   1.000  H
  S1       1.0000 0.96394  0.64597  0.03118  Biso   1.000  S
  S2       1.0000 0.03606  0.14597  0.96882  Biso   1.000  S
  O7       1.0000 0.88410  0.64820  0.03100  Biso   1.000  O
  O8       1.0000 0.11590  0.14820  0.96900  Biso   1.000  O
  O9       1.0000 0.99730  0.67100  0.01970  Biso   1.000  O
  O10      1.0000 0.00270  0.17100  0.98030  Biso   1.000  O
  O11      1.0000 0.98140  0.62315  0.99240  Biso   1.000  O
  O12      1.0000 0.01860  0.12315  0.00760  Biso   1.000  O
  C1       1.0000 0.01860  0.64003  0.13020  Biso   1.000  C
  C2       1.0000 0.98140  0.14003  0.86980  Biso   1.000  C
  F1       1.0000 0.09360  0.63648  0.13960  Biso   1.000  F
  F2       1.0000 0.90640  0.13648  0.86040  Biso   1.000  F
  F3       1.0000 0.01160  0.65971  0.17490  Biso   1.000  F
  F4       1.0000 0.98840  0.15971  0.82510  Biso   1.000  F
  F5       1.0000 0.99170  0.61793  0.15430  Biso   1.000  F
  F6       1.0000 0.00830  0.11793  0.84570  Biso   1.000  F
  N1       1.0000 0.95595  0.62223  0.80888  Biso   1.000  N
  N2       1.0000 0.04405  0.12223  0.19112  Biso   1.000  N
  C3       1.0000 0.91218  0.64577  0.79637  Biso   1.000  C
  C4       1.0000 0.08782  0.14577  0.20363  Biso   1.000  C
  H11      1.0000 0.87560  0.64880  0.82190  Biso   1.000  H
  H12      1.0000 0.12440  0.14880  0.17810  Biso   1.000  H
  C5       1.0000 0.92310  0.66477  0.74570  Biso   1.000  C
  C6       1.0000 0.07690  0.16477  0.25430  Biso   1.000  C
  H13      1.0000 0.89380  0.68050  0.73740  Biso   1.000  H
  H14      1.0000 0.10620  0.18050  0.26260  Biso   1.000  H
  C7       1.0000 0.97780  0.66021  0.70760  Biso   1.000  C
  C8       1.0000 0.02220  0.16021  0.29240  Biso   1.000  C
  H15      1.0000 0.98510  0.67290  0.67380  Biso   1.000  H
  H16      1.0000 0.01490  0.17290  0.32620  Biso   1.000  H
  C9       1.0000 0.02160  0.63667  0.72013  Biso   1.000  C
  C10      1.0000 0.97840  0.13667  0.27987  Biso   1.000  C
  H17      1.0000 0.05810  0.63360  0.69460  Biso   1.000  H
  H18      1.0000 0.94190  0.13360  0.30540  Biso   1.000  H
  C11      1.0000 0.01064  0.61767  0.77076  Biso   1.000  C
  C12      1.0000 0.98936  0.11767  0.22924  Biso   1.000  C
  N3       1.0000 0.03331  0.57785  0.84549  Biso   1.000  N
  N4       1.0000 0.96669  0.07785  0.15451  Biso   1.000  N
  C13      1.0000 0.05149  0.59268  0.78971  Biso   1.000  C
  C14      1.0000 0.94851  0.09268  0.21029  Biso   1.000  C
  C15      1.0000 0.10790  0.58336  0.75840  Biso   1.000  C
  C16      1.0000 0.89210  0.08336  0.24160  Biso   1.000  C
  H19      1.0000 0.12010  0.59330  0.72100  Biso   1.000  H
  H20      1.0000 0.87990  0.09330  0.27900  Biso   1.000  H
  C17      1.0000 0.14620  0.55921  0.78280  Biso   1.000  C
  C18      1.0000 0.85380  0.05921  0.21720  Biso   1.000  C
  H21      1.0000 0.18400  0.55300  0.76190  Biso   1.000  H
  H22      1.0000 0.81600  0.05300  0.23810  Biso   1.000  H
  C19      1.0000 0.12800  0.54437  0.83860  Biso   1.000  C
  C20      1.0000 0.87200  0.04437  0.16140  Biso   1.000  C
  H23      1.0000 0.15360  0.52820  0.85500  Biso   1.000  H
  H24      1.0000 0.84640  0.02820  0.14500  Biso   1.000  H
  C21      1.0000 0.07160  0.55370  0.86990  Biso   1.000  C
  C22      1.0000 0.92840  0.05370  0.13010  Biso   1.000  C
  H25      1.0000 0.05940  0.54380  0.90730  Biso   1.000  H
  H26      1.0000 0.94060  0.04380  0.09270  Biso   1.000  H
  N5       1.0000 0.75882  0.51643  0.91442  Biso   1.000  N
  N6       1.0000 0.24118  0.01643  0.08558  Biso   1.000  N
  C23      1.0000 0.73870  0.49487  0.86461  Biso   1.000  C
  C24      1.0000 0.26130  0.99487  0.13539  Biso   1.000  C
  H27      1.0000 0.76510  0.49220  0.82910  Biso   1.000  H
  H28      1.0000 0.23490  0.99220  0.17090  Biso   1.000  H
  C25      1.0000 0.67930  0.47735  0.86790  Biso   1.000  C
  C26      1.0000 0.32070  0.97735  0.13210  Biso   1.000  C
  H29      1.0000 0.66580  0.46290  0.83450  Biso   1.000  H
  H30      1.0000 0.33420  0.96290  0.16550  Biso   1.000  H
  C27      1.0000 0.63990  0.48140  0.92090  Biso   1.000  C
  C28      1.0000 0.36010  0.98140  0.07910  Biso   1.000  C
  H31      1.0000 0.60010  0.46970  0.92310  Biso   1.000  H
  H32      1.0000 0.39990  0.96970  0.07690  Biso   1.000  H
  C29      1.0000 0.66000  0.50295  0.97070  Biso   1.000  C
  C30      1.0000 0.34000  0.00295  0.02930  Biso   1.000  C
  H33      1.0000 0.63370  0.50570  0.00630  Biso   1.000  H
  H34      1.0000 0.36630  0.00570  0.99370  Biso   1.000  H
  C31      1.0000 0.71950  0.52047  0.96749  Biso   1.000  C
  C32      1.0000 0.28050  0.02047  0.03251  Biso   1.000  C
  N7       1.0000 0.80584  0.55777  0.00120  Biso   1.000  N
  N8       1.0000 0.19416  0.05777  0.99880  Biso   1.000  N
  C33      1.0000 0.74351  0.54374  0.01336  Biso   1.000  C
  C34      1.0000 0.25649  0.04374  0.98664  Biso   1.000  C
  C35      1.0000 0.70820  0.55322  0.06540  Biso   1.000  C
  C36      1.0000 0.29180  0.05322  0.93460  Biso   1.000  C
  H35      1.0000 0.66650  0.54380  0.07360  Biso   1.000  H
  H36      1.0000 0.33350  0.04380  0.92640  Biso   1.000  H
  C37      1.0000 0.73510  0.57671  0.10530  Biso   1.000  C
  C38      1.0000 0.26490  0.07671  0.89470  Biso   1.000  C
  H37      1.0000 0.71150  0.58310  0.14020  Biso   1.000  H
  H38      1.0000 0.28850  0.08310  0.85980  Biso   1.000  H
  C39      1.0000 0.79750  0.59074  0.09316  Biso   1.000  C
  C40      1.0000 0.20250  0.09074  0.90684  Biso   1.000  C
  H39      1.0000 0.81550  0.60650  0.11990  Biso   1.000  H
  H40      1.0000 0.18450  0.10650  0.88010  Biso   1.000  H
  C41      1.0000 0.83282  0.58127  0.04110  Biso   1.000  C
  C42      1.0000 0.16718  0.08127  0.95890  Biso   1.000  C
  H41      1.0000 0.87450  0.59060  0.03300  Biso   1.000  H
  H42      1.0000 0.12550  0.09060  0.96700  Biso   1.000  H
  N9       1.0000 0.59570  0.51716  0.68520  Biso   1.000  N
  N10      1.0000 0.40430  0.01716  0.31480  Biso   1.000  N
  C43      1.0000 0.61390  0.50474  0.62560  Biso   1.000  C
  C44      1.0000 0.38610  0.00474  0.37440  Biso   1.000  C
  H43      1.0000 0.65740  0.51040  0.61210  Biso   1.000  H
  H44      1.0000 0.34260  0.01040  0.38790  Biso   1.000  H
  C45      1.0000 0.56700  0.48389  0.58620  Biso   1.000  C
  C46      1.0000 0.43300  0.98389  0.41380  Biso   1.000  C
  H45      1.0000 0.57920  0.47560  0.54640  Biso   1.000  H
  H46      1.0000 0.42080  0.97560  0.45360  Biso   1.000  H
  C47      1.0000 0.50200  0.47545  0.60640  Biso   1.000  C
  C48      1.0000 0.49800  0.97545  0.39360  Biso   1.000  C
  H47      1.0000 0.47070  0.46150  0.58010  Biso   1.000  H
  H48      1.0000 0.52930  0.96150  0.41990  Biso   1.000  H
  C49      1.0000 0.48380  0.48787  0.66600  Biso   1.000  C
  C50      1.0000 0.51620  0.98787  0.33400  Biso   1.000  C
  H49      1.0000 0.44030  0.48220  0.67950  Biso   1.000  H
  H50      1.0000 0.55970  0.98220  0.32050  Biso   1.000  H
  C51      1.0000 0.53060  0.50872  0.70540  Biso   1.000  C
  C52      1.0000 0.46940  0.00872  0.29460  Biso   1.000  C
  N11      1.0000 0.57722  0.54192  0.80040  Biso   1.000  N
  N12      1.0000 0.42278  0.04192  0.19960  Biso   1.000  N
  C53      1.0000 0.51850  0.52329  0.76750  Biso   1.000  C
  C54      1.0000 0.48150  0.02329  0.23250  Biso   1.000  C
  C55      1.0000 0.45730  0.51915  0.79780  Biso   1.000  C
  C56      1.0000 0.54270  0.01915  0.20220  Biso   1.000  C
  H51      1.0000 0.41800  0.50670  0.77580  Biso   1.000  H
  H52      1.0000 0.58200  0.00670  0.22420  Biso   1.000  H
  C57      1.0000 0.45480  0.53364  0.86110  Biso   1.000  C
  C58      1.0000 0.54520  0.03364  0.13890  Biso   1.000  C
  H53      1.0000 0.41380  0.53090  0.88130  Biso   1.000  H
  H54      1.0000 0.58620  0.03090  0.11870  Biso   1.000  H
  C59      1.0000 0.51350  0.55227  0.89400  Biso   1.000  C
  C60      1.0000 0.48650  0.05227  0.10600  Biso   1.000  C
  H55      1.0000 0.51180  0.56200  0.93630  Biso   1.000  H
  H56      1.0000 0.48820  0.06200  0.06370  Biso   1.000  H
  C61      1.0000 0.57470  0.55640  0.86370  Biso   1.000  C
  C62      1.0000 0.42530  0.05640  0.13630  Biso   1.000  C
  H57      1.0000 0.61400  0.56890  0.88570  Biso   1.000  H
  H58      1.0000 0.38600  0.06890  0.11430  Biso   1.000  H
  N13      1.0000 0.75930  0.63501  0.61448  Biso   1.000  N
  N14      1.0000 0.24070  0.13501  0.38552  Biso   1.000  N
  C63      1.0000 0.69990  0.65158  0.62280  Biso   1.000  C
  C64      1.0000 0.30010  0.15158  0.37720  Biso   1.000  C
  H59      1.0000 0.67510  0.64760  0.65880  Biso   1.000  H
  H60      1.0000 0.32490  0.14760  0.34120  Biso   1.000  H
  C65      1.0000 0.67750  0.67417  0.57720  Biso   1.000  C
  C66      1.0000 0.32250  0.17417  0.42280  Biso   1.000  C
  H61      1.0000 0.63780  0.68530  0.58280  Biso   1.000  H
  H62      1.0000 0.36220  0.18530  0.41720  Biso   1.000  H
  C67      1.0000 0.71450  0.68017  0.52340  Biso   1.000  C
  C68      1.0000 0.28550  0.18017  0.47660  Biso   1.000  C
  H63      1.0000 0.69950  0.69530  0.49300  Biso   1.000  H
  H64      1.0000 0.30050  0.19530  0.50700  Biso   1.000  H
  C69      1.0000 0.77390  0.66360  0.51510  Biso   1.000  C
  C70      1.0000 0.22610  0.16360  0.48490  Biso   1.000  C
  H65      1.0000 0.79870  0.66760  0.47910  Biso   1.000  H
  H66      1.0000 0.20130  0.16760  0.52090  Biso   1.000  H
  C71      1.0000 0.79633  0.64101  0.56067  Biso   1.000  C
  C72      1.0000 0.20367  0.14101  0.43933  Biso   1.000  C
  N15      1.0000 0.86625  0.60094  0.60594  Biso   1.000  N
  N16      1.0000 0.13375  0.10094  0.39406  Biso   1.000  N
  C73      1.0000 0.85681  0.62276  0.55736  Biso   1.000  C
  C74      1.0000 0.14319  0.12276  0.44264  Biso   1.000  C
  C75      1.0000 0.90390  0.62521  0.51042  Biso   1.000  C
  C76      1.0000 0.09610  0.12521  0.48958  Biso   1.000  C
  H67      1.0000 0.89760  0.63980  0.47790  Biso   1.000  H
  H68      1.0000 0.10240  0.13980  0.52210  Biso   1.000  H
  C77      1.0000 0.96040  0.60584  0.51210  Biso   1.000  C
  C78      1.0000 0.03960  0.10584  0.48790  Biso   1.000  C
  H69      1.0000 0.99180  0.60750  0.48070  Biso   1.000  H
  H70      1.0000 0.00820  0.10750  0.51930  Biso   1.000  H
  C79      1.0000 0.96980  0.58401  0.56060  Biso   1.000  C
  C80      1.0000 0.03020  0.08401  0.43940  Biso   1.000  C
  H71      1.0000 0.00760  0.57100  0.56170  Biso   1.000  H
  H72      1.0000 0.99240  0.07100  0.43830  Biso   1.000  H
  C81      1.0000 0.92274  0.58156  0.60758  Biso   1.000  C
  C82      1.0000 0.07726  0.08156  0.39242  Biso   1.000  C
  H73      1.0000 0.92910  0.56700  0.64010  Biso   1.000  H
  H74      1.0000 0.07090  0.06700  0.35990  Biso   1.000  H
  N17      1.0000 0.81880  0.50345  0.46410  Biso   1.000  N
  N18      1.0000 0.18120  0.00345  0.53590  Biso   1.000  N
  N19      1.0000 0.74840  0.51079  0.33540  Biso   1.000  N
  N20      1.0000 0.25160  0.01079  0.66460  Biso   1.000  N
  N21      1.0000 0.64870  0.54231  0.29870  Biso   1.000  N
  N22      1.0000 0.35130  0.04231  0.70130  Biso   1.000  N
  H75      1.0000 0.62200  0.53430  0.25500  Biso   1.000  H
  H76      1.0000 0.37800  0.03430  0.74500  Biso   1.000  H
  H77      1.0000 0.61600  0.55390  0.30910  Biso   1.000  H
  H78      1.0000 0.38400  0.05390  0.69090  Biso   1.000  H
  C83      1.0000 0.80270  0.49656  0.38840  Biso   1.000  C
  C84      1.0000 0.19730  0.99656  0.61160  Biso   1.000  C
  O13      1.0000 0.83920  0.47780  0.36830  Biso   1.000  O
  O14      1.0000 0.16080  0.97780  0.63170  Biso   1.000  O
  C85      1.0000 0.70450  0.52971  0.35330  Biso   1.000  C
  C86      1.0000 0.29550  0.02971  0.64670  Biso   1.000  C
  C87      1.0000 0.72200  0.53764  0.43200  Biso   1.000  C
  C88      1.0000 0.27800  0.03764  0.56800  Biso   1.000  C
  H79      1.0000 0.69440  0.55150  0.44570  Biso   1.000  H
  H80      1.0000 0.30560  0.05150  0.55430  Biso   1.000  H
  C89      1.0000 0.77850  0.52461  0.48410  Biso   1.000  C
  C90      1.0000 0.22150  0.02461  0.51590  Biso   1.000  C
  H81      1.0000 0.79130  0.52970  0.53480  Biso   1.000  H
  H82      1.0000 0.20870  0.02970  0.46520  Biso   1.000  H
  C91      1.0000 0.87990  0.48879  0.52380  Biso   1.000  C
  C92      1.0000 0.12010  0.98879  0.47620  Biso   1.000  C
  H83      1.0000 0.89410  0.47220  0.50310  Biso   1.000  H
  H84      1.0000 0.10590  0.97220  0.49690  Biso   1.000  H
  C93      1.0000 0.95360  0.50489  0.56300  Biso   1.000  C
  C94      1.0000 0.04640  0.00489  0.43700  Biso   1.000  C
  H85      1.0000 0.93950  0.52370  0.56720  Biso   1.000  H
  H86      1.0000 0.06050  0.02370  0.43280  Biso   1.000  H
  C95      1.0000 0.98360  0.49227  0.64190  Biso   1.000  C
  C96      1.0000 0.01640  0.99227  0.35810  Biso   1.000  C
  H87      1.0000 0.00960  0.50560  0.68030  Biso   1.000  H
  H88      1.0000 0.99040  0.00560  0.31970  Biso   1.000  H
  C97      1.0000 0.90830  0.48205  0.65430  Biso   1.000  C
  C98      1.0000 0.09170  0.98205  0.34570  Biso   1.000  C
  H89      1.0000 0.91680  0.46320  0.66980  Biso   1.000  H
  H90      1.0000 0.08320  0.96320  0.33020  Biso   1.000  H
  C99      1.0000 0.87880  0.49638  0.71190  Biso   1.000  C
  C100     1.0000 0.12120  0.99638  0.28810  Biso   1.000  C
  H91      1.0000 0.82710  0.48960  0.70950  Biso   1.000  H
  H92      1.0000 0.17290  0.98960  0.29050  Biso   1.000  H
  H93      1.0000 0.91460  0.49320  0.76260  Biso   1.000  H
  H94      1.0000 0.08540  0.99320  0.23740  Biso   1.000  H
  O15      1.0000 0.84580  0.48293  0.58200  Biso   1.000  O
  O16      1.0000 0.15420  0.98293  0.41800  Biso   1.000  O
  O17      1.0000 0.00470  0.50292  0.51840  Biso   1.000  O
  O18      1.0000 0.99530  0.00292  0.48160  Biso   1.000  O
  H95      1.0000 0.04500  0.51160  0.53840  Biso   1.000  H
  H96      1.0000 0.95500  0.01160  0.46160  Biso   1.000  H
  O19      1.0000 0.03360  0.46990  0.64520  Biso   1.000  O
  O20      1.0000 0.96640  0.96990  0.35480  Biso   1.000  O
  H97      1.0000 0.07490  0.47490  0.63870  Biso   1.000  H
  H98      1.0000 0.92510  0.97490  0.36130  Biso   1.000  H
  P1       1.0000 0.83026  0.54305  0.74300  Biso   1.000  P
  P2       1.0000 0.16974  0.04305  0.25700  Biso   1.000  P
  O21      1.0000 0.85780  0.53203  0.82311  Biso   1.000  O
  O22      1.0000 0.14220  0.03203  0.17689  Biso   1.000  O
  O23      1.0000 0.74110  0.53976  0.70401  Biso   1.000  O
  O24      1.0000 0.25890  0.03976  0.29599  Biso   1.000  O
  O25      1.0000 0.85802  0.57138  0.73611  Biso   1.000  O
  O26      1.0000 0.14198  0.07138  0.26389  Biso   1.000  O
  O27      1.0000 0.87380  0.52489  0.69569  Biso   1.000  O
  O28      1.0000 0.12620  0.02489  0.30431  Biso   1.000  O
  N23      1.0000 0.48430  0.63967  0.86810  Biso   1.000  N
  N24      1.0000 0.51570  0.13967  0.13190  Biso   1.000  N
  N25      1.0000 0.34690  0.63686  0.80220  Biso   1.000  N
  N26      1.0000 0.65310  0.13686  0.19780  Biso   1.000  N
  N27      1.0000 0.29720  0.60364  0.71350  Biso   1.000  N
  N28      1.0000 0.70280  0.10364  0.28650  Biso   1.000  N
  H99      1.0000 0.24940  0.61070  0.69700  Biso   1.000  H
  H100     1.0000 0.75060  0.11070  0.30300  Biso   1.000  H
  H101     1.0000 0.30050  0.59120  0.68100  Biso   1.000  H
  H102     1.0000 0.69950  0.09120  0.31900  Biso   1.000  H
  C101     1.0000 0.40880  0.65034  0.85220  Biso   1.000  C
  C102     1.0000 0.59120  0.15034  0.14780  Biso   1.000  C
  O29      1.0000 0.39540  0.67132  0.88170  Biso   1.000  O
  O30      1.0000 0.60460  0.17132  0.11830  Biso   1.000  O
  C103     1.0000 0.35900  0.61518  0.76300  Biso   1.000  C
  C104     1.0000 0.64100  0.11518  0.23700  Biso   1.000  C
  C105     1.0000 0.43700  0.60526  0.77590  Biso   1.000  C
  C106     1.0000 0.56300  0.10526  0.22410  Biso   1.000  C
  H103     1.0000 0.44630  0.59020  0.75060  Biso   1.000  H
  H104     1.0000 0.55370  0.09020  0.24940  Biso   1.000  H
  C107     1.0000 0.49690  0.61842  0.82600  Biso   1.000  C
  C108     1.0000 0.50310  0.11842  0.17400  Biso   1.000  C
  H105     1.0000 0.54850  0.61300  0.83240  Biso   1.000  H
  H106     1.0000 0.45150  0.11300  0.16760  Biso   1.000  H
  C109     1.0000 0.55220  0.65310  0.92160  Biso   1.000  C
  C110     1.0000 0.44780  0.15310  0.07840  Biso   1.000  C
  H107     1.0000 0.53310  0.66740  0.94770  Biso   1.000  H
  H108     1.0000 0.46690  0.16740  0.05230  Biso   1.000  H
  C111     1.0000 0.60780  0.63466  0.98140  Biso   1.000  C
  C112     1.0000 0.39220  0.13466  0.01860  Biso   1.000  C
  H109     1.0000 0.60770  0.61670  0.96040  Biso   1.000  H
  H110     1.0000 0.39230  0.11670  0.03960  Biso   1.000  H
  C113     1.0000 0.68860  0.64771  0.99520  Biso   1.000  C
  C114     1.0000 0.31140  0.14771  0.00480  Biso   1.000  C
  H111     1.0000 0.73140  0.63450  0.00970  Biso   1.000  H
  H112     1.0000 0.26860  0.13450  0.99030  Biso   1.000  H
  C115     1.0000 0.68180  0.66091  0.91840  Biso   1.000  C
  C116     1.0000 0.31820  0.16091  0.08160  Biso   1.000  C
  H113     1.0000 0.70590  0.67870  0.92910  Biso   1.000  H
  H114     1.0000 0.29410  0.17870  0.07090  Biso   1.000  H
  C117     1.0000 0.72100  0.64643  0.86840  Biso   1.000  C
  C118     1.0000 0.27900  0.14643  0.13160  Biso   1.000  C
  H115     1.0000 0.70620  0.65500  0.81900  Biso   1.000  H
  H116     1.0000 0.29380  0.15500  0.18100  Biso   1.000  H
  H117     1.0000 0.77790  0.64780  0.89060  Biso   1.000  H
  H118     1.0000 0.22210  0.14780  0.10940  Biso   1.000  H
  O31      1.0000 0.59748  0.66467  0.87920  Biso   1.000  O
  O32      1.0000 0.40252  0.16467  0.12080  Biso   1.000  O
  O33      1.0000 0.58840  0.63326  0.04980  Biso   1.000  O
  O34      1.0000 0.41160  0.13326  0.95020  Biso   1.000  O
  H119     1.0000 0.54490  0.62620  0.04150  Biso   1.000  H
  H120     1.0000 0.45510  0.12620  0.95850  Biso   1.000  H
  O35      1.0000 0.69940  0.66848  0.05130  Biso   1.000  O
  O36      1.0000 0.30060  0.16848  0.94870  Biso   1.000  O
  H121     1.0000 0.74270  0.67550  0.05870  Biso   1.000  H
  H122     1.0000 0.25730  0.17550  0.94130  Biso   1.000  H
  P3       1.0000 0.75162  0.59971  0.82271  Biso   1.000  P
  P4       1.0000 0.24838  0.09971  0.17729  Biso   1.000  P
  O37      1.0000 0.83633  0.60314  0.87409  Biso   1.000  O
  O38      1.0000 0.16367  0.10314  0.12591  Biso   1.000  O
  O39      1.0000 0.72120  0.57117  0.82774  Biso   1.000  O
  O40      1.0000 0.27880  0.07117  0.17226  Biso   1.000  O
  O41      1.0000 0.73708  0.60895  0.74107  Biso   1.000  O
  O42      1.0000 0.26292  0.10895  0.25893  Biso   1.000  O
  O43      1.0000 0.69903  0.61860  0.85888  Biso   1.000  O
  O44      1.0000 0.30097  0.11860  0.14112  Biso   1.000  O
  Cu9      1.0000 0.25297  0.66003  0.79615  Biso   1.000  Cu
  Cu10     1.0000 0.74703  0.16003  0.20385  Biso   1.000  Cu
  N29      1.0000 0.17351  0.68594  0.81178  Biso   1.000  N
  N30      1.0000 0.82649  0.18594  0.18822  Biso   1.000  N
  C119     1.0000 0.15280  0.71041  0.77520  Biso   1.000  C
  C120     1.0000 0.84720  0.21041  0.22480  Biso   1.000  C
  H123     1.0000 0.17460  0.71560  0.73790  Biso   1.000  H
  H124     1.0000 0.82540  0.21560  0.26210  Biso   1.000  H
  C121     1.0000 0.09960  0.72709  0.79440  Biso   1.000  C
  C122     1.0000 0.90040  0.22709  0.20560  Biso   1.000  C
  H125     1.0000 0.08570  0.74350  0.77000  Biso   1.000  H
  H126     1.0000 0.91430  0.24350  0.23000  Biso   1.000  H
  C123     1.0000 0.06710  0.71929  0.85020  Biso   1.000  C
  C124     1.0000 0.93290  0.21929  0.14980  Biso   1.000  C
  H127     1.0000 0.03140  0.73040  0.86310  Biso   1.000  H
  H128     1.0000 0.96860  0.23040  0.13690  Biso   1.000  H
  C125     1.0000 0.08770  0.69482  0.88680  Biso   1.000  C
  C126     1.0000 0.91230  0.19482  0.11320  Biso   1.000  C
  H129     1.0000 0.06600  0.68960  0.92410  Biso   1.000  H
  H130     1.0000 0.93400  0.18960  0.07590  Biso   1.000  H
  C127     1.0000 0.14098  0.67815  0.86758  Biso   1.000  C
  C128     1.0000 0.85902  0.17815  0.13242  Biso   1.000  C
  N31      1.0000 0.22333  0.63986  0.87618  Biso   1.000  N
  N32      1.0000 0.77667  0.13986  0.12382  Biso   1.000  N
  C129     1.0000 0.16673  0.65264  0.90117  Biso   1.000  C
  C130     1.0000 0.83327  0.15264  0.09883  Biso   1.000  C
  C131     1.0000 0.13830  0.64036  0.95480  Biso   1.000  C
  C132     1.0000 0.86170  0.14036  0.04520  Biso   1.000  C
  H131     1.0000 0.10050  0.64890  0.97150  Biso   1.000  H
  H132     1.0000 0.89950  0.14890  0.02850  Biso   1.000  H
  C133     1.0000 0.16660  0.61531  0.98330  Biso   1.000  C
  C134     1.0000 0.83340  0.11531  0.01670  Biso   1.000  C
  H133     1.0000 0.14760  0.60710  0.01920  Biso   1.000  H
  H134     1.0000 0.85240  0.10710  0.98080  Biso   1.000  H
  C135     1.0000 0.22320  0.60253  0.95840  Biso   1.000  C
  C136     1.0000 0.77680  0.10253  0.04160  Biso   1.000  C
  H135     1.0000 0.24200  0.58580  0.97750  Biso   1.000  H
  H136     1.0000 0.75800  0.08580  0.02250  Biso   1.000  H
  C137     1.0000 0.25155  0.61481  0.90480  Biso   1.000  C
  C138     1.0000 0.74845  0.11481  0.09520  Biso   1.000  C
  H137     1.0000 0.28940  0.60630  0.88810  Biso   1.000  H
  H138     1.0000 0.71060  0.10630  0.11190  Biso   1.000  H
  Cu11     1.0000 0.18969  0.71810  0.13008  Biso   1.000  Cu
  Cu12     1.0000 0.81031  0.21810  0.86992  Biso   1.000  Cu
  Cu13     1.0000 0.12247  0.76204  0.21843  Biso   1.000  Cu
  Cu14     1.0000 0.87753  0.26204  0.78157  Biso   1.000  Cu
  Cu15     1.0000 0.28429  0.76341  0.39811  Biso   1.000  Cu
  Cu16     1.0000 0.71571  0.26341  0.60189  Biso   1.000  Cu
  Cu17     1.0000 0.39106  0.71383  0.26448  Biso   1.000  Cu
  Cu18     1.0000 0.60894  0.21383  0.73552  Biso   1.000  Cu
  O45      1.0000 0.10580  0.74274  0.12630  Biso   1.000  O
  O46      1.0000 0.89420  0.24274  0.87370  Biso   1.000  O
  H139     1.0000 0.06270  0.73410  0.11670  Biso   1.000  H
  H140     1.0000 0.93730  0.23410  0.88330  Biso   1.000  H
  O47      1.0000 0.37259  0.73296  0.46860  Biso   1.000  O
  O48      1.0000 0.62741  0.23296  0.53140  Biso   1.000  O
  H141     1.0000 0.37940  0.71870  0.43650  Biso   1.000  H
  H142     1.0000 0.62060  0.21870  0.56350  Biso   1.000  H
  H143     1.0000 0.42610  0.73910  0.48410  Biso   1.000  H
  H144     1.0000 0.57390  0.23910  0.51590  Biso   1.000  H
  O49      1.0000 0.47490  0.74386  0.34137  Biso   1.000  O
  O50      1.0000 0.52510  0.24386  0.65863  Biso   1.000  O
  H145     1.0000 0.44620  0.75820  0.35360  Biso   1.000  H
  H146     1.0000 0.55380  0.25820  0.64640  Biso   1.000  H
  H147     1.0000 0.50460  0.73770  0.39080  Biso   1.000  H
  H148     1.0000 0.49540  0.23770  0.60920  Biso   1.000  H
  N33      1.0000 0.25620  0.68896  0.10816  Biso   1.000  N
  N34      1.0000 0.74380  0.18896  0.89184  Biso   1.000  N
  C139     1.0000 0.27560  0.66527  0.14919  Biso   1.000  C
  C140     1.0000 0.72440  0.16527  0.85081  Biso   1.000  C
  H149     1.0000 0.25500  0.66170  0.18850  Biso   1.000  H
  H150     1.0000 0.74500  0.16170  0.81150  Biso   1.000  H
  C141     1.0000 0.32590  0.64694  0.13150  Biso   1.000  C
  C142     1.0000 0.67410  0.14694  0.86850  Biso   1.000  C
  H151     1.0000 0.33890  0.63110  0.15890  Biso   1.000  H
  H152     1.0000 0.66110  0.13110  0.84110  Biso   1.000  H
  C143     1.0000 0.35670  0.65229  0.07270  Biso   1.000  C
  C144     1.0000 0.64330  0.15229  0.92730  Biso   1.000  C
  H153     1.0000 0.39030  0.64000  0.06090  Biso   1.000  H
  H154     1.0000 0.60970  0.14000  0.93910  Biso   1.000  H
  C145     1.0000 0.33730  0.67598  0.03170  Biso   1.000  C
  C146     1.0000 0.66270  0.17598  0.96830  Biso   1.000  C
  H155     1.0000 0.35790  0.67960  0.99240  Biso   1.000  H
  H156     1.0000 0.64210  0.17960  0.00760  Biso   1.000  H
  C147     1.0000 0.28700  0.69431  0.04942  Biso   1.000  C
  C148     1.0000 0.71300  0.19431  0.95058  Biso   1.000  C
  N35      1.0000 0.20960  0.73376  0.03901  Biso   1.000  N
  N36      1.0000 0.79040  0.23376  0.96099  Biso   1.000  N
  C149     1.0000 0.26220  0.71915  0.01270  Biso   1.000  C
  C150     1.0000 0.73780  0.21915  0.98730  Biso   1.000  C
  C151     1.0000 0.28900  0.72957  0.95570  Biso   1.000  C
  C152     1.0000 0.71100  0.22957  0.04430  Biso   1.000  C
  H157     1.0000 0.32410  0.71980  0.93810  Biso   1.000  H
  H158     1.0000 0.67590  0.21980  0.06190  Biso   1.000  H
  C153     1.0000 0.26330  0.75459  0.92500  Biso   1.000  C
  C154     1.0000 0.73670  0.25459  0.07500  Biso   1.000  C
  H159     1.0000 0.28120  0.76160  0.88680  Biso   1.000  H
  H160     1.0000 0.71880  0.26160  0.11320  Biso   1.000  H
  C155     1.0000 0.21080  0.76919  0.95130  Biso   1.000  C
  C156     1.0000 0.78920  0.26919  0.04870  Biso   1.000  C
  H161     1.0000 0.19360  0.78590  0.93070  Biso   1.000  H
  H162     1.0000 0.80640  0.28590  0.06930  Biso   1.000  H
  C157     1.0000 0.18390  0.75878  0.00830  Biso   1.000  C
  C158     1.0000 0.81610  0.25878  0.99170  Biso   1.000  C
  H163     1.0000 0.14880  0.76860  0.02590  Biso   1.000  H
  H164     1.0000 0.85120  0.26860  0.97410  Biso   1.000  H
  N37      1.0000 0.11360  0.79020  0.29071  Biso   1.000  N
  N38      1.0000 0.88640  0.29020  0.70929  Biso   1.000  N
  C159     1.0000 0.15800  0.81359  0.30630  Biso   1.000  C
  C160     1.0000 0.84200  0.31359  0.69370  Biso   1.000  C
  H165     1.0000 0.19390  0.81730  0.28040  Biso   1.000  H
  H166     1.0000 0.80610  0.31730  0.71960  Biso   1.000  H
  C161     1.0000 0.14870  0.83143  0.36040  Biso   1.000  C
  C162     1.0000 0.85130  0.33143  0.63960  Biso   1.000  C
  H167     1.0000 0.17850  0.84710  0.37080  Biso   1.000  H
  H168     1.0000 0.82150  0.34710  0.62920  Biso   1.000  H
  C163     1.0000 0.09510  0.82588  0.39900  Biso   1.000  C
  C164     1.0000 0.90490  0.32588  0.60100  Biso   1.000  C
  H169     1.0000 0.08890  0.83780  0.43530  Biso   1.000  H
  H170     1.0000 0.91110  0.33780  0.56470  Biso   1.000  H
  C165     1.0000 0.05060  0.80249  0.38350  Biso   1.000  C
  C166     1.0000 0.94940  0.30249  0.61650  Biso   1.000  C
  H171     1.0000 0.01470  0.79880  0.40930  Biso   1.000  H
  H172     1.0000 0.98530  0.29880  0.59070  Biso   1.000  H
  C167     1.0000 0.05990  0.78464  0.32930  Biso   1.000  C
  C168     1.0000 0.94010  0.28464  0.67070  Biso   1.000  C
  N39      1.0000 0.03877  0.74548  0.25368  Biso   1.000  N
  N40      1.0000 0.96123  0.24548  0.74632  Biso   1.000  N
  C169     1.0000 0.01910  0.75998  0.30923  Biso   1.000  C
  C170     1.0000 0.98090  0.25998  0.69077  Biso   1.000  C
  C171     1.0000 0.96510  0.74964  0.34210  Biso   1.000  C
  C172     1.0000 0.03490  0.24964  0.65790  Biso   1.000  C
  H173     1.0000 0.95200  0.75930  0.37920  Biso   1.000  H
  H174     1.0000 0.04800  0.25930  0.62080  Biso   1.000  H
  C173     1.0000 0.93070  0.72479  0.31930  Biso   1.000  C
  C174     1.0000 0.06930  0.22479  0.68070  Biso   1.000  C
  H175     1.0000 0.89450  0.71790  0.34130  Biso   1.000  H
  H176     1.0000 0.10550  0.21790  0.65870  Biso   1.000  H
  C175     1.0000 0.95030  0.71028  0.26380  Biso   1.000  C
  C176     1.0000 0.04970  0.21028  0.73620  Biso   1.000  C
  H177     1.0000 0.92730  0.69370  0.24860  Biso   1.000  H
  H178     1.0000 0.07270  0.19370  0.75140  Biso   1.000  H
  C177     1.0000 0.00430  0.72063  0.23100  Biso   1.000  C
  C178     1.0000 0.99570  0.22063  0.76900  Biso   1.000  C
  H179     1.0000 0.01750  0.71090  0.19380  Biso   1.000  H
  H180     1.0000 0.98250  0.21090  0.80620  Biso   1.000  H
  N41      1.0000 0.33530  0.79421  0.46450  Biso   1.000  N
  N42      1.0000 0.66470  0.29421  0.53550  Biso   1.000  N
  C179     1.0000 0.40040  0.80841  0.45910  Biso   1.000  C
  C180     1.0000 0.59960  0.30841  0.54090  Biso   1.000  C
  H181     1.0000 0.41970  0.80530  0.41870  Biso   1.000  H
  H182     1.0000 0.58030  0.30530  0.58130  Biso   1.000  H
  C181     1.0000 0.43660  0.82731  0.51400  Biso   1.000  C
  C182     1.0000 0.56340  0.32731  0.48600  Biso   1.000  C
  H183     1.0000 0.48020  0.83680  0.51040  Biso   1.000  H
  H184     1.0000 0.51980  0.33680  0.48960  Biso   1.000  H
  C183     1.0000 0.40780  0.83200  0.57440  Biso   1.000  C
  C184     1.0000 0.59220  0.33200  0.42560  Biso   1.000  C
  H185     1.0000 0.43210  0.84460  0.61120  Biso   1.000  H
  H186     1.0000 0.56790  0.34460  0.38880  Biso   1.000  H
  C185     1.0000 0.34270  0.81779  0.57990  Biso   1.000  C
  C186     1.0000 0.65730  0.31779  0.42010  Biso   1.000  C
  H187     1.0000 0.32350  0.82090  0.62030  Biso   1.000  H
  H188     1.0000 0.67650  0.32090  0.37970  Biso   1.000  H
  C187     1.0000 0.30650  0.79890  0.52500  Biso   1.000  C
  C188     1.0000 0.69350  0.29890  0.47500  Biso   1.000  C
  N43      1.0000 0.22140  0.76324  0.47087  Biso   1.000  N
  N44      1.0000 0.77860  0.26324  0.52913  Biso   1.000  N
  C189     1.0000 0.24020  0.78323  0.52580  Biso   1.000  C
  C190     1.0000 0.75980  0.28323  0.47420  Biso   1.000  C
  C191     1.0000 0.19790  0.78541  0.57720  Biso   1.000  C
  C192     1.0000 0.80210  0.28541  0.42280  Biso   1.000  C
  H189     1.0000 0.21050  0.79880  0.61390  Biso   1.000  H
  H190     1.0000 0.78950  0.29880  0.38610  Biso   1.000  H
  C193     1.0000 0.13690  0.76759  0.57360  Biso   1.000  C
  C194     1.0000 0.86310  0.26759  0.42640  Biso   1.000  C
  H191     1.0000 0.10870  0.76910  0.60790  Biso   1.000  H
  H192     1.0000 0.89130  0.26910  0.39210  Biso   1.000  H
  C195     1.0000 0.11820  0.74760  0.51860  Biso   1.000  C
  C196     1.0000 0.88180  0.24760  0.48140  Biso   1.000  C
  H193     1.0000 0.07740  0.73570  0.51620  Biso   1.000  H
  H194     1.0000 0.92260  0.23570  0.48380  Biso   1.000  H
  C197     1.0000 0.16040  0.74542  0.46726  Biso   1.000  C
  C198     1.0000 0.83960  0.24542  0.53274  Biso   1.000  C
  H195     1.0000 0.14780  0.73200  0.43050  Biso   1.000  H
  H196     1.0000 0.85220  0.23200  0.56950  Biso   1.000  H
  N45      1.0000 0.46034  0.68235  0.30120  Biso   1.000  N
  N46      1.0000 0.53966  0.18235  0.69880  Biso   1.000  N
  C199     1.0000 0.46110  0.66689  0.36390  Biso   1.000  C
  C200     1.0000 0.53890  0.16689  0.63610  Biso   1.000  C
  H197     1.0000 0.42930  0.67160  0.39320  Biso   1.000  H
  H198     1.0000 0.57070  0.17160  0.60680  Biso   1.000  H
  C201     1.0000 0.50940  0.64443  0.38260  Biso   1.000  C
  C202     1.0000 0.49060  0.14443  0.61740  Biso   1.000  C
  H199     1.0000 0.50990  0.63410  0.42450  Biso   1.000  H
  H200     1.0000 0.49010  0.13410  0.57550  Biso   1.000  H
  C203     1.0000 0.55690  0.63743  0.33880  Biso   1.000  C
  C204     1.0000 0.44310  0.13743  0.66120  Biso   1.000  C
  H201     1.0000 0.58920  0.62240  0.35130  Biso   1.000  H
  H202     1.0000 0.41080  0.12240  0.64870  Biso   1.000  H
  C205     1.0000 0.55620  0.65289  0.27620  Biso   1.000  C
  C206     1.0000 0.44380  0.15289  0.72380  Biso   1.000  C
  H203     1.0000 0.58800  0.64820  0.24680  Biso   1.000  H
  H204     1.0000 0.41200  0.14820  0.75320  Biso   1.000  H
  C207     1.0000 0.50790  0.67534  0.25740  Biso   1.000  C
  C208     1.0000 0.49210  0.17534  0.74260  Biso   1.000  C
  N47      1.0000 0.45029  0.71396  0.18827  Biso   1.000  N
  N48      1.0000 0.54971  0.21396  0.81173  Biso   1.000  N
  C209     1.0000 0.50426  0.69317  0.19685  Biso   1.000  C
  C210     1.0000 0.49574  0.19317  0.80315  Biso   1.000  C
  C211     1.0000 0.54900  0.69107  0.14770  Biso   1.000  C
  C212     1.0000 0.45100  0.19107  0.85230  Biso   1.000  C
  H205     1.0000 0.58510  0.67720  0.15340  Biso   1.000  H
  H206     1.0000 0.41490  0.17720  0.84660  Biso   1.000  H
  C213     1.0000 0.53980  0.70975  0.08990  Biso   1.000  C
  C214     1.0000 0.46020  0.20975  0.91010  Biso   1.000  C
  H207     1.0000 0.56970  0.70830  0.05700  Biso   1.000  H
  H208     1.0000 0.43030  0.20830  0.94300  Biso   1.000  H
  C215     1.0000 0.48580  0.73053  0.08135  Biso   1.000  C
  C216     1.0000 0.51420  0.23053  0.91865  Biso   1.000  C
  H209     1.0000 0.47960  0.74300  0.04270  Biso   1.000  H
  H210     1.0000 0.52040  0.24300  0.95730  Biso   1.000  H
  C217     1.0000 0.44106  0.73264  0.13052  Biso   1.000  C
  C218     1.0000 0.55894  0.23264  0.86948  Biso   1.000  C
  H211     1.0000 0.40490  0.74650  0.12480  Biso   1.000  H
  H212     1.0000 0.59510  0.24650  0.87520  Biso   1.000  H
  N49      1.0000 0.20540  0.66939  0.57080  Biso   1.000  N
  N50      1.0000 0.79460  0.16939  0.42920  Biso   1.000  N
  N51      1.0000 0.25980  0.67796  0.70200  Biso   1.000  N
  N52      1.0000 0.74020  0.17796  0.29800  Biso   1.000  N
  N53      1.0000 0.34940  0.71243  0.74620  Biso   1.000  N
  N54      1.0000 0.65060  0.21243  0.25380  Biso   1.000  N
  H213     1.0000 0.37100  0.70460  0.79130  Biso   1.000  H
  H214     1.0000 0.62900  0.20460  0.20870  Biso   1.000  H
  H215     1.0000 0.34200  0.72960  0.75400  Biso   1.000  H
  H216     1.0000 0.65800  0.22960  0.24600  Biso   1.000  H
  C219     1.0000 0.21110  0.66304  0.64480  Biso   1.000  C
  C220     1.0000 0.78890  0.16304  0.35520  Biso   1.000  C
  O51      1.0000 0.17400  0.64453  0.66170  Biso   1.000  O
  O52      1.0000 0.82600  0.14453  0.33830  Biso   1.000  O
  C221     1.0000 0.30380  0.69890  0.68640  Biso   1.000  C
  C222     1.0000 0.69620  0.19890  0.31360  Biso   1.000  C
  C223     1.0000 0.29650  0.70520  0.61170  Biso   1.000  C
  C224     1.0000 0.70350  0.20520  0.38830  Biso   1.000  C
  H217     1.0000 0.32360  0.71970  0.60040  Biso   1.000  H
  H218     1.0000 0.67640  0.21970  0.39960  Biso   1.000  H
  C225     1.0000 0.24910  0.68994  0.55570  Biso   1.000  C
  C226     1.0000 0.75090  0.18994  0.44430  Biso   1.000  C
  H219     1.0000 0.24600  0.69350  0.50560  Biso   1.000  H
  H220     1.0000 0.75400  0.19350  0.49440  Biso   1.000  H
  C227     1.0000 0.15530  0.65308  0.50720  Biso   1.000  C
  C228     1.0000 0.84470  0.15308  0.49280  Biso   1.000  C
  H221     1.0000 0.13570  0.63720  0.52690  Biso   1.000  H
  H222     1.0000 0.86430  0.13720  0.47310  Biso   1.000  H
  C229     1.0000 0.08560  0.66857  0.45210  Biso   1.000  C
  C230     1.0000 0.91440  0.16857  0.54790  Biso   1.000  C
  H223     1.0000 0.10020  0.68730  0.44870  Biso   1.000  H
  H224     1.0000 0.89980  0.18730  0.55130  Biso   1.000  H
  C231     1.0000 0.07620  0.65413  0.37650  Biso   1.000  C
  C232     1.0000 0.92380  0.15413  0.62350  Biso   1.000  C
  H225     1.0000 0.05720  0.66660  0.33370  Biso   1.000  H
  H226     1.0000 0.94280  0.16660  0.66630  Biso   1.000  H
  C233     1.0000 0.15970  0.64450  0.38370  Biso   1.000  C
  C234     1.0000 0.84030  0.14450  0.61630  Biso   1.000  C
  H227     1.0000 0.15640  0.62580  0.36660  Biso   1.000  H
  H228     1.0000 0.84360  0.12580  0.63340  Biso   1.000  H
  C235     1.0000 0.20380  0.66033  0.33980  Biso   1.000  C
  C236     1.0000 0.79620  0.16033  0.66020  Biso   1.000  C
  H229     1.0000 0.25790  0.65400  0.35280  Biso   1.000  H
  H230     1.0000 0.74210  0.15400  0.64720  Biso   1.000  H
  H231     1.0000 0.17880  0.65780  0.28570  Biso   1.000  H
  H232     1.0000 0.82120  0.15780  0.71430  Biso   1.000  H
  O53      1.0000 0.20510  0.64519  0.46387  Biso   1.000  O
  O54      1.0000 0.79490  0.14519  0.53613  Biso   1.000  O
  O55      1.0000 0.01830  0.66690  0.47560  Biso   1.000  O
  O56      1.0000 0.98170  0.16690  0.52440  Biso   1.000  O
  H233     1.0000 0.98200  0.67520  0.44590  Biso   1.000  H
  H234     1.0000 0.01800  0.17520  0.55410  Biso   1.000  H
  O57      1.0000 0.02470  0.63194  0.36710  Biso   1.000  O
  O58      1.0000 0.97530  0.13194  0.63290  Biso   1.000  O
  H235     1.0000 0.98000  0.63720  0.36310  Biso   1.000  H
  H236     1.0000 0.02000  0.13720  0.63690  Biso   1.000  H
  P5       1.0000 0.23485  0.70876  0.30651  Biso   1.000  P
  P6       1.0000 0.76515  0.20876  0.69349  Biso   1.000  P
  O59      1.0000 0.18840  0.70221  0.22503  Biso   1.000  O
  O60      1.0000 0.81160  0.20221  0.77497  Biso   1.000  O
  O61      1.0000 0.21540  0.73648  0.33073  Biso   1.000  O
  O62      1.0000 0.78460  0.23648  0.66927  Biso   1.000  O
  O63      1.0000 0.32380  0.70381  0.32652  Biso   1.000  O
  O64      1.0000 0.67620  0.20381  0.67348  Biso   1.000  O
  O65      1.0000 0.20322  0.68849  0.35835  Biso   1.000  O
  O66      1.0000 0.79678  0.18849  0.64165  Biso   1.000  O
  N55      1.0000 0.59150  0.80892  0.22510  Biso   1.000  N
  N56      1.0000 0.40850  0.30892  0.77490  Biso   1.000  N
  N57      1.0000 0.72910  0.80618  0.29200  Biso   1.000  N
  N58      1.0000 0.27090  0.30618  0.70800  Biso   1.000  N
  N59      1.0000 0.77910  0.77287  0.37960  Biso   1.000  N
  N60      1.0000 0.22090  0.27287  0.62040  Biso   1.000  N
  H237     1.0000 0.82720  0.77930  0.39200  Biso   1.000  H
  H238     1.0000 0.17280  0.27930  0.60800  Biso   1.000  H
  H239     1.0000 0.77400  0.76000  0.41100  Biso   1.000  H
  H240     1.0000 0.22600  0.26000  0.58900  Biso   1.000  H
  C237     1.0000 0.66680  0.81982  0.24140  Biso   1.000  C
  C238     1.0000 0.33320  0.31982  0.75860  Biso   1.000  C
  O67      1.0000 0.68070  0.84075  0.21300  Biso   1.000  O
  O68      1.0000 0.31930  0.34075  0.78700  Biso   1.000  O
  C239     1.0000 0.71720  0.78404  0.32810  Biso   1.000  C
  C240     1.0000 0.28280  0.28404  0.67190  Biso   1.000  C
  C241     1.0000 0.63940  0.77323  0.31240  Biso   1.000  C
  C242     1.0000 0.36060  0.27323  0.68760  Biso   1.000  C
  H241     1.0000 0.63060  0.75780  0.33650  Biso   1.000  H
  H242     1.0000 0.36940  0.25780  0.66350  Biso   1.000  H
  C243     1.0000 0.57890  0.78629  0.26120  Biso   1.000  C
  C244     1.0000 0.42110  0.28629  0.73880  Biso   1.000  C
  H243     1.0000 0.52780  0.77970  0.25060  Biso   1.000  H
  H244     1.0000 0.47220  0.27970  0.74940  Biso   1.000  H
  C245     1.0000 0.52370  0.82274  0.17180  Biso   1.000  C
  C246     1.0000 0.47630  0.32274  0.82820  Biso   1.000  C
  H245     1.0000 0.54180  0.83880  0.15160  Biso   1.000  H
  H246     1.0000 0.45820  0.33880  0.84840  Biso   1.000  H
  C247     1.0000 0.47430  0.80506  0.10560  Biso   1.000  C
  C248     1.0000 0.52570  0.30506  0.89440  Biso   1.000  C
  H247     1.0000 0.46990  0.78710  0.12490  Biso   1.000  H
  H248     1.0000 0.53010  0.28710  0.87510  Biso   1.000  H
  C249     1.0000 0.39340  0.81873  0.08430  Biso   1.000  C
  C250     1.0000 0.60660  0.31873  0.91570  Biso   1.000  C
  H249     1.0000 0.35050  0.80580  0.06510  Biso   1.000  H
  H250     1.0000 0.64950  0.30580  0.93490  Biso   1.000  H
  C251     1.0000 0.39190  0.83123  0.16020  Biso   1.000  C
  C252     1.0000 0.60810  0.33123  0.83980  Biso   1.000  C
  H251     1.0000 0.37580  0.85000  0.15160  Biso   1.000  H
  H252     1.0000 0.62420  0.35000  0.84840  Biso   1.000  H
  C253     1.0000 0.33720  0.81678  0.19720  Biso   1.000  C
  C254     1.0000 0.66280  0.31678  0.80280  Biso   1.000  C
  H253     1.0000 0.34660  0.82340  0.24850  Biso   1.000  H
  H254     1.0000 0.65340  0.32340  0.75150  Biso   1.000  H
  H255     1.0000 0.28250  0.82030  0.16830  Biso   1.000  H
  H256     1.0000 0.71750  0.32030  0.83170  Biso   1.000  H
  O69      1.0000 0.47200  0.83001  0.21150  Biso   1.000  O
  O70      1.0000 0.52800  0.33001  0.78850  Biso   1.000  O
  O71      1.0000 0.50470  0.80314  0.04510  Biso   1.000  O
  O72      1.0000 0.49530  0.30314  0.95490  Biso   1.000  O
  H257     1.0000 0.54780  0.79570  0.05930  Biso   1.000  H
  H258     1.0000 0.45220  0.29570  0.94070  Biso   1.000  H
  O73      1.0000 0.38840  0.83983  0.03070  Biso   1.000  O
  O74      1.0000 0.61160  0.33983  0.96930  Biso   1.000  O
  H259     1.0000 0.34480  0.84690  0.02000  Biso   1.000  H
  H260     1.0000 0.65520  0.34690  0.98000  Biso   1.000  H
  P7       1.0000 0.30177  0.76955  0.23581  Biso   1.000  P
  P8       1.0000 0.69823  0.26955  0.76419  Biso   1.000  P
  O75      1.0000 0.21680  0.77819  0.20410  Biso   1.000  O
  O76      1.0000 0.78320  0.27819  0.79590  Biso   1.000  O
  O77      1.0000 0.33560  0.77327  0.32245  Biso   1.000  O
  O78      1.0000 0.66440  0.27327  0.67755  Biso   1.000  O
  O79      1.0000 0.31624  0.74168  0.20946  Biso   1.000  O
  O80      1.0000 0.68376  0.24168  0.79054  Biso   1.000  O
  O81      1.0000 0.35230  0.78881  0.19890  Biso   1.000  O
  O82      1.0000 0.64770  0.28881  0.80110  Biso   1.000  O
  Cu19     1.0000 0.82062  0.83107  0.30223  Biso   1.000  Cu
  Cu20     1.0000 0.17938  0.33107  0.69777  Biso   1.000  Cu
  N61      1.0000 0.89120  0.86007  0.28751  Biso   1.000  N
  N62      1.0000 0.10880  0.36007  0.71249  Biso   1.000  N
  C255     1.0000 0.90100  0.88502  0.32250  Biso   1.000  C
  C256     1.0000 0.09900  0.38502  0.67750  Biso   1.000  C
  H261     1.0000 0.87360  0.88920  0.35620  Biso   1.000  H
  H262     1.0000 0.12640  0.38920  0.64380  Biso   1.000  H
  C257     1.0000 0.95190  0.90366  0.30710  Biso   1.000  C
  C258     1.0000 0.04810  0.40366  0.69290  Biso   1.000  C
  H263     1.0000 0.95850  0.92040  0.33050  Biso   1.000  H
  H264     1.0000 0.04150  0.42040  0.66950  Biso   1.000  H
  C259     1.0000 0.99290  0.89736  0.25670  Biso   1.000  C
  C260     1.0000 0.00710  0.39736  0.74330  Biso   1.000  C
  H265     1.0000 0.02690  0.90980  0.24640  Biso   1.000  H
  H266     1.0000 0.97310  0.40980  0.75360  Biso   1.000  H
  C261     1.0000 0.98300  0.87241  0.22170  Biso   1.000  C
  C262     1.0000 0.01700  0.37241  0.77830  Biso   1.000  C
  H267     1.0000 0.01050  0.86820  0.18800  Biso   1.000  H
  H268     1.0000 0.98950  0.36820  0.81200  Biso   1.000  H
  C263     1.0000 0.93220  0.85377  0.23712  Biso   1.000  C
  C264     1.0000 0.06780  0.35377  0.76288  Biso   1.000  C
  N63      1.0000 0.86166  0.81294  0.22635  Biso   1.000  N
  N64      1.0000 0.13834  0.31294  0.77365  Biso   1.000  N
  C265     1.0000 0.91592  0.82796  0.20356  Biso   1.000  C
  C266     1.0000 0.08408  0.32796  0.79644  Biso   1.000  C
  C267     1.0000 0.94859  0.81762  0.15047  Biso   1.000  C
  C268     1.0000 0.05141  0.31762  0.84953  Biso   1.000  C
  H269     1.0000 0.98490  0.82770  0.13520  Biso   1.000  H
  H270     1.0000 0.01510  0.32770  0.86480  Biso   1.000  H
  C269     1.0000 0.92700  0.79226  0.12018  Biso   1.000  C
  C270     1.0000 0.07300  0.29226  0.87982  Biso   1.000  C
  H271     1.0000 0.94880  0.78530  0.08470  Biso   1.000  H
  H272     1.0000 0.05120  0.28530  0.91530  Biso   1.000  H
  C271     1.0000 0.87270  0.77724  0.14300  Biso   1.000  C
  C272     1.0000 0.12730  0.27724  0.85700  Biso   1.000  C
  H273     1.0000 0.85830  0.76030  0.12270  Biso   1.000  H
  H274     1.0000 0.14170  0.26030  0.87730  Biso   1.000  H
  C273     1.0000 0.84006  0.78758  0.19606  Biso   1.000  C
  C274     1.0000 0.15994  0.28758  0.80394  Biso   1.000  C
  H275     1.0000 0.80380  0.77750  0.21130  Biso   1.000  H
  H276     1.0000 0.19620  0.27750  0.78870  Biso   1.000  H
  Cu21     1.0000 0.90426  0.89056  0.96800  Biso   1.000  Cu
  Cu22     1.0000 0.09574  0.39056  0.03200  Biso   1.000  Cu
  Cu23     1.0000 0.94543  0.93369  0.85462  Biso   1.000  Cu
  Cu24     1.0000 0.05457  0.43369  0.14538  Biso   1.000  Cu
  Cu25     1.0000 0.78097  0.92683  0.68613  Biso   1.000  Cu
  Cu26     1.0000 0.21903  0.42683  0.31387  Biso   1.000  Cu
  Cu27     1.0000 0.69554  0.87695  0.83467  Biso   1.000  Cu
  Cu28     1.0000 0.30446  0.37695  0.16533  Biso   1.000  Cu
  O83      1.0000 0.97590  0.91719  0.95180  Biso   1.000  O
  O84      1.0000 0.02410  0.41719  0.04820  Biso   1.000  O
  H277     1.0000 0.02540  0.91490  0.97450  Biso   1.000  H
  H278     1.0000 0.97460  0.41490  0.02550  Biso   1.000  H
  O85      1.0000 0.70469  0.89144  0.63100  Biso   1.000  O
  O86      1.0000 0.29531  0.39144  0.36900  Biso   1.000  O
  H279     1.0000 0.70830  0.87770  0.66710  Biso   1.000  H
  H280     1.0000 0.29170  0.37770  0.33290  Biso   1.000  H
  H281     1.0000 0.65090  0.89560  0.61990  Biso   1.000  H
  H282     1.0000 0.34910  0.39560  0.38010  Biso   1.000  H
  O87      1.0000 0.59760  0.90223  0.74580  Biso   1.000  O
  O88      1.0000 0.40240  0.40223  0.25420  Biso   1.000  O
  H283     1.0000 0.61760  0.91940  0.74070  Biso   1.000  H
  H284     1.0000 0.38240  0.41940  0.25930  Biso   1.000  H
  H285     1.0000 0.58560  0.89630  0.69510  Biso   1.000  H
  H286     1.0000 0.41440  0.39630  0.30490  Biso   1.000  H
  O89      1.0000 0.00920  0.86290  0.04070  Biso   1.000  O
  O90      1.0000 0.99080  0.36290  0.95930  Biso   1.000  O
  N65      1.0000 0.83310  0.86469  0.99773  Biso   1.000  N
  N66      1.0000 0.16690  0.36469  0.00227  Biso   1.000  N
  C275     1.0000 0.81430  0.83904  0.96852  Biso   1.000  C
  C276     1.0000 0.18570  0.33904  0.03148  Biso   1.000  C
  H287     1.0000 0.83480  0.83270  0.93140  Biso   1.000  H
  H288     1.0000 0.16520  0.33270  0.06860  Biso   1.000  H
  C277     1.0000 0.76480  0.82290  0.99470  Biso   1.000  C
  C278     1.0000 0.23520  0.32290  0.00530  Biso   1.000  C
  H289     1.0000 0.75230  0.80570  0.97520  Biso   1.000  H
  H290     1.0000 0.24770  0.30570  0.02480  Biso   1.000  H
  C279     1.0000 0.73410  0.83241  0.05020  Biso   1.000  C
  C280     1.0000 0.26590  0.33241  0.94980  Biso   1.000  C
  H291     1.0000 0.70100  0.82160  0.06770  Biso   1.000  H
  H292     1.0000 0.29900  0.32160  0.93230  Biso   1.000  H
  C281     1.0000 0.75290  0.85806  0.07941  Biso   1.000  C
  C282     1.0000 0.24710  0.35806  0.92059  Biso   1.000  C
  H293     1.0000 0.73240  0.86440  0.11650  Biso   1.000  H
  H294     1.0000 0.26760  0.36440  0.88350  Biso   1.000  H
  C283     1.0000 0.80240  0.87419  0.05318  Biso   1.000  C
  C284     1.0000 0.19760  0.37419  0.94682  Biso   1.000  C
  N67      1.0000 0.88220  0.91196  0.04999  Biso   1.000  N
  N68      1.0000 0.11780  0.41196  0.95001  Biso   1.000  N
  C285     1.0000 0.82660  0.90080  0.07950  Biso   1.000  C
  C286     1.0000 0.17340  0.40080  0.92050  Biso   1.000  C
  C287     1.0000 0.79950  0.91529  0.13040  Biso   1.000  C
  C288     1.0000 0.20050  0.41529  0.86960  Biso   1.000  C
  H295     1.0000 0.76230  0.90780  0.15020  Biso   1.000  H
  H296     1.0000 0.23770  0.40780  0.84980  Biso   1.000  H
  C289     1.0000 0.82810  0.94094  0.15190  Biso   1.000  C
  C290     1.0000 0.17190  0.44094  0.84810  Biso   1.000  C
  H297     1.0000 0.81000  0.95060  0.18590  Biso   1.000  H
  H298     1.0000 0.19000  0.45060  0.81410  Biso   1.000  H
  C291     1.0000 0.88370  0.95211  0.12240  Biso   1.000  C
  C292     1.0000 0.11630  0.45211  0.87760  Biso   1.000  C
  H299     1.0000 0.90290  0.96930  0.13670  Biso   1.000  H
  H300     1.0000 0.09710  0.46930  0.86330  Biso   1.000  H
  C293     1.0000 0.91080  0.93761  0.07140  Biso   1.000  C
  C294     1.0000 0.08920  0.43761  0.92860  Biso   1.000  C
  H301     1.0000 0.94800  0.94510  0.05170  Biso   1.000  H
  H302     1.0000 0.05200  0.44510  0.94830  Biso   1.000  H
  N69      1.0000 0.94243  0.96105  0.77353  Biso   1.000  N
  N70      1.0000 0.05757  0.46105  0.22647  Biso   1.000  N
  C295     1.0000 0.89030  0.98250  0.75381  Biso   1.000  C
  C296     1.0000 0.10970  0.48250  0.24619  Biso   1.000  C
  H303     1.0000 0.85400  0.98540  0.77980  Biso   1.000  H
  H304     1.0000 0.14600  0.48540  0.22020  Biso   1.000  H
  C297     1.0000 0.89240  0.99961  0.69530  Biso   1.000  C
  C298     1.0000 0.10760  0.49961  0.30470  Biso   1.000  C
  H305     1.0000 0.85750  0.01400  0.68210  Biso   1.000  H
  H306     1.0000 0.14250  0.51400  0.31790  Biso   1.000  H
  C299     1.0000 0.94660  0.99526  0.65648  Biso   1.000  C
  C300     1.0000 0.05340  0.49526  0.34352  Biso   1.000  C
  H307     1.0000 0.94790  0.00670  0.61730  Biso   1.000  H
  H308     1.0000 0.05210  0.50670  0.38270  Biso   1.000  H
  C301     1.0000 0.99869  0.97380  0.67621  Biso   1.000  C
  C302     1.0000 0.00131  0.47380  0.32379  Biso   1.000  C
  H309     1.0000 0.03490  0.97090  0.65020  Biso   1.000  H
  H310     1.0000 0.96510  0.47090  0.34980  Biso   1.000  H
  C303     1.0000 0.99663  0.95670  0.73473  Biso   1.000  C
  C304     1.0000 0.00337  0.45670  0.26527  Biso   1.000  C
  N71      1.0000 0.03217  0.91962  0.81950  Biso   1.000  N
  N72      1.0000 0.96783  0.41962  0.18050  Biso   1.000  N
  C305     1.0000 0.04503  0.93363  0.75964  Biso   1.000  C
  C306     1.0000 0.95497  0.43363  0.24036  Biso   1.000  C
  C307     1.0000 0.09970  0.92424  0.72618  Biso   1.000  C
  C308     1.0000 0.90030  0.42424  0.27382  Biso   1.000  C
  H311     1.0000 0.10830  0.93360  0.68610  Biso   1.000  H
  H312     1.0000 0.89170  0.43360  0.31390  Biso   1.000  H
  C309     1.0000 0.14150  0.90084  0.75260  Biso   1.000  C
  C310     1.0000 0.85850  0.40084  0.24740  Biso   1.000  C
  H313     1.0000 0.17810  0.89460  0.73020  Biso   1.000  H
  H314     1.0000 0.82190  0.39460  0.26980  Biso   1.000  H
  C311     1.0000 0.12860  0.88683  0.81240  Biso   1.000  C
  C312     1.0000 0.87140  0.38683  0.18760  Biso   1.000  C
  H315     1.0000 0.15660  0.87120  0.83010  Biso   1.000  H
  H316     1.0000 0.84340  0.37120  0.16990  Biso   1.000  H
  C313     1.0000 0.07400  0.89622  0.84590  Biso   1.000  C
  C314     1.0000 0.92600  0.39622  0.15410  Biso   1.000  C
  H317     1.0000 0.06540  0.88680  0.88600  Biso   1.000  H
  H318     1.0000 0.93460  0.38680  0.11400  Biso   1.000  H
  N73      1.0000 0.72430  0.95597  0.61748  Biso   1.000  N
  N74      1.0000 0.27570  0.45597  0.38252  Biso   1.000  N
  C315     1.0000 0.66390  0.97133  0.62880  Biso   1.000  C
  C316     1.0000 0.33610  0.47133  0.37120  Biso   1.000  C
  H319     1.0000 0.64460  0.96740  0.66870  Biso   1.000  H
  H320     1.0000 0.35540  0.46740  0.33130  Biso   1.000  H
  C317     1.0000 0.63250  0.99261  0.58040  Biso   1.000  C
  C318     1.0000 0.36750  0.49261  0.41960  Biso   1.000  C
  H321     1.0000 0.59200  0.00290  0.58800  Biso   1.000  H
  H322     1.0000 0.40800  0.50290  0.41200  Biso   1.000  H
  C319     1.0000 0.66140  0.99853  0.52080  Biso   1.000  C
  C320     1.0000 0.33860  0.49853  0.47920  Biso   1.000  C
  H323     1.0000 0.64030  0.01280  0.48840  Biso   1.000  H
  H324     1.0000 0.35970  0.51280  0.51160  Biso   1.000  H
  C321     1.0000 0.72180  0.98317  0.50950  Biso   1.000  C
  C322     1.0000 0.27820  0.48317  0.49050  Biso   1.000  C
  H325     1.0000 0.74110  0.98710  0.46960  Biso   1.000  H
  H326     1.0000 0.25890  0.48710  0.53040  Biso   1.000  H
  C323     1.0000 0.75320  0.96189  0.55780  Biso   1.000  C
  C324     1.0000 0.24680  0.46189  0.44220  Biso   1.000  C
  N75      1.0000 0.84140  0.92662  0.61126  Biso   1.000  N
  N76      1.0000 0.15860  0.42662  0.38874  Biso   1.000  N
  C325     1.0000 0.81720  0.94555  0.55360  Biso   1.000  C
  C326     1.0000 0.18280  0.44555  0.44640  Biso   1.000  C
  C327     1.0000 0.85620  0.94765  0.49958  Biso   1.000  C
  C328     1.0000 0.14380  0.44765  0.50042  Biso   1.000  C
  H327     1.0000 0.84000  0.96030  0.46100  Biso   1.000  H
  H328     1.0000 0.16000  0.46030  0.53900  Biso   1.000  H
  C329     1.0000 0.91940  0.93082  0.50320  Biso   1.000  C
  C330     1.0000 0.08060  0.43082  0.49680  Biso   1.000  C
  H329     1.0000 0.94550  0.93220  0.46710  Biso   1.000  H
  H330     1.0000 0.05450  0.43220  0.53290  Biso   1.000  H
  C331     1.0000 0.94360  0.91189  0.56090  Biso   1.000  C
  C332     1.0000 0.05640  0.41189  0.43910  Biso   1.000  C
  H331     1.0000 0.98590  0.90060  0.56330  Biso   1.000  H
  H332     1.0000 0.01410  0.40060  0.43670  Biso   1.000  H
  C333     1.0000 0.90460  0.90979  0.61489  Biso   1.000  C
  C334     1.0000 0.09540  0.40979  0.38511  Biso   1.000  C
  H333     1.0000 0.92080  0.89710  0.65350  Biso   1.000  H
  H334     1.0000 0.07920  0.39710  0.34650  Biso   1.000  H
  N77      1.0000 0.64157  0.84142  0.81240  Biso   1.000  N
  N78      1.0000 0.35843  0.34142  0.18760  Biso   1.000  N
  C335     1.0000 0.65300  0.82238  0.76210  Biso   1.000  C
  C336     1.0000 0.34700  0.32238  0.23790  Biso   1.000  C
  H335     1.0000 0.68630  0.82610  0.73350  Biso   1.000  H
  H336     1.0000 0.31370  0.32610  0.26650  Biso   1.000  H
  C337     1.0000 0.61460  0.79782  0.75460  Biso   1.000  C
  C338     1.0000 0.38540  0.29782  0.24540  Biso   1.000  C
  H337     1.0000 0.62230  0.78510  0.72100  Biso   1.000  H
  H338     1.0000 0.37770  0.28510  0.27900  Biso   1.000  H
  C339     1.0000 0.56480  0.79230  0.79730  Biso   1.000  C
  C340     1.0000 0.43520  0.29230  0.20270  Biso   1.000  C
  H339     1.0000 0.53910  0.77590  0.79230  Biso   1.000  H
  H340     1.0000 0.46090  0.27590  0.20770  Biso   1.000  H
  C341     1.0000 0.55340  0.81134  0.84760  Biso   1.000  C
  C342     1.0000 0.44660  0.31134  0.15240  Biso   1.000  C
  H341     1.0000 0.52000  0.80770  0.87620  Biso   1.000  H
  H342     1.0000 0.48000  0.30770  0.12380  Biso   1.000  H
  C343     1.0000 0.59180  0.83590  0.85510  Biso   1.000  C
  C344     1.0000 0.40820  0.33590  0.14490  Biso   1.000  C
  N79      1.0000 0.63043  0.87912  0.90442  Biso   1.000  N
  N80      1.0000 0.36957  0.37912  0.09558  Biso   1.000  N
  C345     1.0000 0.58410  0.85673  0.90433  Biso   1.000  C
  C346     1.0000 0.41590  0.35673  0.09567  Biso   1.000  C
  C347     1.0000 0.53680  0.85591  0.95140  Biso   1.000  C
  C348     1.0000 0.46320  0.35591  0.04860  Biso   1.000  C
  H343     1.0000 0.50580  0.84090  0.95130  Biso   1.000  H
  H344     1.0000 0.49420  0.34090  0.04870  Biso   1.000  H
  C349     1.0000 0.53590  0.87748  0.99850  Biso   1.000  C
  C350     1.0000 0.46410  0.37748  0.00150  Biso   1.000  C
  H345     1.0000 0.50420  0.87690  0.03000  Biso   1.000  H
  H346     1.0000 0.49580  0.37690  0.97000  Biso   1.000  H
  C351     1.0000 0.58220  0.89986  0.99860  Biso   1.000  C
  C352     1.0000 0.41780  0.39986  0.00140  Biso   1.000  C
  H347     1.0000 0.58160  0.91430  0.03010  Biso   1.000  H
  H348     1.0000 0.41840  0.41430  0.96990  Biso   1.000  H
  C353     1.0000 0.62950  0.90068  0.95160  Biso   1.000  C
  C354     1.0000 0.37050  0.40068  0.04840  Biso   1.000  C
  H349     1.0000 0.66050  0.91570  0.95160  Biso   1.000  H
  H350     1.0000 0.33950  0.41570  0.04840  Biso   1.000  H
  N81      1.0000 0.86760  0.83497  0.52890  Biso   1.000  N
  N82      1.0000 0.13240  0.33497  0.47110  Biso   1.000  N
  N83      1.0000 0.80870  0.84572  0.39960  Biso   1.000  N
  N84      1.0000 0.19130  0.34572  0.60040  Biso   1.000  N
  N85      1.0000 0.70470  0.87602  0.36150  Biso   1.000  N
  N86      1.0000 0.29530  0.37602  0.63850  Biso   1.000  N
  H351     1.0000 0.69300  0.87170  0.31270  Biso   1.000  H
  H352     1.0000 0.30700  0.37170  0.68730  Biso   1.000  H
  H353     1.0000 0.66600  0.88580  0.36770  Biso   1.000  H
  H354     1.0000 0.33400  0.38580  0.63230  Biso   1.000  H
  C355     1.0000 0.86320  0.83155  0.45410  Biso   1.000  C
  C356     1.0000 0.13680  0.33155  0.54590  Biso   1.000  C
  O91      1.0000 0.90460  0.81499  0.43340  Biso   1.000  O
  O92      1.0000 0.09540  0.31499  0.56660  Biso   1.000  O
  C357     1.0000 0.75760  0.86302  0.41670  Biso   1.000  C
  C358     1.0000 0.24240  0.36302  0.58330  Biso   1.000  C
  C359     1.0000 0.76190  0.86633  0.49490  Biso   1.000  C
  C360     1.0000 0.23810  0.36633  0.50510  Biso   1.000  C
  H355     1.0000 0.72730  0.87780  0.50840  Biso   1.000  H
  H356     1.0000 0.27270  0.37780  0.49160  Biso   1.000  H
  C361     1.0000 0.81650  0.85270  0.54760  Biso   1.000  C
  C362     1.0000 0.18350  0.35270  0.45240  Biso   1.000  C
  H357     1.0000 0.82050  0.85510  0.59840  Biso   1.000  H
  H358     1.0000 0.17950  0.35510  0.40160  Biso   1.000  H
  C363     1.0000 0.92410  0.81924  0.59010  Biso   1.000  C
  C364     1.0000 0.07590  0.31924  0.40990  Biso   1.000  C
  H359     1.0000 0.94120  0.80340  0.56840  Biso   1.000  H
  H360     1.0000 0.05880  0.30340  0.43160  Biso   1.000  H
  C365     1.0000 0.99710  0.83516  0.63840  Biso   1.000  C
  C366     1.0000 0.00290  0.33516  0.36160  Biso   1.000  C
  H361     1.0000 0.98240  0.85390  0.64150  Biso   1.000  H
  H362     1.0000 0.01760  0.35390  0.35850  Biso   1.000  H
  C367     1.0000 0.01580  0.82226  0.71630  Biso   1.000  C
  C368     1.0000 0.98420  0.32226  0.28370  Biso   1.000  C
  H363     1.0000 0.03750  0.83550  0.75650  Biso   1.000  H
  H364     1.0000 0.96250  0.33550  0.24350  Biso   1.000  H
  C369     1.0000 0.93620  0.81218  0.71860  Biso   1.000  C
  C370     1.0000 0.06380  0.31218  0.28140  Biso   1.000  C
  H365     1.0000 0.94320  0.79380  0.73800  Biso   1.000  H
  H366     1.0000 0.05680  0.29380  0.26200  Biso   1.000  H
  C371     1.0000 0.89560  0.82792  0.76500  Biso   1.000  C
  C372     1.0000 0.10440  0.32792  0.23500  Biso   1.000  C
  H367     1.0000 0.84390  0.82030  0.75870  Biso   1.000  H
  H368     1.0000 0.15610  0.32030  0.24130  Biso   1.000  H
  H369     1.0000 0.92630  0.82670  0.81840  Biso   1.000  H
  H370     1.0000 0.07370  0.32670  0.18160  Biso   1.000  H
  O93      1.0000 0.88370  0.81141  0.64049  Biso   1.000  O
  O94      1.0000 0.11630  0.31141  0.35951  Biso   1.000  O
  O95      1.0000 0.06250  0.83379  0.61010  Biso   1.000  O
  O96      1.0000 0.93750  0.33379  0.38990  Biso   1.000  O
  H371     1.0000 0.05080  0.84090  0.56820  Biso   1.000  H
  H372     1.0000 0.94920  0.34090  0.43180  Biso   1.000  H
  O97      1.0000 0.06840  0.80007  0.72450  Biso   1.000  O
  O98      1.0000 0.93160  0.30007  0.27550  Biso   1.000  O
  H373     1.0000 0.04540  0.78620  0.72860  Biso   1.000  H
  H374     1.0000 0.95460  0.28620  0.27140  Biso   1.000  H
  P9       1.0000 0.85050  0.87573  0.79070  Biso   1.000  P
  P10      1.0000 0.14950  0.37573  0.20930  Biso   1.000  P
  O99      1.0000 0.89840  0.87202  0.87275  Biso   1.000  O
  O100     1.0000 0.10160  0.37202  0.12725  Biso   1.000  O
  O101     1.0000 0.85985  0.90354  0.75965  Biso   1.000  O
  O102     1.0000 0.14015  0.40354  0.24035  Biso   1.000  O
  O103     1.0000 0.76311  0.86788  0.77320  Biso   1.000  O
  O104     1.0000 0.23689  0.36788  0.22680  Biso   1.000  O
  O105     1.0000 0.88690  0.85579  0.74207  Biso   1.000  O
  O106     1.0000 0.11310  0.35579  0.25793  Biso   1.000  O
  N87      1.0000 0.47060  0.97580  0.84610  Biso   1.000  N
  N88      1.0000 0.52940  0.47580  0.15390  Biso   1.000  N
  N89      1.0000 0.33520  0.97191  0.77630  Biso   1.000  N
  N90      1.0000 0.66480  0.47191  0.22370  Biso   1.000  N
  N91      1.0000 0.29040  0.93676  0.69390  Biso   1.000  N
  N92      1.0000 0.70960  0.43676  0.30610  Biso   1.000  N
  H375     1.0000 0.24800  0.94580  0.66500  Biso   1.000  H
  H376     1.0000 0.75200  0.44580  0.33500  Biso   1.000  H
  H377     1.0000 0.29800  0.92450  0.66100  Biso   1.000  H
  H378     1.0000 0.70200  0.42450  0.33900  Biso   1.000  H
  C373     1.0000 0.39580  0.98668  0.82470  Biso   1.000  C
  C374     1.0000 0.60420  0.48668  0.17530  Biso   1.000  C
  O107     1.0000 0.37930  0.00845  0.84810  Biso   1.000  O
  O108     1.0000 0.62070  0.50845  0.15190  Biso   1.000  O
  C375     1.0000 0.34910  0.94883  0.74520  Biso   1.000  C
  C376     1.0000 0.65090  0.44883  0.25480  Biso   1.000  C
  C377     1.0000 0.42770  0.93802  0.76760  Biso   1.000  C
  C378     1.0000 0.57230  0.43802  0.23240  Biso   1.000  C
  H379     1.0000 0.43770  0.92160  0.74860  Biso   1.000  H
  H380     1.0000 0.56230  0.42160  0.25140  Biso   1.000  H
  C379     1.0000 0.48670  0.95195  0.81670  Biso   1.000  C
  C380     1.0000 0.51330  0.45195  0.18330  Biso   1.000  C
  H381     1.0000 0.53820  0.94550  0.83060  Biso   1.000  H
  H382     1.0000 0.46180  0.44550  0.16940  Biso   1.000  H
  C381     1.0000 0.53790  0.99173  0.89630  Biso   1.000  C
  C382     1.0000 0.46210  0.49173  0.10370  Biso   1.000  C
  H383     1.0000 0.51870  0.00890  0.90900  Biso   1.000  H
  H384     1.0000 0.48130  0.50890  0.09100  Biso   1.000  H
  C383     1.0000 0.58470  0.97697  0.96910  Biso   1.000  C
  C384     1.0000 0.41530  0.47697  0.03090  Biso   1.000  C
  H385     1.0000 0.58770  0.95790  0.95790  Biso   1.000  H
  H386     1.0000 0.41230  0.45790  0.04210  Biso   1.000  H
  C385     1.0000 0.66790  0.98956  0.98800  Biso   1.000  C
  C386     1.0000 0.33210  0.48956  0.01200  Biso   1.000  C
  H387     1.0000 0.70780  0.97570  0.00800  Biso   1.000  H
  H388     1.0000 0.29220  0.47570  0.99200  Biso   1.000  H
  C387     1.0000 0.67100  0.99853  0.91000  Biso   1.000  C
  C388     1.0000 0.32900  0.49853  0.09000  Biso   1.000  C
  H389     1.0000 0.68530  0.01750  0.91370  Biso   1.000  H
  H390     1.0000 0.31470  0.51750  0.08630  Biso   1.000  H
  C389     1.0000 0.72810  0.98397  0.87960  Biso   1.000  C
  C390     1.0000 0.27190  0.48397  0.12040  Biso   1.000  C
  H391     1.0000 0.72040  0.98940  0.82750  Biso   1.000  H
  H392     1.0000 0.27960  0.48940  0.17250  Biso   1.000  H
  H393     1.0000 0.78190  0.98840  0.90960  Biso   1.000  H
  H394     1.0000 0.21810  0.48840  0.09040  Biso   1.000  H
  O109     1.0000 0.59210  0.99604  0.85560  Biso   1.000  O
  O110     1.0000 0.40790  0.49604  0.14440  Biso   1.000  O
  O111     1.0000 0.54630  0.98012  0.02440  Biso   1.000  O
  O112     1.0000 0.45370  0.48012  0.97560  Biso   1.000  O
  H395     1.0000 0.57130  0.97230  0.06340  Biso   1.000  H
  H396     1.0000 0.42870  0.47230  0.93660  Biso   1.000  H
  O113     1.0000 0.68190  0.01136  0.04130  Biso   1.000  O
  O114     1.0000 0.31810  0.51136  0.95870  Biso   1.000  O
  H397     1.0000 0.67990  0.00590  0.08230  Biso   1.000  H
  H398     1.0000 0.32010  0.50590  0.91770  Biso   1.000  H
  P11      1.0000 0.76647  0.93594  0.84704  Biso   1.000  P
  P12      1.0000 0.23353  0.43594  0.15296  Biso   1.000  P
  O115     1.0000 0.85007  0.94682  0.87271  Biso   1.000  O
  O116     1.0000 0.14993  0.44682  0.12729  Biso   1.000  O
  O117     1.0000 0.72870  0.93670  0.76068  Biso   1.000  O
  O118     1.0000 0.27130  0.43670  0.23932  Biso   1.000  O
  O119     1.0000 0.75780  0.90883  0.88076  Biso   1.000  O
  O120     1.0000 0.24220  0.40883  0.11924  Biso   1.000  O
  O121     1.0000 0.71560  0.95544  0.88280  Biso   1.000  O
  O122     1.0000 0.28440  0.45544  0.11720  Biso   1.000  O
  Cu29     1.0000 0.24034  0.99589  0.76150  Biso   1.000  Cu
  Cu30     1.0000 0.75966  0.49589  0.23850  Biso   1.000  Cu
  N93      1.0000 0.20570  0.97982  0.84411  Biso   1.000  N
  N94      1.0000 0.79430  0.47982  0.15589  Biso   1.000  N
  C391     1.0000 0.23640  0.95658  0.88370  Biso   1.000  C
  C392     1.0000 0.76360  0.45658  0.11630  Biso   1.000  C
  H399     1.0000 0.27610  0.94720  0.87180  Biso   1.000  H
  H400     1.0000 0.72390  0.44720  0.12820  Biso   1.000  H
  C393     1.0000 0.20790  0.94741  0.94090  Biso   1.000  C
  C394     1.0000 0.79210  0.44741  0.05910  Biso   1.000  C
  H401     1.0000 0.22850  0.93190  0.96740  Biso   1.000  H
  H402     1.0000 0.77150  0.43190  0.03260  Biso   1.000  H
  C395     1.0000 0.14870  0.96146  0.95870  Biso   1.000  C
  C396     1.0000 0.85130  0.46146  0.04130  Biso   1.000  C
  H403     1.0000 0.12960  0.95530  0.99700  Biso   1.000  H
  H404     1.0000 0.87040  0.45530  0.00300  Biso   1.000  H
  C397     1.0000 0.11800  0.98470  0.91910  Biso   1.000  C
  C398     1.0000 0.88200  0.48470  0.08090  Biso   1.000  C
  H405     1.0000 0.07840  0.99410  0.93100  Biso   1.000  H
  H406     1.0000 0.92160  0.49410  0.06900  Biso   1.000  H
  C399     1.0000 0.14650  0.99388  0.86180  Biso   1.000  C
  C400     1.0000 0.85350  0.49388  0.13820  Biso   1.000  C
  N95      1.0000 0.15455  0.02212  0.76170  Biso   1.000  N
  N96      1.0000 0.84545  0.52212  0.23830  Biso   1.000  N
  C401     1.0000 0.11920  0.01690  0.81730  Biso   1.000  C
  C402     1.0000 0.88080  0.51690  0.18270  Biso   1.000  C
  C403     1.0000 0.05970  0.03357  0.82490  Biso   1.000  C
  C404     1.0000 0.94030  0.53357  0.17510  Biso   1.000  C
  H407     1.0000 0.03610  0.03010  0.86210  Biso   1.000  H
  H408     1.0000 0.96390  0.53010  0.13790  Biso   1.000  H
  C405     1.0000 0.03550  0.05547  0.77690  Biso   1.000  C
  C406     1.0000 0.96450  0.55547  0.22310  Biso   1.000  C
  H409     1.0000 0.99570  0.06660  0.78200  Biso   1.000  H
  H410     1.0000 0.00430  0.56660  0.21800  Biso   1.000  H
  C407     1.0000 0.07080  0.06069  0.72130  Biso   1.000  C
  C408     1.0000 0.92920  0.56069  0.27870  Biso   1.000  C
  H411     1.0000 0.05460  0.07530  0.68920  Biso   1.000  H
  H412     1.0000 0.94540  0.57530  0.31080  Biso   1.000  H
  C409     1.0000 0.13030  0.04401  0.71370  Biso   1.000  C
  C410     1.0000 0.86970  0.54401  0.28630  Biso   1.000  C
  H413     1.0000 0.15400  0.04750  0.67650  Biso   1.000  H
  H414     1.0000 0.84600  0.54750  0.32350  Biso   1.000  H
  S3       1.0000 0.18790  0.90320  0.12620  Biso   1.000  S
  S4       1.0000 0.81210  0.40320  0.87380  Biso   1.000  S
  O123     1.0000 0.12160  0.91900  0.10910  Biso   1.000  O
  O124     1.0000 0.87840  0.41900  0.89090  Biso   1.000  O
  O125     1.0000 0.24950  0.91450  0.10530  Biso   1.000  O
  O126     1.0000 0.75050  0.41450  0.89470  Biso   1.000  O
  O127     1.0000 0.17480  0.87610  0.10700  Biso   1.000  O
  O128     1.0000 0.82520  0.37610  0.89300  Biso   1.000  O
  C411     1.0000 0.23420  0.90320  0.22610  Biso   1.000  C
  C412     1.0000 0.76580  0.40320  0.77390  Biso   1.000  C
  F7       1.0000 0.18370  0.89690  0.26030  Biso   1.000  F
  F8       1.0000 0.81630  0.39690  0.73970  Biso   1.000  F
  F9       1.0000 0.28720  0.88530  0.24920  Biso   1.000  F
  F10      1.0000 0.71280  0.38530  0.75080  Biso   1.000  F
  F11      1.0000 0.25970  0.92760  0.24580  Biso   1.000  F
  F12      1.0000 0.74030  0.42760  0.75420  Biso   1.000  F
  O129     1.0000 0.63970  0.77410  0.08590  Biso   1.000  O
  O130     1.0000 0.36030  0.27410  0.91410  Biso   1.000  O
  O131     1.0000 0.72820  0.73685  0.19510  Biso   1.000  O
  O132     1.0000 0.27180  0.23685  0.80490  Biso   1.000  O
  O133     1.0000 0.95190  0.72007  0.05670  Biso   1.000  O
  O134     1.0000 0.04810  0.22007  0.94330  Biso   1.000  O
  O135     1.0000 0.56120  0.72143  0.84520  Biso   1.000  O
  O136     1.0000 0.43880  0.22143  0.15480  Biso   1.000  O
  O137     1.0000 0.80030  0.71191  0.09290  Biso   1.000  O
  O138     1.0000 0.19970  0.21191  0.90710  Biso   1.000  O
  O139     1.0000 0.81720  0.98850  0.33190  Biso   1.000  O
  O140     1.0000 0.18280  0.48850  0.66810  Biso   1.000  O
  O141     1.0000 0.67630  0.75060  0.96620  Biso   1.000  O
  O142     1.0000 0.32370  0.25060  0.03380  Biso   1.000  O
  O143     1.0000 0.43710  0.74650  0.89060  Biso   1.000  O
  O144     1.0000 0.56290  0.24650  0.10940  Biso   1.000  O
  O145     1.0000 0.71740  0.99270  0.18950  Biso   1.000  O
  O146     1.0000 0.28260  0.49270  0.81050  Biso   1.000  O
  O147     1.0000 0.71120  0.70967  0.32590  Biso   1.000  O
  O148     1.0000 0.28880  0.20967  0.67410  Biso   1.000  O
  O149     1.0000 0.35880  0.89300  0.63200  Biso   1.000  O
  O150     1.0000 0.64120  0.39300  0.36800  Biso   1.000  O
  O151     1.0000 0.65770  0.91990  0.42580  Biso   1.000  O
  O152     1.0000 0.34230  0.41990  0.57420  Biso   1.000  O
  O153     1.0000 0.52520  0.73140  0.68900  Biso   1.000  O
  O154     1.0000 0.47480  0.23140  0.31100  Biso   1.000  O
  O155     1.0000 0.40580  0.75720  0.68120  Biso   1.000  O
  O156     1.0000 0.59420  0.25720  0.31880  Biso   1.000  O
  O157     1.0000 0.01100  0.99670  0.04530  Biso   1.000  O
  O158     1.0000 0.98900  0.49670  0.95470  Biso   1.000  O
  S5       1.0000 0.45877  0.57479  0.05903  Biso   1.000  S
  S6       1.0000 0.54123  0.07479  0.94097  Biso   1.000  S
  O159     1.0000 0.44480  0.59938  0.02900  Biso   1.000  O
  O160     1.0000 0.55520  0.09938  0.97100  Biso   1.000  O
  O161     1.0000 0.54150  0.57060  0.07670  Biso   1.000  O
  O162     1.0000 0.45850  0.07060  0.92330  Biso   1.000  O
  O163     1.0000 0.41440  0.55336  0.02610  Biso   1.000  O
  O164     1.0000 0.58560  0.05336  0.97390  Biso   1.000  O
  C413     1.0000 0.44900  0.57701  0.15230  Biso   1.000  C
  C414     1.0000 0.55100  0.07701  0.84770  Biso   1.000  C
  F13      1.0000 0.48080  0.59696  0.18990  Biso   1.000  F
  F14      1.0000 0.51920  0.09696  0.81010  Biso   1.000  F
  F15      1.0000 0.37140  0.58140  0.14510  Biso   1.000  F
  F16      1.0000 0.62860  0.08140  0.85490  Biso   1.000  F
  F17      1.0000 0.47170  0.55503  0.19170  Biso   1.000  F
  F18      1.0000 0.52830  0.05503  0.80830  Biso   1.000  F
  S7       1.0000 0.90541  0.73000  0.52146  Biso   1.000  S
  S8       1.0000 0.09459  0.23000  0.47854  Biso   1.000  S
  O165     1.0000 0.83120  0.72193  0.46930  Biso   1.000  O
  O166     1.0000 0.16880  0.22193  0.53070  Biso   1.000  O
  O167     1.0000 0.93340  0.75568  0.50460  Biso   1.000  O
  O168     1.0000 0.06660  0.25568  0.49540  Biso   1.000  O
  O169     1.0000 0.96640  0.70941  0.54240  Biso   1.000  O
  O170     1.0000 0.03360  0.20941  0.45760  Biso   1.000  O
  C415     1.0000 0.88440  0.73573  0.60990  Biso   1.000  C
  C416     1.0000 0.11560  0.23573  0.39010  Biso   1.000  C
  F19      1.0000 0.94290  0.74535  0.66330  Biso   1.000  F
  F20      1.0000 0.05710  0.24535  0.33670  Biso   1.000  F
  F21      1.0000 0.82880  0.75389  0.60130  Biso   1.000  F
  F22      1.0000 0.17120  0.25389  0.39870  Biso   1.000  F
  F23      1.0000 0.85930  0.71338  0.63280  Biso   1.000  F
  F24      1.0000 0.14070  0.21338  0.36720  Biso   1.000  F
  S9       1.0000 0.12517  0.54952  0.10088  Biso   1.000  S
  S10      1.0000 0.87483  0.04952  0.89912  Biso   1.000  S
  O171     1.0000 0.17180  0.54880  0.04950  Biso   1.000  O
  O172     1.0000 0.82820  0.04880  0.95050  Biso   1.000  O
  O173     1.0000 0.10080  0.52315  0.11580  Biso   1.000  O
  O174     1.0000 0.89920  0.02315  0.88420  Biso   1.000  O
  O175     1.0000 0.06240  0.56903  0.08700  Biso   1.000  O
  O176     1.0000 0.93760  0.06903  0.91300  Biso   1.000  O
  C417     1.0000 0.19320  0.56090  0.19040  Biso   1.000  C
  C418     1.0000 0.80680  0.06090  0.80960  Biso   1.000  C
  F25      1.0000 0.15800  0.56140  0.24410  Biso   1.000  F
  F26      1.0000 0.84200  0.06140  0.75590  Biso   1.000  F
  F27      1.0000 0.25330  0.54180  0.21180  Biso   1.000  F
  F28      1.0000 0.74670  0.04180  0.78820  Biso   1.000  F
  F29      1.0000 0.22520  0.58380  0.18570  Biso   1.000  F
  F30      1.0000 0.77480  0.08380  0.81430  Biso   1.000  F
  S11      1.0000 0.19133  0.55454  0.57239  Biso   1.000  S
  S12      1.0000 0.80867  0.05454  0.42761  Biso   1.000  S
  O177     1.0000 0.27370  0.55160  0.60640  Biso   1.000  O
  O178     1.0000 0.72630  0.05160  0.39360  Biso   1.000  O
  O179     1.0000 0.16130  0.57680  0.60120  Biso   1.000  O
  O180     1.0000 0.83870  0.07680  0.39880  Biso   1.000  O
  O181     1.0000 0.15090  0.53170  0.56920  Biso   1.000  O
  O182     1.0000 0.84910  0.03170  0.43080  Biso   1.000  O
  C419     1.0000 0.18150  0.56339  0.47600  Biso   1.000  C
  C420     1.0000 0.81850  0.06339  0.52400  Biso   1.000  C
  F31      1.0000 0.10500  0.56840  0.43680  Biso   1.000  F
  F32      1.0000 0.89500  0.06840  0.56320  Biso   1.000  F
  F33      1.0000 0.20690  0.54523  0.43920  Biso   1.000  F
  F34      1.0000 0.79310  0.04523  0.56080  Biso   1.000  F
  F35      1.0000 0.22120  0.58481  0.47460  Biso   1.000  F
  F36      1.0000 0.77880  0.08481  0.52540  Biso   1.000  F
  C421     1.0000 0.75990  0.61790  0.30400  Biso   1.000  C
  C422     1.0000 0.24010  0.11790  0.69600  Biso   1.000  C
  F37      1.0000 0.69220  0.60805  0.25540  Biso   1.000  F
  F38      1.0000 0.30780  0.10805  0.74460  Biso   1.000  F
  F39      1.0000 0.73740  0.62290  0.36520  Biso   1.000  F
  F40      1.0000 0.26260  0.12290  0.63480  Biso   1.000  F
  F41      1.0000 0.81100  0.59968  0.32540  Biso   1.000  F
  F42      1.0000 0.18900  0.09968  0.67460  Biso   1.000  F
  S13      1.0000 0.79430  0.64694  0.26949  Biso   1.000  S
  S14      1.0000 0.20570  0.14694  0.73051  Biso   1.000  S
  O183     1.0000 0.85960  0.65610  0.32930  Biso   1.000  O
  O184     1.0000 0.14040  0.15610  0.67070  Biso   1.000  O
  O185     1.0000 0.72790  0.66510  0.25270  Biso   1.000  O
  O186     1.0000 0.27210  0.16510  0.74730  Biso   1.000  O
  O187     1.0000 0.80460  0.64040  0.20000  Biso   1.000  O
  O188     1.0000 0.19540  0.14040  0.80000  Biso   1.000  O
  S15      1.0000 0.60043  0.75693  0.53468  Biso   1.000  S
  S16      1.0000 0.39957  0.25693  0.46532  Biso   1.000  S
  O189     1.0000 0.61190  0.74207  0.47340  Biso   1.000  O
  O190     1.0000 0.38810  0.24207  0.52660  Biso   1.000  O
  O191     1.0000 0.51760  0.76137  0.52790  Biso   1.000  O
  O192     1.0000 0.48240  0.26137  0.47210  Biso   1.000  O
  O193     1.0000 0.64830  0.74941  0.60890  Biso   1.000  O
  O194     1.0000 0.35170  0.24941  0.39110  Biso   1.000  O
  C423     1.0000 0.63620  0.79150  0.52430  Biso   1.000  C
  C424     1.0000 0.36380  0.29150  0.47570  Biso   1.000  C
  F43      1.0000 0.63170  0.80657  0.57590  Biso   1.000  F
  F44      1.0000 0.36830  0.30657  0.42410  Biso   1.000  F
  F45      1.0000 0.70940  0.78972  0.51780  Biso   1.000  F
  F46      1.0000 0.29060  0.28972  0.48220  Biso   1.000  F
  F47      1.0000 0.59160  0.80145  0.45880  Biso   1.000  F
  F48      1.0000 0.40840  0.30145  0.54120  Biso   1.000  F
  S17      1.0000 0.49630  0.65811  0.66354  Biso   1.000  S
  S18      1.0000 0.50370  0.15811  0.33646  Biso   1.000  S
  O195     1.0000 0.53020  0.68119  0.64140  Biso   1.000  O
  O196     1.0000 0.46980  0.18119  0.35860  Biso   1.000  O
  O197     1.0000 0.44130  0.66393  0.70320  Biso   1.000  O
  O198     1.0000 0.55870  0.16393  0.29680  Biso   1.000  O
  O199     1.0000 0.55200  0.63730  0.69550  Biso   1.000  O
  O200     1.0000 0.44800  0.13730  0.30450  Biso   1.000  O
  C425     1.0000 0.43870  0.64420  0.57490  Biso   1.000  C
  C426     1.0000 0.56130  0.14420  0.42510  Biso   1.000  C
  F49      1.0000 0.39400  0.66010  0.52410  Biso   1.000  F
  F50      1.0000 0.60600  0.16010  0.47590  Biso   1.000  F
  F51      1.0000 0.48360  0.63200  0.54000  Biso   1.000  F
  F52      1.0000 0.51640  0.13200  0.46000  Biso   1.000  F
  F53      1.0000 0.39060  0.62470  0.58870  Biso   1.000  F
  F54      1.0000 0.60940  0.12470  0.41130  Biso   1.000  F
  S19      1.0000 0.51299  0.56285  0.43366  Biso   1.000  S
  S20      1.0000 0.48701  0.06285  0.56634  Biso   1.000  S
  O201     1.0000 0.52280  0.53631  0.43790  Biso   1.000  O
  O202     1.0000 0.47720  0.03631  0.56210  Biso   1.000  O
  O203     1.0000 0.54560  0.56860  0.37140  Biso   1.000  O
  O204     1.0000 0.45440  0.06860  0.62860  Biso   1.000  O
  O205     1.0000 0.54970  0.58360  0.48020  Biso   1.000  O
  O206     1.0000 0.45030  0.08360  0.51980  Biso   1.000  O
  C427     1.0000 0.41350  0.57360  0.38650  Biso   1.000  C
  C428     1.0000 0.58650  0.07360  0.61350  Biso   1.000  C
  F55      1.0000 0.40590  0.58830  0.32500  Biso   1.000  F
  F56      1.0000 0.59410  0.08830  0.67500  Biso   1.000  F
  F57      1.0000 0.36310  0.55639  0.37020  Biso   1.000  F
  F58      1.0000 0.63690  0.05639  0.62980  Biso   1.000  F
  F59      1.0000 0.38860  0.59350  0.41990  Biso   1.000  F
  F60      1.0000 0.61140  0.09350  0.58010  Biso   1.000  F
  S21      1.0000 0.30095  0.81852  0.81669  Biso   1.000  S
  S22      1.0000 0.69905  0.31852  0.18331  Biso   1.000  S
  O207     1.0000 0.36190  0.81320  0.88450  Biso   1.000  O
  O208     1.0000 0.63810  0.31320  0.11550  Biso   1.000  O
  O209     1.0000 0.22440  0.82270  0.82090  Biso   1.000  O
  O210     1.0000 0.77560  0.32270  0.17910  Biso   1.000  O
  O211     1.0000 0.30420  0.80060  0.75960  Biso   1.000  O
  O212     1.0000 0.69580  0.30060  0.24040  Biso   1.000  O
  C429     1.0000 0.32590  0.84910  0.78170  Biso   1.000  C
  C430     1.0000 0.67410  0.34910  0.21830  Biso   1.000  C
  F61      1.0000 0.39600  0.84830  0.77080  Biso   1.000  F
  F62      1.0000 0.60400  0.34830  0.22920  Biso   1.000  F
  F63      1.0000 0.33110  0.86859  0.82780  Biso   1.000  F
  F64      1.0000 0.66890  0.36859  0.17220  Biso   1.000  F
  F65      1.0000 0.27170  0.85523  0.71610  Biso   1.000  F
  F66      1.0000 0.72830  0.35523  0.28390  Biso   1.000  F
  S23      1.0000 0.15284  0.88996  0.53523  Biso   1.000  S
  S24      1.0000 0.84716  0.38996  0.46477  Biso   1.000  S
  O213     1.0000 0.21690  0.86980  0.53860  Biso   1.000  O
  O214     1.0000 0.78310  0.36980  0.46140  Biso   1.000  O
  O215     1.0000 0.15800  0.90880  0.58740  Biso   1.000  O
  O216     1.0000 0.84200  0.40880  0.41260  Biso   1.000  O
  O217     1.0000 0.08020  0.87604  0.50990  Biso   1.000  O
  O218     1.0000 0.91980  0.37604  0.49010  Biso   1.000  O
  C431     1.0000 0.17270  0.90800  0.45860  Biso   1.000  C
  C432     1.0000 0.82730  0.40800  0.54140  Biso   1.000  C
  F67      1.0000 0.09990  0.92582  0.44020  Biso   1.000  F
  F68      1.0000 0.90010  0.42582  0.55980  Biso   1.000  F
  F69      1.0000 0.15730  0.89760  0.40080  Biso   1.000  F
  F70      1.0000 0.84270  0.39760  0.59920  Biso   1.000  F
  F71      1.0000 0.22990  0.92480  0.47830  Biso   1.000  F
  F72      1.0000 0.77010  0.42480  0.52170  Biso   1.000  F
  S25      1.0000 0.85790  0.76384  0.88990  Biso   1.000  S
  S26      1.0000 0.14210  0.26384  0.11010  Biso   1.000  S
  O219     1.0000 0.81260  0.78553  0.85610  Biso   1.000  O
  O220     1.0000 0.18740  0.28553  0.14390  Biso   1.000  O
  O221     1.0000 0.84240  0.75620  0.95710  Biso   1.000  O
  O222     1.0000 0.15760  0.25620  0.04290  Biso   1.000  O
  O223     1.0000 0.93820  0.76420  0.89970  Biso   1.000  O
  O224     1.0000 0.06180  0.26420  0.10030  Biso   1.000  O
  C433     1.0000 0.81530  0.73770  0.82680  Biso   1.000  C
  C434     1.0000 0.18470  0.23770  0.17320  Biso   1.000  C
  F73      1.0000 0.85440  0.71520  0.84770  Biso   1.000  F
  F74      1.0000 0.14560  0.21520  0.15230  Biso   1.000  F
  F75      1.0000 0.74330  0.73300  0.81620  Biso   1.000  F
  F76      1.0000 0.25670  0.23300  0.18380  Biso   1.000  F
  F77      1.0000 0.82550  0.74350  0.76330  Biso   1.000  F
  F78      1.0000 0.17450  0.24350  0.23670  Biso   1.000  F
  S27      1.0000 0.62470  0.93279  0.21619  Biso   1.000  S
  S28      1.0000 0.37530  0.43279  0.78381  Biso   1.000  S
  O225     1.0000 0.64440  0.94850  0.28140  Biso   1.000  O
  O226     1.0000 0.35560  0.44850  0.71860  Biso   1.000  O
  O227     1.0000 0.62000  0.94750  0.15070  Biso   1.000  O
  O228     1.0000 0.38000  0.44750  0.84930  Biso   1.000  O
  O229     1.0000 0.66990  0.90922  0.21790  Biso   1.000  O
  O230     1.0000 0.33010  0.40922  0.78210  Biso   1.000  O
  C435     1.0000 0.52820  0.92010  0.20700  Biso   1.000  C
  C436     1.0000 0.47180  0.42010  0.79300  Biso   1.000  C
  F79      1.0000 0.49750  0.90730  0.14360  Biso   1.000  F
  F80      1.0000 0.50250  0.40730  0.85640  Biso   1.000  F
  F81      1.0000 0.52910  0.90450  0.26270  Biso   1.000  F
  F82      1.0000 0.47090  0.40450  0.73730  Biso   1.000  F
  F83      1.0000 0.47630  0.93840  0.20750  Biso   1.000  F
  F84      1.0000 0.52370  0.43840  0.79250  Biso   1.000  F
  S29      1.0000 0.50200  0.91111  0.52640  Biso   1.000  S
  S30      1.0000 0.49800  0.41111  0.47360  Biso   1.000  S
  O231     1.0000 0.45120  0.93040  0.54100  Biso   1.000  O
  O232     1.0000 0.54880  0.43040  0.45900  Biso   1.000  O
  O233     1.0000 0.56290  0.92330  0.50690  Biso   1.000  O
  O234     1.0000 0.43710  0.42330  0.49310  Biso   1.000  O
  O235     1.0000 0.52030  0.88835  0.57190  Biso   1.000  O
  O236     1.0000 0.47970  0.38835  0.42810  Biso   1.000  O
  C437     1.0000 0.44150  0.89790  0.43540  Biso   1.000  C
  C438     1.0000 0.55850  0.39790  0.56460  Biso   1.000  C
  F85      1.0000 0.47750  0.88050  0.40620  Biso   1.000  F
  F86      1.0000 0.52250  0.38050  0.59380  Biso   1.000  F
  F87      1.0000 0.42500  0.91510  0.38050  Biso   1.000  F
  F88      1.0000 0.57500  0.41510  0.61950  Biso   1.000  F
  F89      1.0000 0.37970  0.88560  0.44140  Biso   1.000  F
  F90      1.0000 0.62030  0.38560  0.55860  Biso   1.000  F
  S31      1.0000 0.10330  0.86674  0.06720  Biso   1.000  S
  S32      1.0000 0.89670  0.36674  0.93280  Biso   1.000  S
  O237     1.0000 0.02400  0.86600  0.05970  Biso   1.000  O
  O238     1.0000 0.97600  0.36600  0.94030  Biso   1.000  O
  O239     1.0000 0.14860  0.86160  0.14310  Biso   1.000  O
  O240     1.0000 0.85140  0.36160  0.85690  Biso   1.000  O
  O241     1.0000 0.13110  0.88900  0.03330  Biso   1.000  O
  O242     1.0000 0.86890  0.38900  0.96670  Biso   1.000  O
  C439     1.0000 0.11770  0.83790  0.01370  Biso   1.000  C
  C440     1.0000 0.88230  0.33790  0.98630  Biso   1.000  C
  F91      1.0000 0.07560  0.83880  0.93960  Biso   1.000  F
  F92      1.0000 0.92440  0.33880  0.06040  Biso   1.000  F
  F93      1.0000 0.18590  0.83500  0.00510  Biso   1.000  F
  F94      1.0000 0.81410  0.33500  0.99490  Biso   1.000  F
  F95      1.0000 0.08060  0.81610  0.02800  Biso   1.000  F
  F96      1.0000 0.91940  0.31610  0.97200  Biso   1.000  F
  O243     1.0000 0.80000  0.66460  0.32930  Biso   1.000  O
  O244     1.0000 0.20000  0.16460  0.67070  Biso   1.000  O
  O245     1.0000 0.73520  0.65050  0.20350  Biso   1.000  O
  O246     1.0000 0.26480  0.15050  0.79650  Biso   1.000  O
  O247     1.0000 0.86430  0.63760  0.25800  Biso   1.000  O
  O248     1.0000 0.13570  0.13760  0.74200  Biso   1.000  O
