data_image0
_cell_length_a       11.2004
_cell_length_b       11.2004
_cell_length_c       62.448
_cell_angle_alpha    90
_cell_angle_beta     90
_cell_angle_gamma    120

_symmetry_space_group_name_H-M    "P 1"
_symmetry_int_tables_number       1

loop_
  _symmetry_equiv_pos_as_xyz
  'x, y, z'

loop_
  _atom_site_label
  _atom_site_occupancy
  _atom_site_fract_x
  _atom_site_fract_y
  _atom_site_fract_z
  _atom_site_thermal_displace_type
  _atom_site_B_iso_or_equiv
  _atom_site_type_symbol
  Cu1      1.0000 0.78760  0.00000  0.00000  Biso   1.000  Cu
  Cu2      1.0000 0.00000  0.78760  0.33333  Biso   1.000  Cu
  Cu3      1.0000 0.21240  0.21240  0.66667  Biso   1.000  Cu
  Cu4      1.0000 0.21240  0.00000  0.50000  Biso   1.000  Cu
  Cu5      1.0000 0.00000  0.21240  0.83333  Biso   1.000  Cu
  Cu6      1.0000 0.78760  0.78760  0.16667  Biso   1.000  Cu
  C1       1.0000 0.07570  0.94840  0.06262  Biso   1.000  C
  C2       1.0000 0.05160  0.12730  0.39595  Biso   1.000  C
  C3       1.0000 0.87270  0.92430  0.72929  Biso   1.000  C
  C4       1.0000 0.92430  0.05160  0.56262  Biso   1.000  C
  C5       1.0000 0.94840  0.87270  0.89595  Biso   1.000  C
  C6       1.0000 0.12730  0.07570  0.22929  Biso   1.000  C
  C7       1.0000 0.94840  0.07570  0.27071  Biso   1.000  C
  C8       1.0000 0.12730  0.05160  0.93738  Biso   1.000  C
  C9       1.0000 0.92430  0.87270  0.60405  Biso   1.000  C
  C10      1.0000 0.05160  0.92430  0.77071  Biso   1.000  C
  C11      1.0000 0.87270  0.94840  0.43738  Biso   1.000  C
  C12      1.0000 0.07570  0.12730  0.10405  Biso   1.000  C
  C13      1.0000 0.20360  0.07380  0.05647  Biso   1.000  C
  C14      1.0000 0.92620  0.12980  0.38980  Biso   1.000  C
  C15      1.0000 0.87020  0.79640  0.72314  Biso   1.000  C
  C16      1.0000 0.79640  0.92620  0.55647  Biso   1.000  C
  C17      1.0000 0.07380  0.87020  0.88980  Biso   1.000  C
  C18      1.0000 0.12980  0.20360  0.22314  Biso   1.000  C
  C19      1.0000 0.07380  0.20360  0.27686  Biso   1.000  C
  C20      1.0000 0.12980  0.92620  0.94353  Biso   1.000  C
  C21      1.0000 0.79640  0.87020  0.61020  Biso   1.000  C
  C22      1.0000 0.92620  0.79640  0.77686  Biso   1.000  C
  C23      1.0000 0.87020  0.07380  0.44353  Biso   1.000  C
  C24      1.0000 0.20360  0.12980  0.11020  Biso   1.000  C
  C25      1.0000 0.33200  0.08250  0.06018  Biso   1.000  C
  C26      1.0000 0.91750  0.24950  0.39351  Biso   1.000  C
  C27      1.0000 0.75050  0.66800  0.72685  Biso   1.000  C
  C28      1.0000 0.66800  0.91750  0.56018  Biso   1.000  C
  C29      1.0000 0.08250  0.75050  0.89351  Biso   1.000  C
  C30      1.0000 0.24950  0.33200  0.22685  Biso   1.000  C
  C31      1.0000 0.08250  0.33200  0.27315  Biso   1.000  C
  C32      1.0000 0.24950  0.91750  0.93982  Biso   1.000  C
  C33      1.0000 0.66800  0.75050  0.60649  Biso   1.000  C
  C34      1.0000 0.91750  0.66800  0.77315  Biso   1.000  C
  C35      1.0000 0.75050  0.08250  0.43982  Biso   1.000  C
  C36      1.0000 0.33200  0.24950  0.10649  Biso   1.000  C
  C37      1.0000 0.34030  0.97470  0.07016  Biso   1.000  C
  C38      1.0000 0.02530  0.36560  0.40349  Biso   1.000  C
  C39      1.0000 0.63440  0.65970  0.73683  Biso   1.000  C
  C40      1.0000 0.65970  0.02530  0.57016  Biso   1.000  C
  C41      1.0000 0.97470  0.63440  0.90349  Biso   1.000  C
  C42      1.0000 0.36560  0.34030  0.23683  Biso   1.000  C
  C43      1.0000 0.97470  0.34030  0.26317  Biso   1.000  C
  C44      1.0000 0.36560  0.02530  0.92984  Biso   1.000  C
  C45      1.0000 0.65970  0.63440  0.59651  Biso   1.000  C
  C46      1.0000 0.02530  0.65970  0.76317  Biso   1.000  C
  C47      1.0000 0.63440  0.97470  0.42984  Biso   1.000  C
  C48      1.0000 0.34030  0.36560  0.09651  Biso   1.000  C
  C49      1.0000 0.21460  0.85010  0.07686  Biso   1.000  C
  C50      1.0000 0.14990  0.36450  0.41019  Biso   1.000  C
  C51      1.0000 0.63550  0.78540  0.74353  Biso   1.000  C
  C52      1.0000 0.78540  0.14990  0.57686  Biso   1.000  C
  C53      1.0000 0.85010  0.63550  0.91019  Biso   1.000  C
  C54      1.0000 0.36450  0.21460  0.24353  Biso   1.000  C
  C55      1.0000 0.85010  0.21460  0.25647  Biso   1.000  C
  C56      1.0000 0.36450  0.14990  0.92314  Biso   1.000  C
  C57      1.0000 0.78540  0.63550  0.58981  Biso   1.000  C
  C58      1.0000 0.14990  0.78540  0.75647  Biso   1.000  C
  C59      1.0000 0.63550  0.85010  0.42314  Biso   1.000  C
  C60      1.0000 0.21460  0.36450  0.08981  Biso   1.000  C
  C61      1.0000 0.19760  0.18090  0.04654  Biso   1.000  C
  C62      1.0000 0.81910  0.01670  0.37987  Biso   1.000  C
  C63      1.0000 0.98330  0.80240  0.71321  Biso   1.000  C
  C64      1.0000 0.80240  0.81910  0.54654  Biso   1.000  C
  C65      1.0000 0.18090  0.98330  0.87987  Biso   1.000  C
  C66      1.0000 0.01670  0.19760  0.21321  Biso   1.000  C
  C67      1.0000 0.18090  0.19760  0.28679  Biso   1.000  C
  C68      1.0000 0.01670  0.81910  0.95346  Biso   1.000  C
  C69      1.0000 0.80240  0.98330  0.62013  Biso   1.000  C
  C70      1.0000 0.81910  0.80240  0.78679  Biso   1.000  C
  C71      1.0000 0.98330  0.18090  0.45346  Biso   1.000  C
  C72      1.0000 0.19760  0.01670  0.12013  Biso   1.000  C
  H1       1.0000 0.11100  0.17410  0.04380  Biso   1.000  H
  H2       1.0000 0.82590  0.93690  0.37713  Biso   1.000  H
  H3       1.0000 0.06310  0.88900  0.71047  Biso   1.000  H
  H4       1.0000 0.88900  0.82590  0.54380  Biso   1.000  H
  H5       1.0000 0.17410  0.06310  0.87713  Biso   1.000  H
  H6       1.0000 0.93690  0.11100  0.21047  Biso   1.000  H
  H7       1.0000 0.17410  0.11100  0.28953  Biso   1.000  H
  H8       1.0000 0.93690  0.82590  0.95620  Biso   1.000  H
  H9       1.0000 0.88900  0.06310  0.62287  Biso   1.000  H
  H10      1.0000 0.82590  0.88900  0.78953  Biso   1.000  H
  H11      1.0000 0.06310  0.17410  0.45620  Biso   1.000  H
  H12      1.0000 0.11100  0.93690  0.12287  Biso   1.000  H
  C73      1.0000 0.31970  0.29970  0.04049  Biso   1.000  C
  C74      1.0000 0.70030  0.02000  0.37382  Biso   1.000  C
  C75      1.0000 0.98000  0.68030  0.70716  Biso   1.000  C
  C76      1.0000 0.68030  0.70030  0.54049  Biso   1.000  C
  C77      1.0000 0.29970  0.98000  0.87382  Biso   1.000  C
  C78      1.0000 0.02000  0.31970  0.20716  Biso   1.000  C
  C79      1.0000 0.29970  0.31970  0.29284  Biso   1.000  C
  C80      1.0000 0.02000  0.70030  0.95951  Biso   1.000  C
  C81      1.0000 0.68030  0.98000  0.62618  Biso   1.000  C
  C82      1.0000 0.70030  0.68030  0.79284  Biso   1.000  C
  C83      1.0000 0.98000  0.29970  0.45951  Biso   1.000  C
  C84      1.0000 0.31970  0.02000  0.12618  Biso   1.000  C
  H13      1.0000 0.31550  0.37410  0.03390  Biso   1.000  H
  H14      1.0000 0.62590  0.94140  0.36723  Biso   1.000  H
  H15      1.0000 0.05860  0.68450  0.70057  Biso   1.000  H
  H16      1.0000 0.68450  0.62590  0.53390  Biso   1.000  H
  H17      1.0000 0.37410  0.05860  0.86723  Biso   1.000  H
  H18      1.0000 0.94140  0.31550  0.20057  Biso   1.000  H
  H19      1.0000 0.37410  0.31550  0.29943  Biso   1.000  H
  H20      1.0000 0.94140  0.62590  0.96610  Biso   1.000  H
  H21      1.0000 0.68450  0.05860  0.63277  Biso   1.000  H
  H22      1.0000 0.62590  0.68450  0.79943  Biso   1.000  H
  H23      1.0000 0.05860  0.37410  0.46610  Biso   1.000  H
  H24      1.0000 0.31550  0.94140  0.13277  Biso   1.000  H
  C85      1.0000 0.44450  0.30950  0.04394  Biso   1.000  C
  C86      1.0000 0.69050  0.13500  0.37727  Biso   1.000  C
  C87      1.0000 0.86500  0.55550  0.71061  Biso   1.000  C
  C88      1.0000 0.55550  0.69050  0.54394  Biso   1.000  C
  C89      1.0000 0.30950  0.86500  0.87727  Biso   1.000  C
  C90      1.0000 0.13500  0.44450  0.21061  Biso   1.000  C
  C91      1.0000 0.30950  0.44450  0.28939  Biso   1.000  C
  C92      1.0000 0.13500  0.69050  0.95606  Biso   1.000  C
  C93      1.0000 0.55550  0.86500  0.62273  Biso   1.000  C
  C94      1.0000 0.69050  0.55550  0.78939  Biso   1.000  C
  C95      1.0000 0.86500  0.30950  0.45606  Biso   1.000  C
  C96      1.0000 0.44450  0.13500  0.12273  Biso   1.000  C
  H25      1.0000 0.52600  0.39100  0.03970  Biso   1.000  H
  H26      1.0000 0.60900  0.13500  0.37303  Biso   1.000  H
  H27      1.0000 0.86500  0.47400  0.70637  Biso   1.000  H
  H28      1.0000 0.47400  0.60900  0.53970  Biso   1.000  H
  H29      1.0000 0.39100  0.86500  0.87303  Biso   1.000  H
  H30      1.0000 0.13500  0.52600  0.20637  Biso   1.000  H
  H31      1.0000 0.39100  0.52600  0.29363  Biso   1.000  H
  H32      1.0000 0.13500  0.60900  0.96030  Biso   1.000  H
  H33      1.0000 0.47400  0.86500  0.62697  Biso   1.000  H
  H34      1.0000 0.60900  0.47400  0.79363  Biso   1.000  H
  H35      1.0000 0.86500  0.39100  0.46030  Biso   1.000  H
  H36      1.0000 0.52600  0.13500  0.12697  Biso   1.000  H
  C97      1.0000 0.45560  0.20270  0.05347  Biso   1.000  C
  C98      1.0000 0.79730  0.25290  0.38680  Biso   1.000  C
  C99      1.0000 0.74710  0.54440  0.72014  Biso   1.000  C
  C100     1.0000 0.54440  0.79730  0.55347  Biso   1.000  C
  C101     1.0000 0.20270  0.74710  0.88680  Biso   1.000  C
  C102     1.0000 0.25290  0.45560  0.22014  Biso   1.000  C
  C103     1.0000 0.20270  0.45560  0.27986  Biso   1.000  C
  C104     1.0000 0.25290  0.79730  0.94653  Biso   1.000  C
  C105     1.0000 0.54440  0.74710  0.61320  Biso   1.000  C
  C106     1.0000 0.79730  0.54440  0.77986  Biso   1.000  C
  C107     1.0000 0.74710  0.20270  0.44653  Biso   1.000  C
  C108     1.0000 0.45560  0.25290  0.11320  Biso   1.000  C
  C109     1.0000 0.58200  0.20760  0.05752  Biso   1.000  C
  C110     1.0000 0.79240  0.37440  0.39085  Biso   1.000  C
  C111     1.0000 0.62560  0.41800  0.72419  Biso   1.000  C
  C112     1.0000 0.41800  0.79240  0.55752  Biso   1.000  C
  C113     1.0000 0.20760  0.62560  0.89085  Biso   1.000  C
  C114     1.0000 0.37440  0.58200  0.22419  Biso   1.000  C
  C115     1.0000 0.20760  0.58200  0.27581  Biso   1.000  C
  C116     1.0000 0.37440  0.79240  0.94248  Biso   1.000  C
  C117     1.0000 0.41800  0.62560  0.60915  Biso   1.000  C
  C118     1.0000 0.79240  0.41800  0.77581  Biso   1.000  C
  C119     1.0000 0.62560  0.20760  0.44248  Biso   1.000  C
  C120     1.0000 0.58200  0.37440  0.10915  Biso   1.000  C
  H37      1.0000 0.66560  0.28730  0.05340  Biso   1.000  H
  H38      1.0000 0.71270  0.37830  0.38673  Biso   1.000  H
  H39      1.0000 0.62170  0.33440  0.72007  Biso   1.000  H
  H40      1.0000 0.33440  0.71270  0.55340  Biso   1.000  H
  H41      1.0000 0.28730  0.62170  0.88673  Biso   1.000  H
  H42      1.0000 0.37830  0.66560  0.22007  Biso   1.000  H
  H43      1.0000 0.28730  0.66560  0.27993  Biso   1.000  H
  H44      1.0000 0.37830  0.71270  0.94660  Biso   1.000  H
  H45      1.0000 0.33440  0.62170  0.61327  Biso   1.000  H
  H46      1.0000 0.71270  0.33440  0.77993  Biso   1.000  H
  H47      1.0000 0.62170  0.28730  0.44660  Biso   1.000  H
  H48      1.0000 0.66560  0.37830  0.11327  Biso   1.000  H
  C121     1.0000 0.58730  0.10230  0.06703  Biso   1.000  C
  C122     1.0000 0.89770  0.48500  0.40036  Biso   1.000  C
  C123     1.0000 0.51500  0.41270  0.73370  Biso   1.000  C
  C124     1.0000 0.41270  0.89770  0.56703  Biso   1.000  C
  C125     1.0000 0.10230  0.51500  0.90036  Biso   1.000  C
  C126     1.0000 0.48500  0.58730  0.23370  Biso   1.000  C
  C127     1.0000 0.10230  0.58730  0.26630  Biso   1.000  C
  C128     1.0000 0.48500  0.89770  0.93297  Biso   1.000  C
  C129     1.0000 0.41270  0.51500  0.59964  Biso   1.000  C
  C130     1.0000 0.89770  0.41270  0.76630  Biso   1.000  C
  C131     1.0000 0.51500  0.10230  0.43297  Biso   1.000  C
  C132     1.0000 0.58730  0.48500  0.09964  Biso   1.000  C
  H49      1.0000 0.67390  0.10810  0.06930  Biso   1.000  H
  H50      1.0000 0.89190  0.56580  0.40263  Biso   1.000  H
  H51      1.0000 0.43420  0.32610  0.73597  Biso   1.000  H
  H52      1.0000 0.32610  0.89190  0.56930  Biso   1.000  H
  H53      1.0000 0.10810  0.43420  0.90263  Biso   1.000  H
  H54      1.0000 0.56580  0.67390  0.23597  Biso   1.000  H
  H55      1.0000 0.10810  0.67390  0.26403  Biso   1.000  H
  H56      1.0000 0.56580  0.89190  0.93070  Biso   1.000  H
  H57      1.0000 0.32610  0.43420  0.59737  Biso   1.000  H
  H58      1.0000 0.89190  0.32610  0.76403  Biso   1.000  H
  H59      1.0000 0.43420  0.10810  0.43070  Biso   1.000  H
  H60      1.0000 0.67390  0.56580  0.09737  Biso   1.000  H
  C133     1.0000 0.46640  0.98460  0.07352  Biso   1.000  C
  C134     1.0000 0.01540  0.48180  0.40685  Biso   1.000  C
  C135     1.0000 0.51820  0.53360  0.74019  Biso   1.000  C
  C136     1.0000 0.53360  0.01540  0.57352  Biso   1.000  C
  C137     1.0000 0.98460  0.51820  0.90685  Biso   1.000  C
  C138     1.0000 0.48180  0.46640  0.24019  Biso   1.000  C
  C139     1.0000 0.98460  0.46640  0.25981  Biso   1.000  C
  C140     1.0000 0.48180  0.01540  0.92648  Biso   1.000  C
  C141     1.0000 0.53360  0.51820  0.59315  Biso   1.000  C
  C142     1.0000 0.01540  0.53360  0.75981  Biso   1.000  C
  C143     1.0000 0.51820  0.98460  0.42648  Biso   1.000  C
  C144     1.0000 0.46640  0.48180  0.09315  Biso   1.000  C
  H61      1.0000 0.47120  0.91110  0.08030  Biso   1.000  H
  H62      1.0000 0.08890  0.56010  0.41363  Biso   1.000  H
  H63      1.0000 0.43990  0.52880  0.74697  Biso   1.000  H
  H64      1.0000 0.52880  0.08890  0.58030  Biso   1.000  H
  H65      1.0000 0.91110  0.43990  0.91363  Biso   1.000  H
  H66      1.0000 0.56010  0.47120  0.24697  Biso   1.000  H
  H67      1.0000 0.91110  0.47120  0.25303  Biso   1.000  H
  H68      1.0000 0.56010  0.08890  0.91970  Biso   1.000  H
  H69      1.0000 0.52880  0.43990  0.58637  Biso   1.000  H
  H70      1.0000 0.08890  0.52880  0.75303  Biso   1.000  H
  H71      1.0000 0.43990  0.91110  0.41970  Biso   1.000  H
  H72      1.0000 0.47120  0.56010  0.08637  Biso   1.000  H
  C145     1.0000 0.96220  0.71270  0.07702  Biso   1.000  C
  C146     1.0000 0.28730  0.24950  0.41035  Biso   1.000  C
  C147     1.0000 0.75050  0.03780  0.74369  Biso   1.000  C
  C148     1.0000 0.03780  0.28730  0.57702  Biso   1.000  C
  C149     1.0000 0.71270  0.75050  0.91035  Biso   1.000  C
  C150     1.0000 0.24950  0.96220  0.24369  Biso   1.000  C
  C151     1.0000 0.71270  0.96220  0.25631  Biso   1.000  C
  C152     1.0000 0.24950  0.28730  0.92298  Biso   1.000  C
  C153     1.0000 0.03780  0.75050  0.58965  Biso   1.000  C
  C154     1.0000 0.28730  0.03780  0.75631  Biso   1.000  C
  C155     1.0000 0.75050  0.71270  0.42298  Biso   1.000  C
  C156     1.0000 0.96220  0.24950  0.08965  Biso   1.000  C
  H73      1.0000 0.88490  0.72950  0.07990  Biso   1.000  H
  H74      1.0000 0.27050  0.15540  0.41323  Biso   1.000  H
  H75      1.0000 0.84460  0.11510  0.74657  Biso   1.000  H
  H76      1.0000 0.11510  0.27050  0.57990  Biso   1.000  H
  H77      1.0000 0.72950  0.84460  0.91323  Biso   1.000  H
  H78      1.0000 0.15540  0.88490  0.24657  Biso   1.000  H
  H79      1.0000 0.72950  0.88490  0.25343  Biso   1.000  H
  H80      1.0000 0.15540  0.27050  0.92010  Biso   1.000  H
  H81      1.0000 0.11510  0.84460  0.58677  Biso   1.000  H
  H82      1.0000 0.27050  0.11510  0.75343  Biso   1.000  H
  H83      1.0000 0.84460  0.72950  0.42010  Biso   1.000  H
  H84      1.0000 0.88490  0.15540  0.08677  Biso   1.000  H
  H85      1.0000 0.97560  0.66860  0.08980  Biso   1.000  H
  H86      1.0000 0.33140  0.30700  0.42313  Biso   1.000  H
  H87      1.0000 0.69300  0.02440  0.75647  Biso   1.000  H
  H88      1.0000 0.02440  0.33140  0.58980  Biso   1.000  H
  H89      1.0000 0.66860  0.69300  0.92313  Biso   1.000  H
  H90      1.0000 0.30700  0.97560  0.25647  Biso   1.000  H
  H91      1.0000 0.66860  0.97560  0.24353  Biso   1.000  H
  H92      1.0000 0.30700  0.33140  0.91020  Biso   1.000  H
  H93      1.0000 0.02440  0.69300  0.57687  Biso   1.000  H
  H94      1.0000 0.33140  0.02440  0.74353  Biso   1.000  H
  H95      1.0000 0.69300  0.66860  0.41020  Biso   1.000  H
  H96      1.0000 0.97560  0.30700  0.07687  Biso   1.000  H
  C157     1.0000 0.92970  0.62020  0.05797  Biso   1.000  C
  C158     1.0000 0.37980  0.30950  0.39130  Biso   1.000  C
  C159     1.0000 0.69050  0.07030  0.72464  Biso   1.000  C
  C160     1.0000 0.07030  0.37980  0.55797  Biso   1.000  C
  C161     1.0000 0.62020  0.69050  0.89130  Biso   1.000  C
  C162     1.0000 0.30950  0.92970  0.22464  Biso   1.000  C
  C163     1.0000 0.62020  0.92970  0.27536  Biso   1.000  C
  C164     1.0000 0.30950  0.37980  0.94203  Biso   1.000  C
  C165     1.0000 0.07030  0.69050  0.60870  Biso   1.000  C
  C166     1.0000 0.37980  0.07030  0.77536  Biso   1.000  C
  C167     1.0000 0.69050  0.62020  0.44203  Biso   1.000  C
  C168     1.0000 0.92970  0.30950  0.10870  Biso   1.000  C
  C169     1.0000 0.99880  0.56110  0.04937  Biso   1.000  C
  C170     1.0000 0.43890  0.43770  0.38270  Biso   1.000  C
  C171     1.0000 0.56230  0.00120  0.71604  Biso   1.000  C
  C172     1.0000 0.00120  0.43890  0.54937  Biso   1.000  C
  C173     1.0000 0.56110  0.56230  0.88270  Biso   1.000  C
  C174     1.0000 0.43770  0.99880  0.21604  Biso   1.000  C
  C175     1.0000 0.56110  0.99880  0.28396  Biso   1.000  C
  C176     1.0000 0.43770  0.43890  0.95063  Biso   1.000  C
  C177     1.0000 0.00120  0.56230  0.61730  Biso   1.000  C
  C178     1.0000 0.43890  0.00120  0.78396  Biso   1.000  C
  C179     1.0000 0.56230  0.56110  0.45063  Biso   1.000  C
  C180     1.0000 0.99880  0.43770  0.11730  Biso   1.000  C
  H97      1.0000 0.07610  0.55950  0.05530  Biso   1.000  H
  H98      1.0000 0.44050  0.51660  0.38863  Biso   1.000  H
  H99      1.0000 0.48340  0.92390  0.72197  Biso   1.000  H
  H100     1.0000 0.92390  0.44050  0.55530  Biso   1.000  H
  H101     1.0000 0.55950  0.48340  0.88863  Biso   1.000  H
  H102     1.0000 0.51660  0.07610  0.22197  Biso   1.000  H
  H103     1.0000 0.55950  0.07610  0.27803  Biso   1.000  H
  H104     1.0000 0.51660  0.44050  0.94470  Biso   1.000  H
  H105     1.0000 0.92390  0.48340  0.61137  Biso   1.000  H
  H106     1.0000 0.44050  0.92390  0.77803  Biso   1.000  H
  H107     1.0000 0.48340  0.55950  0.44470  Biso   1.000  H
  H108     1.0000 0.07610  0.51660  0.11137  Biso   1.000  H
  C181     1.0000 0.96670  0.43240  0.01426  Biso   1.000  C
  C182     1.0000 0.56760  0.53430  0.34759  Biso   1.000  C
  C183     1.0000 0.46570  0.03330  0.68093  Biso   1.000  C
  C184     1.0000 0.03330  0.56760  0.51426  Biso   1.000  C
  C185     1.0000 0.43240  0.46570  0.84759  Biso   1.000  C
  C186     1.0000 0.53430  0.96670  0.18093  Biso   1.000  C
  C187     1.0000 0.43240  0.96670  0.31907  Biso   1.000  C
  C188     1.0000 0.53430  0.56760  0.98574  Biso   1.000  C
  C189     1.0000 0.03330  0.46570  0.65241  Biso   1.000  C
  C190     1.0000 0.56760  0.03330  0.81907  Biso   1.000  C
  C191     1.0000 0.46570  0.43240  0.48574  Biso   1.000  C
  C192     1.0000 0.96670  0.53430  0.15241  Biso   1.000  C
  H109     1.0000 0.92570  0.44080  0.00050  Biso   1.000  H
  H110     1.0000 0.55920  0.48490  0.33383  Biso   1.000  H
  H111     1.0000 0.51510  0.07430  0.66717  Biso   1.000  H
  H112     1.0000 0.07430  0.55920  0.50050  Biso   1.000  H
  H113     1.0000 0.44080  0.51510  0.83383  Biso   1.000  H
  H114     1.0000 0.48490  0.92570  0.16717  Biso   1.000  H
  H115     1.0000 0.44080  0.92570  0.33283  Biso   1.000  H
  H116     1.0000 0.48490  0.55920  0.99950  Biso   1.000  H
  H117     1.0000 0.07430  0.51510  0.66617  Biso   1.000  H
  H118     1.0000 0.55920  0.07430  0.83283  Biso   1.000  H
  H119     1.0000 0.51510  0.44080  0.49950  Biso   1.000  H
  H120     1.0000 0.92570  0.48490  0.16617  Biso   1.000  H
  C193     1.0000 0.11970  0.49900  0.01111  Biso   1.000  C
  C194     1.0000 0.50100  0.62070  0.34444  Biso   1.000  C
  C195     1.0000 0.37930  0.88030  0.67778  Biso   1.000  C
  C196     1.0000 0.88030  0.50100  0.51111  Biso   1.000  C
  C197     1.0000 0.49900  0.37930  0.84444  Biso   1.000  C
  C198     1.0000 0.62070  0.11970  0.17778  Biso   1.000  C
  C199     1.0000 0.49900  0.11970  0.32222  Biso   1.000  C
  C200     1.0000 0.62070  0.50100  0.98889  Biso   1.000  C
  C201     1.0000 0.88030  0.37930  0.65556  Biso   1.000  C
  C202     1.0000 0.50100  0.88030  0.82222  Biso   1.000  C
  C203     1.0000 0.37930  0.49900  0.48889  Biso   1.000  C
  C204     1.0000 0.11970  0.62070  0.15556  Biso   1.000  C
  H121     1.0000 0.15930  0.59880  0.00950  Biso   1.000  H
  H122     1.0000 0.40120  0.56050  0.34283  Biso   1.000  H
  H123     1.0000 0.43950  0.84070  0.67617  Biso   1.000  H
  H124     1.0000 0.84070  0.40120  0.50950  Biso   1.000  H
  H125     1.0000 0.59880  0.43950  0.84283  Biso   1.000  H
  H126     1.0000 0.56050  0.15930  0.17617  Biso   1.000  H
  H127     1.0000 0.59880  0.15930  0.32383  Biso   1.000  H
  H128     1.0000 0.56050  0.40120  0.99050  Biso   1.000  H
  H129     1.0000 0.84070  0.43950  0.65717  Biso   1.000  H
  H130     1.0000 0.40120  0.84070  0.82383  Biso   1.000  H
  H131     1.0000 0.43950  0.59880  0.49050  Biso   1.000  H
  H132     1.0000 0.15930  0.56050  0.15717  Biso   1.000  H
  H133     1.0000 0.13870  0.46150  0.99820  Biso   1.000  H
  H134     1.0000 0.53850  0.67720  0.33153  Biso   1.000  H
  H135     1.0000 0.32280  0.86130  0.66487  Biso   1.000  H
  H136     1.0000 0.86130  0.53850  0.49820  Biso   1.000  H
  H137     1.0000 0.46150  0.32280  0.83153  Biso   1.000  H
  H138     1.0000 0.67720  0.13870  0.16487  Biso   1.000  H
  H139     1.0000 0.46150  0.13870  0.33513  Biso   1.000  H
  H140     1.0000 0.67720  0.53850  0.00180  Biso   1.000  H
  H141     1.0000 0.86130  0.32280  0.66847  Biso   1.000  H
  H142     1.0000 0.53850  0.86130  0.83513  Biso   1.000  H
  H143     1.0000 0.32280  0.46150  0.50180  Biso   1.000  H
  H144     1.0000 0.13870  0.67720  0.16847  Biso   1.000  H
  H145     1.0000 0.16100  0.48020  0.02360  Biso   1.000  H
  H146     1.0000 0.51980  0.68080  0.35693  Biso   1.000  H
  H147     1.0000 0.31920  0.83900  0.69027  Biso   1.000  H
  H148     1.0000 0.83900  0.51980  0.52360  Biso   1.000  H
  H149     1.0000 0.48020  0.31920  0.85693  Biso   1.000  H
  H150     1.0000 0.68080  0.16100  0.19027  Biso   1.000  H
  H151     1.0000 0.48020  0.16100  0.30973  Biso   1.000  H
  H152     1.0000 0.68080  0.51980  0.97640  Biso   1.000  H
  H153     1.0000 0.83900  0.31920  0.64307  Biso   1.000  H
  H154     1.0000 0.51980  0.83900  0.80973  Biso   1.000  H
  H155     1.0000 0.31920  0.48020  0.47640  Biso   1.000  H
  H156     1.0000 0.16100  0.68080  0.14307  Biso   1.000  H
  C205     1.0000 0.90390  0.27980  0.01923  Biso   1.000  C
  C206     1.0000 0.72020  0.62410  0.35256  Biso   1.000  C
  C207     1.0000 0.37590  0.09610  0.68590  Biso   1.000  C
  C208     1.0000 0.09610  0.72020  0.51923  Biso   1.000  C
  C209     1.0000 0.27980  0.37590  0.85256  Biso   1.000  C
  C210     1.0000 0.62410  0.90390  0.18590  Biso   1.000  C
  C211     1.0000 0.27980  0.90390  0.31410  Biso   1.000  C
  C212     1.0000 0.62410  0.72020  0.98077  Biso   1.000  C
  C213     1.0000 0.09610  0.37590  0.64744  Biso   1.000  C
  C214     1.0000 0.72020  0.09610  0.81410  Biso   1.000  C
  C215     1.0000 0.37590  0.27980  0.48077  Biso   1.000  C
  C216     1.0000 0.90390  0.62410  0.14744  Biso   1.000  C
  C217     1.0000 0.97950  0.89360  0.00776  Biso   1.000  C
  C218     1.0000 0.10640  0.08590  0.34109  Biso   1.000  C
  C219     1.0000 0.91410  0.02050  0.67443  Biso   1.000  C
  C220     1.0000 0.02050  0.10640  0.50776  Biso   1.000  C
  C221     1.0000 0.89360  0.91410  0.84109  Biso   1.000  C
  C222     1.0000 0.08590  0.97950  0.17443  Biso   1.000  C
  C223     1.0000 0.89360  0.97950  0.32557  Biso   1.000  C
  C224     1.0000 0.08590  0.10640  0.99224  Biso   1.000  C
  C225     1.0000 0.02050  0.91410  0.65891  Biso   1.000  C
  C226     1.0000 0.10640  0.02050  0.82557  Biso   1.000  C
  C227     1.0000 0.91410  0.89360  0.49224  Biso   1.000  C
  C228     1.0000 0.97950  0.08590  0.15891  Biso   1.000  C
  H157     1.0000 0.89840  0.81680  0.01330  Biso   1.000  H
  H158     1.0000 0.18320  0.08160  0.34663  Biso   1.000  H
  H159     1.0000 0.91840  0.10160  0.67997  Biso   1.000  H
  H160     1.0000 0.10160  0.18320  0.51330  Biso   1.000  H
  H161     1.0000 0.81680  0.91840  0.84663  Biso   1.000  H
  H162     1.0000 0.08160  0.89840  0.17997  Biso   1.000  H
  H163     1.0000 0.81680  0.89840  0.32003  Biso   1.000  H
  H164     1.0000 0.08160  0.18320  0.98670  Biso   1.000  H
  H165     1.0000 0.10160  0.91840  0.65337  Biso   1.000  H
  H166     1.0000 0.18320  0.10160  0.82003  Biso   1.000  H
  H167     1.0000 0.91840  0.81680  0.48670  Biso   1.000  H
  H168     1.0000 0.89840  0.08160  0.15337  Biso   1.000  H
  C229     1.0000 0.10160  0.88980  0.00815  Biso   1.000  C
  C230     1.0000 0.11020  0.21180  0.34148  Biso   1.000  C
  C231     1.0000 0.78820  0.89840  0.67482  Biso   1.000  C
  C232     1.0000 0.89840  0.11020  0.50815  Biso   1.000  C
  C233     1.0000 0.88980  0.78820  0.84148  Biso   1.000  C
  C234     1.0000 0.21180  0.10160  0.17482  Biso   1.000  C
  C235     1.0000 0.88980  0.10160  0.32518  Biso   1.000  C
  C236     1.0000 0.21180  0.11020  0.99185  Biso   1.000  C
  C237     1.0000 0.89840  0.78820  0.65852  Biso   1.000  C
  C238     1.0000 0.11020  0.89840  0.82518  Biso   1.000  C
  C239     1.0000 0.78820  0.88980  0.49185  Biso   1.000  C
  C240     1.0000 0.10160  0.21180  0.15852  Biso   1.000  C
  H169     1.0000 0.10270  0.81200  0.01400  Biso   1.000  H
  H170     1.0000 0.18800  0.29070  0.34733  Biso   1.000  H
  H171     1.0000 0.70930  0.89730  0.68067  Biso   1.000  H
  H172     1.0000 0.89730  0.18800  0.51400  Biso   1.000  H
  H173     1.0000 0.81200  0.70930  0.84733  Biso   1.000  H
  H174     1.0000 0.29070  0.10270  0.18067  Biso   1.000  H
  H175     1.0000 0.81200  0.10270  0.31933  Biso   1.000  H
  H176     1.0000 0.29070  0.18800  0.98600  Biso   1.000  H
  H177     1.0000 0.89730  0.70930  0.65267  Biso   1.000  H
  H178     1.0000 0.18800  0.89730  0.81933  Biso   1.000  H
  H179     1.0000 0.70930  0.81200  0.48600  Biso   1.000  H
  H180     1.0000 0.10270  0.29070  0.15267  Biso   1.000  H
  C241     1.0000 0.22220  0.00000  0.00000  Biso   1.000  C
  C242     1.0000 0.00000  0.22220  0.33333  Biso   1.000  C
  C243     1.0000 0.77780  0.77780  0.66667  Biso   1.000  C
  C244     1.0000 0.77780  0.00000  0.50000  Biso   1.000  C
  C245     1.0000 0.00000  0.77780  0.83333  Biso   1.000  C
  C246     1.0000 0.22220  0.22220  0.16667  Biso   1.000  C
  C247     1.0000 0.35570  0.00000  0.00000  Biso   1.000  C
  C248     1.0000 0.00000  0.35570  0.33333  Biso   1.000  C
  C249     1.0000 0.64430  0.64430  0.66667  Biso   1.000  C
  C250     1.0000 0.64430  0.00000  0.50000  Biso   1.000  C
  C251     1.0000 0.00000  0.64430  0.83333  Biso   1.000  C
  C252     1.0000 0.35570  0.35570  0.16667  Biso   1.000  C
  C253     1.0000 0.37970  0.91820  0.01409  Biso   1.000  C
  C254     1.0000 0.08180  0.46150  0.34742  Biso   1.000  C
  C255     1.0000 0.53850  0.62030  0.68076  Biso   1.000  C
  C256     1.0000 0.62030  0.08180  0.51409  Biso   1.000  C
  C257     1.0000 0.91820  0.53850  0.84742  Biso   1.000  C
  C258     1.0000 0.46150  0.37970  0.18076  Biso   1.000  C
  C259     1.0000 0.91820  0.37970  0.31924  Biso   1.000  C
  C260     1.0000 0.46150  0.08180  0.98591  Biso   1.000  C
  C261     1.0000 0.62030  0.53850  0.65258  Biso   1.000  C
  C262     1.0000 0.08180  0.62030  0.81924  Biso   1.000  C
  C263     1.0000 0.53850  0.91820  0.48591  Biso   1.000  C
  C264     1.0000 0.37970  0.46150  0.15258  Biso   1.000  C
  H181     1.0000 0.31050  0.86050  0.02400  Biso   1.000  H
  H182     1.0000 0.13950  0.45000  0.35733  Biso   1.000  H
  H183     1.0000 0.55000  0.68950  0.69067  Biso   1.000  H
  H184     1.0000 0.68950  0.13950  0.52400  Biso   1.000  H
  H185     1.0000 0.86050  0.55000  0.85733  Biso   1.000  H
  H186     1.0000 0.45000  0.31050  0.19067  Biso   1.000  H
  H187     1.0000 0.86050  0.31050  0.30933  Biso   1.000  H
  H188     1.0000 0.45000  0.13950  0.97600  Biso   1.000  H
  H189     1.0000 0.68950  0.55000  0.64267  Biso   1.000  H
  H190     1.0000 0.13950  0.68950  0.80933  Biso   1.000  H
  H191     1.0000 0.55000  0.86050  0.47600  Biso   1.000  H
  H192     1.0000 0.31050  0.45000  0.14267  Biso   1.000  H
  C265     1.0000 0.50360  0.92090  0.01362  Biso   1.000  C
  C266     1.0000 0.07910  0.58270  0.34695  Biso   1.000  C
  C267     1.0000 0.41730  0.49640  0.68029  Biso   1.000  C
  C268     1.0000 0.49640  0.07910  0.51362  Biso   1.000  C
  C269     1.0000 0.92090  0.41730  0.84695  Biso   1.000  C
  C270     1.0000 0.58270  0.50360  0.18029  Biso   1.000  C
  C271     1.0000 0.92090  0.50360  0.31971  Biso   1.000  C
  C272     1.0000 0.58270  0.07910  0.98638  Biso   1.000  C
  C273     1.0000 0.49640  0.41730  0.65305  Biso   1.000  C
  C274     1.0000 0.07910  0.49640  0.81971  Biso   1.000  C
  C275     1.0000 0.41730  0.92090  0.48638  Biso   1.000  C
  C276     1.0000 0.50360  0.58270  0.15305  Biso   1.000  C
  H193     1.0000 0.51760  0.86410  0.02340  Biso   1.000  H
  H194     1.0000 0.13590  0.65350  0.35673  Biso   1.000  H
  H195     1.0000 0.34650  0.48240  0.69007  Biso   1.000  H
  H196     1.0000 0.48240  0.13590  0.52340  Biso   1.000  H
  H197     1.0000 0.86410  0.34650  0.85673  Biso   1.000  H
  H198     1.0000 0.65350  0.51760  0.19007  Biso   1.000  H
  H199     1.0000 0.86410  0.51760  0.30993  Biso   1.000  H
  H200     1.0000 0.65350  0.13590  0.97660  Biso   1.000  H
  H201     1.0000 0.48240  0.34650  0.64327  Biso   1.000  H
  H202     1.0000 0.13590  0.48240  0.80993  Biso   1.000  H
  H203     1.0000 0.34650  0.86410  0.47660  Biso   1.000  H
  H204     1.0000 0.51760  0.65350  0.14327  Biso   1.000  H
  N1       1.0000 0.08900  0.84420  0.07256  Biso   1.000  N
  N2       1.0000 0.15580  0.24480  0.40589  Biso   1.000  N
  N3       1.0000 0.75520  0.91100  0.73923  Biso   1.000  N
  N4       1.0000 0.91100  0.15580  0.57256  Biso   1.000  N
  N5       1.0000 0.84420  0.75520  0.90589  Biso   1.000  N
  N6       1.0000 0.24480  0.08900  0.23923  Biso   1.000  N
  N7       1.0000 0.84420  0.08900  0.26077  Biso   1.000  N
  N8       1.0000 0.24480  0.15580  0.92744  Biso   1.000  N
  N9       1.0000 0.91100  0.75520  0.59411  Biso   1.000  N
  N10      1.0000 0.15580  0.91100  0.76077  Biso   1.000  N
  N11      1.0000 0.75520  0.84420  0.42744  Biso   1.000  N
  N12      1.0000 0.08900  0.24480  0.09411  Biso   1.000  N
  N13      1.0000 0.82570  0.59740  0.04445  Biso   1.000  N
  N14      1.0000 0.40260  0.22830  0.37778  Biso   1.000  N
  N15      1.0000 0.77170  0.17430  0.71112  Biso   1.000  N
  N16      1.0000 0.17430  0.40260  0.54445  Biso   1.000  N
  N17      1.0000 0.59740  0.77170  0.87778  Biso   1.000  N
  N18      1.0000 0.22830  0.82570  0.21112  Biso   1.000  N
  N19      1.0000 0.59740  0.82570  0.28888  Biso   1.000  N
  N20      1.0000 0.22830  0.40260  0.95555  Biso   1.000  N
  N21      1.0000 0.17430  0.77170  0.62222  Biso   1.000  N
  N22      1.0000 0.40260  0.17430  0.78888  Biso   1.000  N
  N23      1.0000 0.77170  0.59740  0.45555  Biso   1.000  N
  N24      1.0000 0.82570  0.22830  0.12222  Biso   1.000  N
  N25      1.0000 0.82850  0.52610  0.02801  Biso   1.000  N
  N26      1.0000 0.47390  0.30240  0.36134  Biso   1.000  N
  N27      1.0000 0.69760  0.17150  0.69468  Biso   1.000  N
  N28      1.0000 0.17150  0.47390  0.52801  Biso   1.000  N
  N29      1.0000 0.52610  0.69760  0.86134  Biso   1.000  N
  N30      1.0000 0.30240  0.82850  0.19468  Biso   1.000  N
  N31      1.0000 0.52610  0.82850  0.30532  Biso   1.000  N
  N32      1.0000 0.30240  0.47390  0.97199  Biso   1.000  N
  N33      1.0000 0.17150  0.69760  0.63866  Biso   1.000  N
  N34      1.0000 0.47390  0.17150  0.80532  Biso   1.000  N
  N35      1.0000 0.69760  0.52610  0.47199  Biso   1.000  N
  N36      1.0000 0.82850  0.30240  0.13866  Biso   1.000  N
  N37      1.0000 0.93520  0.50530  0.03079  Biso   1.000  N
  N38      1.0000 0.49470  0.42990  0.36412  Biso   1.000  N
  N39      1.0000 0.57010  0.06480  0.69746  Biso   1.000  N
  N40      1.0000 0.06480  0.49470  0.53079  Biso   1.000  N
  N41      1.0000 0.50530  0.57010  0.86412  Biso   1.000  N
  N42      1.0000 0.42990  0.93520  0.19746  Biso   1.000  N
  N43      1.0000 0.50530  0.93520  0.30254  Biso   1.000  N
  N44      1.0000 0.42990  0.49470  0.96921  Biso   1.000  N
  N45      1.0000 0.06480  0.57010  0.63588  Biso   1.000  N
  N46      1.0000 0.49470  0.06480  0.80254  Biso   1.000  N
  N47      1.0000 0.57010  0.50530  0.46921  Biso   1.000  N
  N48      1.0000 0.93520  0.42990  0.13588  Biso   1.000  N
  N49      1.0000 0.97060  0.00000  0.00000  Biso   1.000  N
  N50      1.0000 0.00000  0.97060  0.33333  Biso   1.000  N
  N51      1.0000 0.02940  0.02940  0.66667  Biso   1.000  N
  N52      1.0000 0.02940  0.00000  0.50000  Biso   1.000  N
  N53      1.0000 0.00000  0.02940  0.83333  Biso   1.000  N
  N54      1.0000 0.97060  0.97060  0.16667  Biso   1.000  N
  N55      1.0000 0.60600  0.00000  0.00000  Biso   1.000  N
  N56      1.0000 0.00000  0.60600  0.33333  Biso   1.000  N
  N57      1.0000 0.39400  0.39400  0.66667  Biso   1.000  N
  N58      1.0000 0.39400  0.00000  0.50000  Biso   1.000  N
  N59      1.0000 0.00000  0.39400  0.83333  Biso   1.000  N
  N60      1.0000 0.60600  0.60600  0.16667  Biso   1.000  N
  O1       1.0000 0.96140  0.93130  0.05906  Biso   1.000  O
  O2       1.0000 0.06870  0.03010  0.39239  Biso   1.000  O
  O3       1.0000 0.96990  0.03860  0.72573  Biso   1.000  O
  O4       1.0000 0.03860  0.06870  0.55906  Biso   1.000  O
  O5       1.0000 0.93130  0.96990  0.89239  Biso   1.000  O
  O6       1.0000 0.03010  0.96140  0.22573  Biso   1.000  O
  O7       1.0000 0.93130  0.96140  0.27427  Biso   1.000  O
  O8       1.0000 0.03010  0.06870  0.94094  Biso   1.000  O
  O9       1.0000 0.03860  0.96990  0.60761  Biso   1.000  O
  O10      1.0000 0.06870  0.03860  0.77427  Biso   1.000  O
  O11      1.0000 0.96990  0.93130  0.44094  Biso   1.000  O
  O12      1.0000 0.96140  0.03010  0.10761  Biso   1.000  O
  O13      1.0000 0.21270  0.75190  0.08550  Biso   1.000  O
  O14      1.0000 0.24810  0.46080  0.41883  Biso   1.000  O
  O15      1.0000 0.53920  0.78730  0.75217  Biso   1.000  O
  O16      1.0000 0.78730  0.24810  0.58550  Biso   1.000  O
  O17      1.0000 0.75190  0.53920  0.91883  Biso   1.000  O
  O18      1.0000 0.46080  0.21270  0.25217  Biso   1.000  O
  O19      1.0000 0.75190  0.21270  0.24783  Biso   1.000  O
  O20      1.0000 0.46080  0.24810  0.91450  Biso   1.000  O
  O21      1.0000 0.78730  0.53920  0.58117  Biso   1.000  O
  O22      1.0000 0.24810  0.78730  0.74783  Biso   1.000  O
  O23      1.0000 0.53920  0.75190  0.41450  Biso   1.000  O
  O24      1.0000 0.21270  0.46080  0.08117  Biso   1.000  O
  O25      1.0000 0.88890  0.20670  0.00283  Biso   1.000  O
  O26      1.0000 0.79330  0.68220  0.33616  Biso   1.000  O
  O27      1.0000 0.31780  0.11110  0.66950  Biso   1.000  O
  O28      1.0000 0.11110  0.79330  0.50283  Biso   1.000  O
  O29      1.0000 0.20670  0.31780  0.83616  Biso   1.000  O
  O30      1.0000 0.68220  0.88890  0.16950  Biso   1.000  O
  O31      1.0000 0.20670  0.88890  0.33050  Biso   1.000  O
  O32      1.0000 0.68220  0.79330  0.99717  Biso   1.000  O
  O33      1.0000 0.11110  0.31780  0.66384  Biso   1.000  O
  O34      1.0000 0.79330  0.11110  0.83050  Biso   1.000  O
  O35      1.0000 0.31780  0.20670  0.49717  Biso   1.000  O
  O36      1.0000 0.88890  0.68220  0.16384  Biso   1.000  O
  O37      1.0000 0.87470  0.24100  0.03791  Biso   1.000  O
  O38      1.0000 0.75900  0.63370  0.37124  Biso   1.000  O
  O39      1.0000 0.36630  0.12530  0.70458  Biso   1.000  O
  O40      1.0000 0.12530  0.75900  0.53791  Biso   1.000  O
  O41      1.0000 0.24100  0.36630  0.87124  Biso   1.000  O
  O42      1.0000 0.63370  0.87470  0.20458  Biso   1.000  O
  O43      1.0000 0.24100  0.87470  0.29542  Biso   1.000  O
  O44      1.0000 0.63370  0.75900  0.96209  Biso   1.000  O
  O45      1.0000 0.12530  0.36630  0.62876  Biso   1.000  O
  O46      1.0000 0.75900  0.12530  0.79542  Biso   1.000  O
  O47      1.0000 0.36630  0.24100  0.46209  Biso   1.000  O
  O48      1.0000 0.87470  0.63370  0.12876  Biso   1.000  O
  O49      1.0000 0.76580  0.96690  0.03709  Biso   1.000  O
  O50      1.0000 0.03310  0.79890  0.37042  Biso   1.000  O
  O51      1.0000 0.20110  0.23420  0.70376  Biso   1.000  O
  O52      1.0000 0.23420  0.03310  0.53709  Biso   1.000  O
  O53      1.0000 0.96690  0.20110  0.87042  Biso   1.000  O
  O54      1.0000 0.79890  0.76580  0.20376  Biso   1.000  O
  O55      1.0000 0.96690  0.76580  0.29624  Biso   1.000  O
  O56      1.0000 0.79890  0.03310  0.96291  Biso   1.000  O
  O57      1.0000 0.23420  0.20110  0.62958  Biso   1.000  O
  O58      1.0000 0.03310  0.23420  0.79624  Biso   1.000  O
  O59      1.0000 0.20110  0.96690  0.46291  Biso   1.000  O
  O60      1.0000 0.76580  0.79890  0.12958  Biso   1.000  O
  H205     1.0000 0.79800  0.05100  0.03980  Biso   1.000  H
  H206     1.0000 0.94900  0.74700  0.37313  Biso   1.000  H
  H207     1.0000 0.25300  0.20200  0.70647  Biso   1.000  H
  H208     1.0000 0.20200  0.94900  0.53980  Biso   1.000  H
  H209     1.0000 0.05100  0.25300  0.87313  Biso   1.000  H
  H210     1.0000 0.74700  0.79800  0.20647  Biso   1.000  H
  H211     1.0000 0.05100  0.79800  0.29353  Biso   1.000  H
  H212     1.0000 0.74700  0.94900  0.96020  Biso   1.000  H
  H213     1.0000 0.20200  0.25300  0.62687  Biso   1.000  H
  H214     1.0000 0.94900  0.20200  0.79353  Biso   1.000  H
  H215     1.0000 0.25300  0.05100  0.46020  Biso   1.000  H
  H216     1.0000 0.79800  0.74700  0.12687  Biso   1.000  H
  H217     1.0000 0.82410  0.95360  0.04350  Biso   1.000  H
  H218     1.0000 0.04640  0.87050  0.37683  Biso   1.000  H
  H219     1.0000 0.12950  0.17590  0.71017  Biso   1.000  H
  H220     1.0000 0.17590  0.04640  0.54350  Biso   1.000  H
  H221     1.0000 0.95360  0.12950  0.87683  Biso   1.000  H
  H222     1.0000 0.87050  0.82410  0.21017  Biso   1.000  H
  H223     1.0000 0.95360  0.82410  0.28983  Biso   1.000  H
  H224     1.0000 0.87050  0.04640  0.95650  Biso   1.000  H
  H225     1.0000 0.17590  0.12950  0.62317  Biso   1.000  H
  H226     1.0000 0.04640  0.17590  0.78983  Biso   1.000  H
  H227     1.0000 0.12950  0.95360  0.45650  Biso   1.000  H
  H228     1.0000 0.82410  0.87050  0.12317  Biso   1.000  H
  O61      1.0000 0.36570  0.69740  0.11744  Biso   1.000  O
  O62      1.0000 0.30260  0.66830  0.45077  Biso   1.000  O
  O63      1.0000 0.33170  0.63430  0.78411  Biso   1.000  O
  O64      1.0000 0.63430  0.30260  0.61744  Biso   1.000  O
  O65      1.0000 0.69740  0.33170  0.95077  Biso   1.000  O
  O66      1.0000 0.66830  0.36570  0.28411  Biso   1.000  O
  O67      1.0000 0.69740  0.36570  0.21589  Biso   1.000  O
  O68      1.0000 0.66830  0.30260  0.88256  Biso   1.000  O
  O69      1.0000 0.63430  0.33170  0.54923  Biso   1.000  O
  O70      1.0000 0.30260  0.63430  0.71589  Biso   1.000  O
  O71      1.0000 0.33170  0.69740  0.38256  Biso   1.000  O
  O72      1.0000 0.36570  0.66830  0.04923  Biso   1.000  O
  H229     1.0000 0.32910  0.71420  0.10700  Biso   1.000  H
  H230     1.0000 0.28580  0.61490  0.44033  Biso   1.000  H
  H231     1.0000 0.38510  0.67090  0.77367  Biso   1.000  H
  H232     1.0000 0.67090  0.28580  0.60700  Biso   1.000  H
  H233     1.0000 0.71420  0.38510  0.94033  Biso   1.000  H
  H234     1.0000 0.61490  0.32910  0.27367  Biso   1.000  H
  H235     1.0000 0.71420  0.32910  0.22633  Biso   1.000  H
  H236     1.0000 0.61490  0.28580  0.89300  Biso   1.000  H
  H237     1.0000 0.67090  0.38510  0.55967  Biso   1.000  H
  H238     1.0000 0.28580  0.67090  0.72633  Biso   1.000  H
  H239     1.0000 0.38510  0.71420  0.39300  Biso   1.000  H
  H240     1.0000 0.32910  0.61490  0.05967  Biso   1.000  H
  H241     1.0000 0.43570  0.77200  0.12090  Biso   1.000  H
  H242     1.0000 0.22800  0.66370  0.45423  Biso   1.000  H
  H243     1.0000 0.33630  0.56430  0.78757  Biso   1.000  H
  H244     1.0000 0.56430  0.22800  0.62090  Biso   1.000  H
  H245     1.0000 0.77200  0.33630  0.95423  Biso   1.000  H
  H246     1.0000 0.66370  0.43570  0.28757  Biso   1.000  H
  H247     1.0000 0.77200  0.43570  0.21243  Biso   1.000  H
  H248     1.0000 0.66370  0.22800  0.87910  Biso   1.000  H
  H249     1.0000 0.56430  0.33630  0.54577  Biso   1.000  H
  H250     1.0000 0.22800  0.56430  0.71243  Biso   1.000  H
  H251     1.0000 0.33630  0.77200  0.37910  Biso   1.000  H
  H252     1.0000 0.43570  0.66370  0.04577  Biso   1.000  H
  O73      1.0000 0.60050  0.94660  0.12682  Biso   1.000  O
  O74      1.0000 0.05340  0.65390  0.46015  Biso   1.000  O
  O75      1.0000 0.34610  0.39950  0.79349  Biso   1.000  O
  O76      1.0000 0.39950  0.05340  0.62682  Biso   1.000  O
  O77      1.0000 0.94660  0.34610  0.96015  Biso   1.000  O
  O78      1.0000 0.65390  0.60050  0.29349  Biso   1.000  O
  O79      1.0000 0.94660  0.60050  0.20651  Biso   1.000  O
  O80      1.0000 0.65390  0.05340  0.87318  Biso   1.000  O
  O81      1.0000 0.39950  0.34610  0.53985  Biso   1.000  O
  O82      1.0000 0.05340  0.39950  0.70651  Biso   1.000  O
  O83      1.0000 0.34610  0.94660  0.37318  Biso   1.000  O
  O84      1.0000 0.60050  0.65390  0.03985  Biso   1.000  O
  H253     1.0000 0.64480  0.92770  0.13570  Biso   1.000  H
  H254     1.0000 0.07230  0.71710  0.46903  Biso   1.000  H
  H255     1.0000 0.28290  0.35520  0.80237  Biso   1.000  H
  H256     1.0000 0.35520  0.07230  0.63570  Biso   1.000  H
  H257     1.0000 0.92770  0.28290  0.96903  Biso   1.000  H
  H258     1.0000 0.71710  0.64480  0.30237  Biso   1.000  H
  H259     1.0000 0.92770  0.64480  0.19763  Biso   1.000  H
  H260     1.0000 0.71710  0.07230  0.86430  Biso   1.000  H
  H261     1.0000 0.35520  0.28290  0.53097  Biso   1.000  H
  H262     1.0000 0.07230  0.35520  0.69763  Biso   1.000  H
  H263     1.0000 0.28290  0.92770  0.36430  Biso   1.000  H
  H264     1.0000 0.64480  0.71710  0.03097  Biso   1.000  H
  H265     1.0000 0.63090  0.93450  0.11520  Biso   1.000  H
  H266     1.0000 0.06550  0.69640  0.44853  Biso   1.000  H
  H267     1.0000 0.30360  0.36910  0.78187  Biso   1.000  H
  H268     1.0000 0.36910  0.06550  0.61520  Biso   1.000  H
  H269     1.0000 0.93450  0.30360  0.94853  Biso   1.000  H
  H270     1.0000 0.69640  0.63090  0.28187  Biso   1.000  H
  H271     1.0000 0.93450  0.63090  0.21813  Biso   1.000  H
  H272     1.0000 0.69640  0.06550  0.88480  Biso   1.000  H
  H273     1.0000 0.36910  0.30360  0.55147  Biso   1.000  H
  H274     1.0000 0.06550  0.36910  0.71813  Biso   1.000  H
  H275     1.0000 0.30360  0.93450  0.38480  Biso   1.000  H
  H276     1.0000 0.63090  0.69640  0.05147  Biso   1.000  H
  O85      1.0000 0.67200  0.83580  0.08330  Biso   1.000  O
  O86      1.0000 0.16420  0.83620  0.41663  Biso   1.000  O
  O87      1.0000 0.16380  0.32800  0.74997  Biso   1.000  O
  O88      1.0000 0.32800  0.16420  0.58330  Biso   1.000  O
  O89      1.0000 0.83580  0.16380  0.91663  Biso   1.000  O
  O90      1.0000 0.83620  0.67200  0.24997  Biso   1.000  O
