data_image0
_cell_length_a       17.967
_cell_length_b       17.967
_cell_length_c       42.438
_cell_angle_alpha    90
_cell_angle_beta     90
_cell_angle_gamma    120

_symmetry_space_group_name_H-M    "P 1"
_symmetry_int_tables_number       1

loop_
  _symmetry_equiv_pos_as_xyz
  'x, y, z'

loop_
  _atom_site_label
  _atom_site_occupancy
  _atom_site_fract_x
  _atom_site_fract_y
  _atom_site_fract_z
  _atom_site_thermal_displace_type
  _atom_site_B_iso_or_equiv
  _atom_site_type_symbol
  Cu1      1.0000 0.32000  0.33337  0.08340  Biso   1.000  Cu
  Cu2      1.0000 0.66663  0.98663  0.08340  Biso   1.000  Cu
  Cu3      1.0000 0.01337  0.68000  0.08340  Biso   1.000  Cu
  Cu4      1.0000 0.33337  0.32000  0.41660  Biso   1.000  Cu
  Cu5      1.0000 0.68000  0.01337  0.41660  Biso   1.000  Cu
  Cu6      1.0000 0.98663  0.66663  0.41660  Biso   1.000  Cu
  Cu7      1.0000 0.00004  0.65333  0.74993  Biso   1.000  Cu
  Cu8      1.0000 0.34667  0.34670  0.74993  Biso   1.000  Cu
  Cu9      1.0000 0.65330  0.99996  0.74993  Biso   1.000  Cu
  Cu10     1.0000 0.68000  0.66663  0.91660  Biso   1.000  Cu
  Cu11     1.0000 0.33337  0.01337  0.91660  Biso   1.000  Cu
  Cu12     1.0000 0.98663  0.32000  0.91660  Biso   1.000  Cu
  Cu13     1.0000 0.66663  0.68000  0.58340  Biso   1.000  Cu
  Cu14     1.0000 0.32000  0.98663  0.58340  Biso   1.000  Cu
  Cu15     1.0000 0.01337  0.33337  0.58340  Biso   1.000  Cu
  Cu16     1.0000 0.34667  0.99996  0.24993  Biso   1.000  Cu
  Cu17     1.0000 0.00004  0.34670  0.24993  Biso   1.000  Cu
  Cu18     1.0000 0.65330  0.65333  0.24993  Biso   1.000  Cu
  Cu19     1.0000 0.99244  0.33337  0.08340  Biso   1.000  Cu
  Cu20     1.0000 0.66663  0.65907  0.08340  Biso   1.000  Cu
  Cu21     1.0000 0.34093  0.00756  0.08340  Biso   1.000  Cu
  Cu22     1.0000 0.33337  0.99244  0.41660  Biso   1.000  Cu
  Cu23     1.0000 0.00756  0.34093  0.41660  Biso   1.000  Cu
  Cu24     1.0000 0.65907  0.66663  0.41660  Biso   1.000  Cu
  Cu25     1.0000 0.00004  0.32577  0.74993  Biso   1.000  Cu
  Cu26     1.0000 0.67423  0.67426  0.74993  Biso   1.000  Cu
  Cu27     1.0000 0.32574  0.99996  0.74993  Biso   1.000  Cu
  Cu28     1.0000 0.00756  0.66663  0.91660  Biso   1.000  Cu
  Cu29     1.0000 0.33337  0.34093  0.91660  Biso   1.000  Cu
  Cu30     1.0000 0.65907  0.99244  0.91660  Biso   1.000  Cu
  Cu31     1.0000 0.66663  0.00756  0.58340  Biso   1.000  Cu
  Cu32     1.0000 0.99244  0.65907  0.58340  Biso   1.000  Cu
  Cu33     1.0000 0.34093  0.33337  0.58340  Biso   1.000  Cu
  Cu34     1.0000 0.67423  0.99996  0.24993  Biso   1.000  Cu
  Cu35     1.0000 0.00004  0.67426  0.24993  Biso   1.000  Cu
  Cu36     1.0000 0.32574  0.32577  0.24993  Biso   1.000  Cu
  N1       1.0000 0.21090  0.28850  0.05744  Biso   1.000  N
  N2       1.0000 0.71150  0.92240  0.05744  Biso   1.000  N
  N3       1.0000 0.07760  0.78910  0.05744  Biso   1.000  N
  N4       1.0000 0.28850  0.21090  0.44256  Biso   1.000  N
  N5       1.0000 0.78910  0.07760  0.44256  Biso   1.000  N
  N6       1.0000 0.92240  0.71150  0.44256  Biso   1.000  N
  N7       1.0000 0.87757  0.62183  0.39077  Biso   1.000  N
  N8       1.0000 0.37817  0.25573  0.39077  Biso   1.000  N
  N9       1.0000 0.74427  0.12243  0.39077  Biso   1.000  N
  N10      1.0000 0.95517  0.54423  0.77589  Biso   1.000  N
  N11      1.0000 0.45577  0.41093  0.77589  Biso   1.000  N
  N12      1.0000 0.58907  0.04483  0.77589  Biso   1.000  N
  N13      1.0000 0.54423  0.95517  0.72411  Biso   1.000  N
  N14      1.0000 0.04483  0.58907  0.72411  Biso   1.000  N
  N15      1.0000 0.41093  0.45577  0.72411  Biso   1.000  N
  N16      1.0000 0.62183  0.87757  0.10923  Biso   1.000  N
  N17      1.0000 0.12243  0.74427  0.10923  Biso   1.000  N
  N18      1.0000 0.25573  0.37817  0.10923  Biso   1.000  N
  N19      1.0000 0.78910  0.71150  0.94256  Biso   1.000  N
  N20      1.0000 0.28850  0.07760  0.94256  Biso   1.000  N
  N21      1.0000 0.92240  0.21090  0.94256  Biso   1.000  N
  N22      1.0000 0.71150  0.78910  0.55744  Biso   1.000  N
  N23      1.0000 0.21090  0.92240  0.55744  Biso   1.000  N
  N24      1.0000 0.07760  0.28850  0.55744  Biso   1.000  N
  N25      1.0000 0.45577  0.04483  0.27589  Biso   1.000  N
  N26      1.0000 0.95517  0.41093  0.27589  Biso   1.000  N
  N27      1.0000 0.58907  0.54423  0.27589  Biso   1.000  N
  N28      1.0000 0.37817  0.12243  0.89077  Biso   1.000  N
  N29      1.0000 0.87757  0.25573  0.89077  Biso   1.000  N
  N30      1.0000 0.74427  0.62183  0.89077  Biso   1.000  N
  N31      1.0000 0.12243  0.37817  0.60923  Biso   1.000  N
  N32      1.0000 0.62183  0.74427  0.60923  Biso   1.000  N
  N33      1.0000 0.25573  0.87757  0.60923  Biso   1.000  N
  N34      1.0000 0.04483  0.45577  0.22411  Biso   1.000  N
  N35      1.0000 0.54423  0.58907  0.22411  Biso   1.000  N
  N36      1.0000 0.41093  0.95517  0.22411  Biso   1.000  N
  N37      1.0000 0.08320  0.28680  0.05296  Biso   1.000  N
  N38      1.0000 0.71320  0.79640  0.05296  Biso   1.000  N
  N39      1.0000 0.20360  0.91680  0.05296  Biso   1.000  N
  N40      1.0000 0.28680  0.08320  0.44704  Biso   1.000  N
  N41      1.0000 0.91680  0.20360  0.44704  Biso   1.000  N
  N42      1.0000 0.79640  0.71320  0.44704  Biso   1.000  N
  N43      1.0000 0.74987  0.62013  0.38629  Biso   1.000  N
  N44      1.0000 0.37987  0.12973  0.38629  Biso   1.000  N
  N45      1.0000 0.87027  0.25013  0.38629  Biso   1.000  N
  N46      1.0000 0.95347  0.41653  0.78037  Biso   1.000  N
  N47      1.0000 0.58347  0.53693  0.78037  Biso   1.000  N
  N48      1.0000 0.46307  0.04653  0.78037  Biso   1.000  N
  N49      1.0000 0.41653  0.95347  0.71963  Biso   1.000  N
  N50      1.0000 0.04653  0.46307  0.71963  Biso   1.000  N
  N51      1.0000 0.53693  0.58347  0.71963  Biso   1.000  N
  N52      1.0000 0.62013  0.74987  0.11371  Biso   1.000  N
  N53      1.0000 0.25013  0.87027  0.11371  Biso   1.000  N
  N54      1.0000 0.12973  0.37987  0.11371  Biso   1.000  N
  N55      1.0000 0.91680  0.71320  0.94704  Biso   1.000  N
  N56      1.0000 0.28680  0.20360  0.94704  Biso   1.000  N
  N57      1.0000 0.79640  0.08320  0.94704  Biso   1.000  N
  N58      1.0000 0.71320  0.91680  0.55296  Biso   1.000  N
  N59      1.0000 0.08320  0.79640  0.55296  Biso   1.000  N
  N60      1.0000 0.20360  0.28680  0.55296  Biso   1.000  N
  N61      1.0000 0.58347  0.04653  0.28037  Biso   1.000  N
  N62      1.0000 0.95347  0.53693  0.28037  Biso   1.000  N
  N63      1.0000 0.46307  0.41653  0.28037  Biso   1.000  N
  N64      1.0000 0.37987  0.25013  0.88629  Biso   1.000  N
  N65      1.0000 0.74987  0.12973  0.88629  Biso   1.000  N
  N66      1.0000 0.87027  0.62013  0.88629  Biso   1.000  N
  N67      1.0000 0.25013  0.37987  0.61371  Biso   1.000  N
  N68      1.0000 0.62013  0.87027  0.61371  Biso   1.000  N
  N69      1.0000 0.12973  0.74987  0.61371  Biso   1.000  N
  N70      1.0000 0.04653  0.58347  0.21963  Biso   1.000  N
  N71      1.0000 0.41653  0.46307  0.21963  Biso   1.000  N
  N72      1.0000 0.53693  0.95347  0.21963  Biso   1.000  N
  N73      1.0000 0.39540  0.45730  0.04824  Biso   1.000  N
  N74      1.0000 0.54270  0.93810  0.04824  Biso   1.000  N
  N75      1.0000 0.06190  0.60460  0.04824  Biso   1.000  N
  N76      1.0000 0.45730  0.39540  0.45176  Biso   1.000  N
  N77      1.0000 0.60460  0.06190  0.45176  Biso   1.000  N
  N78      1.0000 0.93810  0.54270  0.45176  Biso   1.000  N
  N79      1.0000 0.06207  0.79063  0.38157  Biso   1.000  N
  N80      1.0000 0.20937  0.27143  0.38157  Biso   1.000  N
  N81      1.0000 0.72857  0.93793  0.38157  Biso   1.000  N
  N82      1.0000 0.12397  0.72873  0.78509  Biso   1.000  N
  N83      1.0000 0.27127  0.39523  0.78509  Biso   1.000  N
  N84      1.0000 0.60477  0.87603  0.78509  Biso   1.000  N
  N85      1.0000 0.72873  0.12397  0.71491  Biso   1.000  N
  N86      1.0000 0.87603  0.60477  0.71491  Biso   1.000  N
  N87      1.0000 0.39523  0.27127  0.71491  Biso   1.000  N
  N88      1.0000 0.79063  0.06207  0.11843  Biso   1.000  N
  N89      1.0000 0.93793  0.72857  0.11843  Biso   1.000  N
  N90      1.0000 0.27143  0.20937  0.11843  Biso   1.000  N
  N91      1.0000 0.60460  0.54270  0.95176  Biso   1.000  N
  N92      1.0000 0.45730  0.06190  0.95176  Biso   1.000  N
  N93      1.0000 0.93810  0.39540  0.95176  Biso   1.000  N
  N94      1.0000 0.54270  0.60460  0.54824  Biso   1.000  N
  N95      1.0000 0.39540  0.93810  0.54824  Biso   1.000  N
  N96      1.0000 0.06190  0.45730  0.54824  Biso   1.000  N
  N97      1.0000 0.27127  0.87603  0.28509  Biso   1.000  N
  N98      1.0000 0.12397  0.39523  0.28509  Biso   1.000  N
  N99      1.0000 0.60477  0.72873  0.28509  Biso   1.000  N
  N100     1.0000 0.20937  0.93793  0.88157  Biso   1.000  N
  N101     1.0000 0.06207  0.27143  0.88157  Biso   1.000  N
  N102     1.0000 0.72857  0.79063  0.88157  Biso   1.000  N
  N103     1.0000 0.93793  0.20937  0.61843  Biso   1.000  N
  N104     1.0000 0.79063  0.72857  0.61843  Biso   1.000  N
  N105     1.0000 0.27143  0.06207  0.61843  Biso   1.000  N
  N106     1.0000 0.87603  0.27127  0.21491  Biso   1.000  N
  N107     1.0000 0.72873  0.60477  0.21491  Biso   1.000  N
  N108     1.0000 0.39523  0.12397  0.21491  Biso   1.000  N
  N109     1.0000 0.43280  0.40780  0.10380  Biso   1.000  N
  N110     1.0000 0.59220  0.02500  0.10380  Biso   1.000  N
  N111     1.0000 0.97500  0.56720  0.10380  Biso   1.000  N
  N112     1.0000 0.40780  0.43280  0.39620  Biso   1.000  N
  N113     1.0000 0.56720  0.97500  0.39620  Biso   1.000  N
  N114     1.0000 0.02500  0.59220  0.39620  Biso   1.000  N
  N115     1.0000 0.09947  0.74113  0.43713  Biso   1.000  N
  N116     1.0000 0.25887  0.35833  0.43713  Biso   1.000  N
  N117     1.0000 0.64167  0.90053  0.43713  Biso   1.000  N
  N118     1.0000 0.07447  0.76613  0.72953  Biso   1.000  N
  N119     1.0000 0.23387  0.30833  0.72953  Biso   1.000  N
  N120     1.0000 0.69167  0.92553  0.72953  Biso   1.000  N
  N121     1.0000 0.76613  0.07447  0.77047  Biso   1.000  N
  N122     1.0000 0.92553  0.69167  0.77047  Biso   1.000  N
  N123     1.0000 0.30833  0.23387  0.77047  Biso   1.000  N
  N124     1.0000 0.74113  0.09947  0.06287  Biso   1.000  N
  N125     1.0000 0.90053  0.64167  0.06287  Biso   1.000  N
  N126     1.0000 0.35833  0.25887  0.06287  Biso   1.000  N
  N127     1.0000 0.56720  0.59220  0.89620  Biso   1.000  N
  N128     1.0000 0.40780  0.97500  0.89620  Biso   1.000  N
  N129     1.0000 0.02500  0.43280  0.89620  Biso   1.000  N
  N130     1.0000 0.59220  0.56720  0.60380  Biso   1.000  N
  N131     1.0000 0.43280  0.02500  0.60380  Biso   1.000  N
  N132     1.0000 0.97500  0.40780  0.60380  Biso   1.000  N
  N133     1.0000 0.23387  0.92553  0.22953  Biso   1.000  N
  N134     1.0000 0.07447  0.30833  0.22953  Biso   1.000  N
  N135     1.0000 0.69167  0.76613  0.22953  Biso   1.000  N
  N136     1.0000 0.25887  0.90053  0.93713  Biso   1.000  N
  N137     1.0000 0.09947  0.35833  0.93713  Biso   1.000  N
  N138     1.0000 0.64167  0.74113  0.93713  Biso   1.000  N
  N139     1.0000 0.90053  0.25887  0.56287  Biso   1.000  N
  N140     1.0000 0.74113  0.64167  0.56287  Biso   1.000  N
  N141     1.0000 0.35833  0.09947  0.56287  Biso   1.000  N
  N142     1.0000 0.92553  0.23387  0.27047  Biso   1.000  N
  N143     1.0000 0.76613  0.69167  0.27047  Biso   1.000  N
  N144     1.0000 0.30833  0.07447  0.27047  Biso   1.000  N
  N145     1.0000 0.46980  0.40110  0.13062  Biso   1.000  N
  N146     1.0000 0.59890  0.06870  0.13062  Biso   1.000  N
  N147     1.0000 0.93130  0.53020  0.13062  Biso   1.000  N
  N148     1.0000 0.40110  0.46980  0.36938  Biso   1.000  N
  N149     1.0000 0.53020  0.93130  0.36938  Biso   1.000  N
  N150     1.0000 0.06870  0.59890  0.36938  Biso   1.000  N
  N151     1.0000 0.13647  0.73443  0.46395  Biso   1.000  N
  N152     1.0000 0.26557  0.40203  0.46395  Biso   1.000  N
  N153     1.0000 0.59797  0.86353  0.46395  Biso   1.000  N
  N154     1.0000 0.06777  0.80313  0.70271  Biso   1.000  N
  N155     1.0000 0.19687  0.26463  0.70271  Biso   1.000  N
  N156     1.0000 0.73537  0.93223  0.70271  Biso   1.000  N
  N157     1.0000 0.80313  0.06777  0.79729  Biso   1.000  N
  N158     1.0000 0.93223  0.73537  0.79729  Biso   1.000  N
  N159     1.0000 0.26463  0.19687  0.79729  Biso   1.000  N
  N160     1.0000 0.73443  0.13647  0.03605  Biso   1.000  N
  N161     1.0000 0.86353  0.59797  0.03605  Biso   1.000  N
  N162     1.0000 0.40203  0.26557  0.03605  Biso   1.000  N
  N163     1.0000 0.53020  0.59890  0.86938  Biso   1.000  N
  N164     1.0000 0.40110  0.93130  0.86938  Biso   1.000  N
  N165     1.0000 0.06870  0.46980  0.86938  Biso   1.000  N
  N166     1.0000 0.59890  0.53020  0.63062  Biso   1.000  N
  N167     1.0000 0.46980  0.06870  0.63062  Biso   1.000  N
  N168     1.0000 0.93130  0.40110  0.63062  Biso   1.000  N
  N169     1.0000 0.19687  0.93223  0.20271  Biso   1.000  N
  N170     1.0000 0.06777  0.26463  0.20271  Biso   1.000  N
  N171     1.0000 0.73537  0.80313  0.20271  Biso   1.000  N
  N172     1.0000 0.26557  0.86353  0.96395  Biso   1.000  N
  N173     1.0000 0.13647  0.40203  0.96395  Biso   1.000  N
  N174     1.0000 0.59797  0.73443  0.96395  Biso   1.000  N
  N175     1.0000 0.86353  0.26557  0.53605  Biso   1.000  N
  N176     1.0000 0.73443  0.59797  0.53605  Biso   1.000  N
  N177     1.0000 0.40203  0.13647  0.53605  Biso   1.000  N
  N178     1.0000 0.93223  0.19687  0.29729  Biso   1.000  N
  N179     1.0000 0.80313  0.73537  0.29729  Biso   1.000  N
  N180     1.0000 0.26463  0.06777  0.29729  Biso   1.000  N
  N181     1.0000 0.54650  0.47000  0.13315  Biso   1.000  N
  N182     1.0000 0.53000  0.07650  0.13315  Biso   1.000  N
  N183     1.0000 0.92350  0.45350  0.13315  Biso   1.000  N
  N184     1.0000 0.47000  0.54650  0.36685  Biso   1.000  N
  N185     1.0000 0.45350  0.92350  0.36685  Biso   1.000  N
  N186     1.0000 0.07650  0.53000  0.36685  Biso   1.000  N
  N187     1.0000 0.21317  0.80333  0.46648  Biso   1.000  N
  N188     1.0000 0.19667  0.40983  0.46648  Biso   1.000  N
  N189     1.0000 0.59017  0.78683  0.46648  Biso   1.000  N
  N190     1.0000 0.13667  0.87983  0.70018  Biso   1.000  N
  N191     1.0000 0.12017  0.25683  0.70018  Biso   1.000  N
  N192     1.0000 0.74317  0.86333  0.70018  Biso   1.000  N
  N193     1.0000 0.87983  0.13667  0.79982  Biso   1.000  N
  N194     1.0000 0.86333  0.74317  0.79982  Biso   1.000  N
  N195     1.0000 0.25683  0.12017  0.79982  Biso   1.000  N
  N196     1.0000 0.80333  0.21317  0.03352  Biso   1.000  N
  N197     1.0000 0.78683  0.59017  0.03352  Biso   1.000  N
  N198     1.0000 0.40983  0.19667  0.03352  Biso   1.000  N
  N199     1.0000 0.45350  0.53000  0.86685  Biso   1.000  N
  N200     1.0000 0.47000  0.92350  0.86685  Biso   1.000  N
  N201     1.0000 0.07650  0.54650  0.86685  Biso   1.000  N
  N202     1.0000 0.53000  0.45350  0.63315  Biso   1.000  N
  N203     1.0000 0.54650  0.07650  0.63315  Biso   1.000  N
  N204     1.0000 0.92350  0.47000  0.63315  Biso   1.000  N
  N205     1.0000 0.12017  0.86333  0.20018  Biso   1.000  N
  N206     1.0000 0.13667  0.25683  0.20018  Biso   1.000  N
  N207     1.0000 0.74317  0.87983  0.20018  Biso   1.000  N
  N208     1.0000 0.19667  0.78683  0.96648  Biso   1.000  N
  N209     1.0000 0.21317  0.40983  0.96648  Biso   1.000  N
  N210     1.0000 0.59017  0.80333  0.96648  Biso   1.000  N
  N211     1.0000 0.78683  0.19667  0.53352  Biso   1.000  N
  N212     1.0000 0.80333  0.59017  0.53352  Biso   1.000  N
  N213     1.0000 0.40983  0.21317  0.53352  Biso   1.000  N
  N214     1.0000 0.86333  0.12017  0.29982  Biso   1.000  N
  N215     1.0000 0.87983  0.74317  0.29982  Biso   1.000  N
  N216     1.0000 0.25683  0.13667  0.29982  Biso   1.000  N
  N217     1.0000 0.56160  0.52200  0.10788  Biso   1.000  N
  N218     1.0000 0.47800  0.03960  0.10788  Biso   1.000  N
  N219     1.0000 0.96040  0.43840  0.10788  Biso   1.000  N
  N220     1.0000 0.52200  0.56160  0.39212  Biso   1.000  N
  N221     1.0000 0.43840  0.96040  0.39212  Biso   1.000  N
  N222     1.0000 0.03960  0.47800  0.39212  Biso   1.000  N
  N223     1.0000 0.22827  0.85533  0.44121  Biso   1.000  N
  N224     1.0000 0.14467  0.37293  0.44121  Biso   1.000  N
  N225     1.0000 0.62707  0.77173  0.44121  Biso   1.000  N
  N226     1.0000 0.18867  0.89493  0.72545  Biso   1.000  N
  N227     1.0000 0.10507  0.29373  0.72545  Biso   1.000  N
  N228     1.0000 0.70627  0.81133  0.72545  Biso   1.000  N
  N229     1.0000 0.89493  0.18867  0.77455  Biso   1.000  N
  N230     1.0000 0.81133  0.70627  0.77455  Biso   1.000  N
  N231     1.0000 0.29373  0.10507  0.77455  Biso   1.000  N
  N232     1.0000 0.85533  0.22827  0.05879  Biso   1.000  N
  N233     1.0000 0.77173  0.62707  0.05879  Biso   1.000  N
  N234     1.0000 0.37293  0.14467  0.05879  Biso   1.000  N
  N235     1.0000 0.43840  0.47800  0.89212  Biso   1.000  N
  N236     1.0000 0.52200  0.96040  0.89212  Biso   1.000  N
  N237     1.0000 0.03960  0.56160  0.89212  Biso   1.000  N
  N238     1.0000 0.47800  0.43840  0.60788  Biso   1.000  N
  N239     1.0000 0.56160  0.03960  0.60788  Biso   1.000  N
  N240     1.0000 0.96040  0.52200  0.60788  Biso   1.000  N
  N241     1.0000 0.10507  0.81133  0.22545  Biso   1.000  N
  N242     1.0000 0.18867  0.29373  0.22545  Biso   1.000  N
  N243     1.0000 0.70627  0.89493  0.22545  Biso   1.000  N
  N244     1.0000 0.14467  0.77173  0.94121  Biso   1.000  N
  N245     1.0000 0.22827  0.37293  0.94121  Biso   1.000  N
  N246     1.0000 0.62707  0.85533  0.94121  Biso   1.000  N
  N247     1.0000 0.77173  0.14467  0.55879  Biso   1.000  N
  N248     1.0000 0.85533  0.62707  0.55879  Biso   1.000  N
  N249     1.0000 0.37293  0.22827  0.55879  Biso   1.000  N
  N250     1.0000 0.81133  0.10507  0.27455  Biso   1.000  N
  N251     1.0000 0.89493  0.70627  0.27455  Biso   1.000  N
  N252     1.0000 0.29373  0.18867  0.27455  Biso   1.000  N
  N253     1.0000 0.53420  0.58470  0.04872  Biso   1.000  N
  N254     1.0000 0.41530  0.94950  0.04872  Biso   1.000  N
  N255     1.0000 0.05050  0.46580  0.04872  Biso   1.000  N
  N256     1.0000 0.58470  0.53420  0.45128  Biso   1.000  N
  N257     1.0000 0.46580  0.05050  0.45128  Biso   1.000  N
  N258     1.0000 0.94950  0.41530  0.45128  Biso   1.000  N
  N259     1.0000 0.20087  0.91803  0.38205  Biso   1.000  N
  N260     1.0000 0.08197  0.28283  0.38205  Biso   1.000  N
  N261     1.0000 0.71717  0.79913  0.38205  Biso   1.000  N
  N262     1.0000 0.25137  0.86753  0.78461  Biso   1.000  N
  N263     1.0000 0.13247  0.38383  0.78461  Biso   1.000  N
  N264     1.0000 0.61617  0.74863  0.78461  Biso   1.000  N
  N265     1.0000 0.86753  0.25137  0.71539  Biso   1.000  N
  N266     1.0000 0.74863  0.61617  0.71539  Biso   1.000  N
  N267     1.0000 0.38383  0.13247  0.71539  Biso   1.000  N
  N268     1.0000 0.91803  0.20087  0.11795  Biso   1.000  N
  N269     1.0000 0.79913  0.71717  0.11795  Biso   1.000  N
  N270     1.0000 0.28283  0.08197  0.11795  Biso   1.000  N
  N271     1.0000 0.46580  0.41530  0.95128  Biso   1.000  N
  N272     1.0000 0.58470  0.05050  0.95128  Biso   1.000  N
  N273     1.0000 0.94950  0.53420  0.95128  Biso   1.000  N
  N274     1.0000 0.41530  0.46580  0.54872  Biso   1.000  N
  N275     1.0000 0.53420  0.94950  0.54872  Biso   1.000  N
  N276     1.0000 0.05050  0.58470  0.54872  Biso   1.000  N
  N277     1.0000 0.13247  0.74863  0.28461  Biso   1.000  N
  N278     1.0000 0.25137  0.38383  0.28461  Biso   1.000  N
  N279     1.0000 0.61617  0.86753  0.28461  Biso   1.000  N
  N280     1.0000 0.08197  0.79913  0.88205  Biso   1.000  N
  N281     1.0000 0.20087  0.28283  0.88205  Biso   1.000  N
  N282     1.0000 0.71717  0.91803  0.88205  Biso   1.000  N
  N283     1.0000 0.79913  0.08197  0.61795  Biso   1.000  N
  N284     1.0000 0.91803  0.71717  0.61795  Biso   1.000  N
  N285     1.0000 0.28283  0.20087  0.61795  Biso   1.000  N
  N286     1.0000 0.74863  0.13247  0.21539  Biso   1.000  N
  N287     1.0000 0.86753  0.61617  0.21539  Biso   1.000  N
  N288     1.0000 0.38383  0.25137  0.21539  Biso   1.000  N
  N289     1.0000 0.09680  0.24450  0.03070  Biso   1.000  N
  N290     1.0000 0.75550  0.85230  0.03070  Biso   1.000  N
  N291     1.0000 0.14770  0.90320  0.03070  Biso   1.000  N
  N292     1.0000 0.24450  0.09680  0.46930  Biso   1.000  N
  N293     1.0000 0.90320  0.14770  0.46930  Biso   1.000  N
  N294     1.0000 0.85230  0.75550  0.46930  Biso   1.000  N
  N295     1.0000 0.76347  0.57783  0.36403  Biso   1.000  N
  N296     1.0000 0.42217  0.18563  0.36403  Biso   1.000  N
  N297     1.0000 0.81437  0.23653  0.36403  Biso   1.000  N
  N298     1.0000 0.91117  0.43013  0.80263  Biso   1.000  N
  N299     1.0000 0.56987  0.48103  0.80263  Biso   1.000  N
  N300     1.0000 0.51897  0.08883  0.80263  Biso   1.000  N
  N301     1.0000 0.43013  0.91117  0.69737  Biso   1.000  N
  N302     1.0000 0.08883  0.51897  0.69737  Biso   1.000  N
  N303     1.0000 0.48103  0.56987  0.69737  Biso   1.000  N
  N304     1.0000 0.57783  0.76347  0.13597  Biso   1.000  N
  N305     1.0000 0.23653  0.81437  0.13597  Biso   1.000  N
  N306     1.0000 0.18563  0.42217  0.13597  Biso   1.000  N
  N307     1.0000 0.90320  0.75550  0.96930  Biso   1.000  N
  N308     1.0000 0.24450  0.14770  0.96930  Biso   1.000  N
  N309     1.0000 0.85230  0.09680  0.96930  Biso   1.000  N
  N310     1.0000 0.75550  0.90320  0.53070  Biso   1.000  N
  N311     1.0000 0.09680  0.85230  0.53070  Biso   1.000  N
  N312     1.0000 0.14770  0.24450  0.53070  Biso   1.000  N
  N313     1.0000 0.56987  0.08883  0.30263  Biso   1.000  N
  N314     1.0000 0.91117  0.48103  0.30263  Biso   1.000  N
  N315     1.0000 0.51897  0.43013  0.30263  Biso   1.000  N
  N316     1.0000 0.42217  0.23653  0.86403  Biso   1.000  N
  N317     1.0000 0.76347  0.18563  0.86403  Biso   1.000  N
  N318     1.0000 0.81437  0.57783  0.86403  Biso   1.000  N
  N319     1.0000 0.23653  0.42217  0.63597  Biso   1.000  N
  N320     1.0000 0.57783  0.81437  0.63597  Biso   1.000  N
  N321     1.0000 0.18563  0.76347  0.63597  Biso   1.000  N
  N322     1.0000 0.08883  0.56987  0.19737  Biso   1.000  N
  N323     1.0000 0.43013  0.51897  0.19737  Biso   1.000  N
  N324     1.0000 0.48103  0.91117  0.19737  Biso   1.000  N
  N325     1.0000 0.17190  0.24300  0.03400  Biso   1.000  N
  N326     1.0000 0.75700  0.92890  0.03400  Biso   1.000  N
  N327     1.0000 0.07110  0.82810  0.03400  Biso   1.000  N
  N328     1.0000 0.24300  0.17190  0.46600  Biso   1.000  N
  N329     1.0000 0.82810  0.07110  0.46600  Biso   1.000  N
  N330     1.0000 0.92890  0.75700  0.46600  Biso   1.000  N
  N331     1.0000 0.83857  0.57633  0.36733  Biso   1.000  N
  N332     1.0000 0.42367  0.26223  0.36733  Biso   1.000  N
  N333     1.0000 0.73777  0.16143  0.36733  Biso   1.000  N
  N334     1.0000 0.90967  0.50523  0.79933  Biso   1.000  N
  N335     1.0000 0.49477  0.40443  0.79933  Biso   1.000  N
  N336     1.0000 0.59557  0.09033  0.79933  Biso   1.000  N
  N337     1.0000 0.50523  0.90967  0.70067  Biso   1.000  N
  N338     1.0000 0.09033  0.59557  0.70067  Biso   1.000  N
  N339     1.0000 0.40443  0.49477  0.70067  Biso   1.000  N
  N340     1.0000 0.57633  0.83857  0.13267  Biso   1.000  N
  N341     1.0000 0.16143  0.73777  0.13267  Biso   1.000  N
  N342     1.0000 0.26223  0.42367  0.13267  Biso   1.000  N
  N343     1.0000 0.82810  0.75700  0.96600  Biso   1.000  N
  N344     1.0000 0.24300  0.07110  0.96600  Biso   1.000  N
  N345     1.0000 0.92890  0.17190  0.96600  Biso   1.000  N
  N346     1.0000 0.75700  0.82810  0.53400  Biso   1.000  N
  N347     1.0000 0.17190  0.92890  0.53400  Biso   1.000  N
  N348     1.0000 0.07110  0.24300  0.53400  Biso   1.000  N
  N349     1.0000 0.49477  0.09033  0.29933  Biso   1.000  N
  N350     1.0000 0.90967  0.40443  0.29933  Biso   1.000  N
  N351     1.0000 0.59557  0.50523  0.29933  Biso   1.000  N
  N352     1.0000 0.42367  0.16143  0.86733  Biso   1.000  N
  N353     1.0000 0.83857  0.26223  0.86733  Biso   1.000  N
  N354     1.0000 0.73777  0.57633  0.86733  Biso   1.000  N
  N355     1.0000 0.16143  0.42367  0.63267  Biso   1.000  N
  N356     1.0000 0.57633  0.73777  0.63267  Biso   1.000  N
  N357     1.0000 0.26223  0.83857  0.63267  Biso   1.000  N
  N358     1.0000 0.09033  0.49477  0.20067  Biso   1.000  N
  N359     1.0000 0.50523  0.59557  0.20067  Biso   1.000  N
  N360     1.0000 0.40443  0.90967  0.20067  Biso   1.000  N
  C1       1.0000 0.06410  0.24680  0.02380  Biso   1.000  C
  C2       1.0000 0.75320  0.81730  0.02380  Biso   1.000  C
  C3       1.0000 0.18270  0.93590  0.02380  Biso   1.000  C
  C4       1.0000 0.24680  0.06410  0.47620  Biso   1.000  C
  C5       1.0000 0.93590  0.18270  0.47620  Biso   1.000  C
  C6       1.0000 0.81730  0.75320  0.47620  Biso   1.000  C
  C7       1.0000 0.73077  0.58013  0.35713  Biso   1.000  C
  C8       1.0000 0.41987  0.15063  0.35713  Biso   1.000  C
  C9       1.0000 0.84937  0.26923  0.35713  Biso   1.000  C
  C10      1.0000 0.91347  0.39743  0.80953  Biso   1.000  C
  C11      1.0000 0.60257  0.51603  0.80953  Biso   1.000  C
  C12      1.0000 0.48397  0.08653  0.80953  Biso   1.000  C
  C13      1.0000 0.39743  0.91347  0.69047  Biso   1.000  C
  C14      1.0000 0.08653  0.48397  0.69047  Biso   1.000  C
  C15      1.0000 0.51603  0.60257  0.69047  Biso   1.000  C
  C16      1.0000 0.58013  0.73077  0.14287  Biso   1.000  C
  C17      1.0000 0.26923  0.84937  0.14287  Biso   1.000  C
  C18      1.0000 0.15063  0.41987  0.14287  Biso   1.000  C
  C19      1.0000 0.93590  0.75320  0.97620  Biso   1.000  C
  C20      1.0000 0.24680  0.18270  0.97620  Biso   1.000  C
  C21      1.0000 0.81730  0.06410  0.97620  Biso   1.000  C
  C22      1.0000 0.75320  0.93590  0.52380  Biso   1.000  C
  C23      1.0000 0.06410  0.81730  0.52380  Biso   1.000  C
  C24      1.0000 0.18270  0.24680  0.52380  Biso   1.000  C
  C25      1.0000 0.60257  0.08653  0.30953  Biso   1.000  C
  C26      1.0000 0.91347  0.51603  0.30953  Biso   1.000  C
  C27      1.0000 0.48397  0.39743  0.30953  Biso   1.000  C
  C28      1.0000 0.41987  0.26923  0.85713  Biso   1.000  C
  C29      1.0000 0.73077  0.15063  0.85713  Biso   1.000  C
  C30      1.0000 0.84937  0.58013  0.85713  Biso   1.000  C
  C31      1.0000 0.26923  0.41987  0.64287  Biso   1.000  C
  C32      1.0000 0.58013  0.84937  0.64287  Biso   1.000  C
  C33      1.0000 0.15063  0.73077  0.64287  Biso   1.000  C
  C34      1.0000 0.08653  0.60257  0.19047  Biso   1.000  C
  C35      1.0000 0.39743  0.48397  0.19047  Biso   1.000  C
  C36      1.0000 0.51603  0.91347  0.19047  Biso   1.000  C
  H1       1.0000 0.01450  0.23640  0.01320  Biso   1.000  H
  H2       1.0000 0.76360  0.77810  0.01320  Biso   1.000  H
  H3       1.0000 0.22190  0.98550  0.01320  Biso   1.000  H
  H4       1.0000 0.23640  0.01450  0.48680  Biso   1.000  H
  H5       1.0000 0.98550  0.22190  0.48680  Biso   1.000  H
  H6       1.0000 0.77810  0.76360  0.48680  Biso   1.000  H
  H7       1.0000 0.68117  0.56973  0.34653  Biso   1.000  H
  H8       1.0000 0.43027  0.11143  0.34653  Biso   1.000  H
  H9       1.0000 0.88857  0.31883  0.34653  Biso   1.000  H
  H10      1.0000 0.90307  0.34783  0.82013  Biso   1.000  H
  H11      1.0000 0.65217  0.55523  0.82013  Biso   1.000  H
  H12      1.0000 0.44477  0.09693  0.82013  Biso   1.000  H
  H13      1.0000 0.34783  0.90307  0.67987  Biso   1.000  H
  H14      1.0000 0.09693  0.44477  0.67987  Biso   1.000  H
  H15      1.0000 0.55523  0.65217  0.67987  Biso   1.000  H
  H16      1.0000 0.56973  0.68117  0.15347  Biso   1.000  H
  H17      1.0000 0.31883  0.88857  0.15347  Biso   1.000  H
  H18      1.0000 0.11143  0.43027  0.15347  Biso   1.000  H
  H19      1.0000 0.98550  0.76360  0.98680  Biso   1.000  H
  H20      1.0000 0.23640  0.22190  0.98680  Biso   1.000  H
  H21      1.0000 0.77810  0.01450  0.98680  Biso   1.000  H
  H22      1.0000 0.76360  0.98550  0.51320  Biso   1.000  H
  H23      1.0000 0.01450  0.77810  0.51320  Biso   1.000  H
  H24      1.0000 0.22190  0.23640  0.51320  Biso   1.000  H
  H25      1.0000 0.65217  0.09693  0.32013  Biso   1.000  H
  H26      1.0000 0.90307  0.55523  0.32013  Biso   1.000  H
  H27      1.0000 0.44477  0.34783  0.32013  Biso   1.000  H
  H28      1.0000 0.43027  0.31883  0.84653  Biso   1.000  H
  H29      1.0000 0.68117  0.11143  0.84653  Biso   1.000  H
  H30      1.0000 0.88857  0.56973  0.84653  Biso   1.000  H
  H31      1.0000 0.31883  0.43027  0.65347  Biso   1.000  H
  H32      1.0000 0.56973  0.88857  0.65347  Biso   1.000  H
  H33      1.0000 0.11143  0.68117  0.65347  Biso   1.000  H
  H34      1.0000 0.09693  0.65217  0.17987  Biso   1.000  H
  H35      1.0000 0.34783  0.44477  0.17987  Biso   1.000  H
  H36      1.0000 0.55523  0.90307  0.17987  Biso   1.000  H
  C37      1.0000 0.11960  0.22170  0.01000  Biso   1.000  C
  C38      1.0000 0.77830  0.89790  0.01000  Biso   1.000  C
  C39      1.0000 0.10210  0.88040  0.01000  Biso   1.000  C
  C40      1.0000 0.22170  0.11960  0.49000  Biso   1.000  C
  C41      1.0000 0.88040  0.10210  0.49000  Biso   1.000  C
  C42      1.0000 0.89790  0.77830  0.49000  Biso   1.000  C
  C43      1.0000 0.78627  0.55503  0.34333  Biso   1.000  C
  C44      1.0000 0.44497  0.23123  0.34333  Biso   1.000  C
  C45      1.0000 0.76877  0.21373  0.34333  Biso   1.000  C
  C46      1.0000 0.88837  0.45293  0.82333  Biso   1.000  C
  C47      1.0000 0.54707  0.43543  0.82333  Biso   1.000  C
  C48      1.0000 0.56457  0.11163  0.82333  Biso   1.000  C
  C49      1.0000 0.45293  0.88837  0.67667  Biso   1.000  C
  C50      1.0000 0.11163  0.56457  0.67667  Biso   1.000  C
  C51      1.0000 0.43543  0.54707  0.67667  Biso   1.000  C
  C52      1.0000 0.55503  0.78627  0.15667  Biso   1.000  C
  C53      1.0000 0.21373  0.76877  0.15667  Biso   1.000  C
  C54      1.0000 0.23123  0.44497  0.15667  Biso   1.000  C
  C55      1.0000 0.88040  0.77830  0.99000  Biso   1.000  C
  C56      1.0000 0.22170  0.10210  0.99000  Biso   1.000  C
  C57      1.0000 0.89790  0.11960  0.99000  Biso   1.000  C
  C58      1.0000 0.77830  0.88040  0.51000  Biso   1.000  C
  C59      1.0000 0.11960  0.89790  0.51000  Biso   1.000  C
  C60      1.0000 0.10210  0.22170  0.51000  Biso   1.000  C
  C61      1.0000 0.54707  0.11163  0.32333  Biso   1.000  C
  C62      1.0000 0.88837  0.43543  0.32333  Biso   1.000  C
  C63      1.0000 0.56457  0.45293  0.32333  Biso   1.000  C
  C64      1.0000 0.44497  0.21373  0.84333  Biso   1.000  C
  C65      1.0000 0.78627  0.23123  0.84333  Biso   1.000  C
  C66      1.0000 0.76877  0.55503  0.84333  Biso   1.000  C
  C67      1.0000 0.21373  0.44497  0.65667  Biso   1.000  C
  C68      1.0000 0.55503  0.76877  0.65667  Biso   1.000  C
  C69      1.0000 0.23123  0.78627  0.65667  Biso   1.000  C
  C70      1.0000 0.11163  0.54707  0.17667  Biso   1.000  C
  C71      1.0000 0.45293  0.56457  0.17667  Biso   1.000  C
  C72      1.0000 0.43543  0.88837  0.17667  Biso   1.000  C
  H37      1.0000 0.10570  0.18900  0.99170  Biso   1.000  H
  H38      1.0000 0.81100  0.91670  0.99170  Biso   1.000  H
  H39      1.0000 0.08330  0.89430  0.99170  Biso   1.000  H
  H40      1.0000 0.18900  0.10570  0.50830  Biso   1.000  H
  H41      1.0000 0.89430  0.08330  0.50830  Biso   1.000  H
  H42      1.0000 0.91670  0.81100  0.50830  Biso   1.000  H
  H43      1.0000 0.77237  0.52233  0.32503  Biso   1.000  H
  H44      1.0000 0.47767  0.25003  0.32503  Biso   1.000  H
  H45      1.0000 0.74997  0.22763  0.32503  Biso   1.000  H
  H46      1.0000 0.85567  0.43903  0.84163  Biso   1.000  H
  H47      1.0000 0.56097  0.41663  0.84163  Biso   1.000  H
  H48      1.0000 0.58337  0.14433  0.84163  Biso   1.000  H
  H49      1.0000 0.43903  0.85567  0.65837  Biso   1.000  H
  H50      1.0000 0.14433  0.58337  0.65837  Biso   1.000  H
  H51      1.0000 0.41663  0.56097  0.65837  Biso   1.000  H
  H52      1.0000 0.52233  0.77237  0.17497  Biso   1.000  H
  H53      1.0000 0.22763  0.74997  0.17497  Biso   1.000  H
  H54      1.0000 0.25003  0.47767  0.17497  Biso   1.000  H
  H55      1.0000 0.89430  0.81100  0.00830  Biso   1.000  H
  H56      1.0000 0.18900  0.08330  0.00830  Biso   1.000  H
  H57      1.0000 0.91670  0.10570  0.00830  Biso   1.000  H
  H58      1.0000 0.81100  0.89430  0.49170  Biso   1.000  H
  H59      1.0000 0.10570  0.91670  0.49170  Biso   1.000  H
  H60      1.0000 0.08330  0.18900  0.49170  Biso   1.000  H
  H61      1.0000 0.56097  0.14433  0.34163  Biso   1.000  H
  H62      1.0000 0.85567  0.41663  0.34163  Biso   1.000  H
  H63      1.0000 0.58337  0.43903  0.34163  Biso   1.000  H
  H64      1.0000 0.47767  0.22763  0.82503  Biso   1.000  H
  H65      1.0000 0.77237  0.25003  0.82503  Biso   1.000  H
  H66      1.0000 0.74997  0.52233  0.82503  Biso   1.000  H
  H67      1.0000 0.22763  0.47767  0.67497  Biso   1.000  H
  H68      1.0000 0.52233  0.74997  0.67497  Biso   1.000  H
  H69      1.0000 0.25003  0.77237  0.67497  Biso   1.000  H
  H70      1.0000 0.14433  0.56097  0.15837  Biso   1.000  H
  H71      1.0000 0.43903  0.58337  0.15837  Biso   1.000  H
  H72      1.0000 0.41663  0.85567  0.15837  Biso   1.000  H
  C73      1.0000 0.19500  0.24900  0.02560  Biso   1.000  C
  C74      1.0000 0.75100  0.94600  0.02560  Biso   1.000  C
  C75      1.0000 0.05400  0.80500  0.02560  Biso   1.000  C
  C76      1.0000 0.24900  0.19500  0.47440  Biso   1.000  C
  C77      1.0000 0.80500  0.05400  0.47440  Biso   1.000  C
  C78      1.0000 0.94600  0.75100  0.47440  Biso   1.000  C
  C79      1.0000 0.86167  0.58233  0.35893  Biso   1.000  C
  C80      1.0000 0.41767  0.27933  0.35893  Biso   1.000  C
  C81      1.0000 0.72067  0.13833  0.35893  Biso   1.000  C
  C82      1.0000 0.91567  0.52833  0.80773  Biso   1.000  C
  C83      1.0000 0.47167  0.38733  0.80773  Biso   1.000  C
  C84      1.0000 0.61267  0.08433  0.80773  Biso   1.000  C
  C85      1.0000 0.52833  0.91567  0.69227  Biso   1.000  C
  C86      1.0000 0.08433  0.61267  0.69227  Biso   1.000  C
  C87      1.0000 0.38733  0.47167  0.69227  Biso   1.000  C
  C88      1.0000 0.58233  0.86167  0.14107  Biso   1.000  C
  C89      1.0000 0.13833  0.72067  0.14107  Biso   1.000  C
  C90      1.0000 0.27933  0.41767  0.14107  Biso   1.000  C
  C91      1.0000 0.80500  0.75100  0.97440  Biso   1.000  C
  C92      1.0000 0.24900  0.05400  0.97440  Biso   1.000  C
  C93      1.0000 0.94600  0.19500  0.97440  Biso   1.000  C
  C94      1.0000 0.75100  0.80500  0.52560  Biso   1.000  C
  C95      1.0000 0.19500  0.94600  0.52560  Biso   1.000  C
  C96      1.0000 0.05400  0.24900  0.52560  Biso   1.000  C
  C97      1.0000 0.47167  0.08433  0.30773  Biso   1.000  C
  C98      1.0000 0.91567  0.38733  0.30773  Biso   1.000  C
  C99      1.0000 0.61267  0.52833  0.30773  Biso   1.000  C
  C100     1.0000 0.41767  0.13833  0.85893  Biso   1.000  C
  C101     1.0000 0.86167  0.27933  0.85893  Biso   1.000  C
  C102     1.0000 0.72067  0.58233  0.85893  Biso   1.000  C
  C103     1.0000 0.13833  0.41767  0.64107  Biso   1.000  C
  C104     1.0000 0.58233  0.72067  0.64107  Biso   1.000  C
  C105     1.0000 0.27933  0.86167  0.64107  Biso   1.000  C
  C106     1.0000 0.08433  0.47167  0.19227  Biso   1.000  C
  C107     1.0000 0.52833  0.61267  0.19227  Biso   1.000  C
  C108     1.0000 0.38733  0.91567  0.19227  Biso   1.000  C
  H73      1.0000 0.23780  0.24260  0.01590  Biso   1.000  H
  H74      1.0000 0.75740  0.99520  0.01590  Biso   1.000  H
  H75      1.0000 0.00480  0.76220  0.01590  Biso   1.000  H
  H76      1.0000 0.24260  0.23780  0.48410  Biso   1.000  H
  H77      1.0000 0.76220  0.00480  0.48410  Biso   1.000  H
  H78      1.0000 0.99520  0.75740  0.48410  Biso   1.000  H
  H79      1.0000 0.90447  0.57593  0.34923  Biso   1.000  H
  H80      1.0000 0.42407  0.32853  0.34923  Biso   1.000  H
  H81      1.0000 0.67147  0.09553  0.34923  Biso   1.000  H
  H82      1.0000 0.90927  0.57113  0.81743  Biso   1.000  H
  H83      1.0000 0.42887  0.33813  0.81743  Biso   1.000  H
  H84      1.0000 0.66187  0.09073  0.81743  Biso   1.000  H
  H85      1.0000 0.57113  0.90927  0.68257  Biso   1.000  H
  H86      1.0000 0.09073  0.66187  0.68257  Biso   1.000  H
  H87      1.0000 0.33813  0.42887  0.68257  Biso   1.000  H
  H88      1.0000 0.57593  0.90447  0.15077  Biso   1.000  H
  H89      1.0000 0.09553  0.67147  0.15077  Biso   1.000  H
  H90      1.0000 0.32853  0.42407  0.15077  Biso   1.000  H
  H91      1.0000 0.76220  0.75740  0.98410  Biso   1.000  H
  H92      1.0000 0.24260  0.00480  0.98410  Biso   1.000  H
  H93      1.0000 0.99520  0.23780  0.98410  Biso   1.000  H
  H94      1.0000 0.75740  0.76220  0.51590  Biso   1.000  H
  H95      1.0000 0.23780  0.99520  0.51590  Biso   1.000  H
  H96      1.0000 0.00480  0.24260  0.51590  Biso   1.000  H
  H97      1.0000 0.42887  0.09073  0.31743  Biso   1.000  H
  H98      1.0000 0.90927  0.33813  0.31743  Biso   1.000  H
  H99      1.0000 0.66187  0.57113  0.31743  Biso   1.000  H
  H100     1.0000 0.42407  0.09553  0.84923  Biso   1.000  H
  H101     1.0000 0.90447  0.32853  0.84923  Biso   1.000  H
  H102     1.0000 0.67147  0.57593  0.84923  Biso   1.000  H
  H103     1.0000 0.09553  0.42407  0.65077  Biso   1.000  H
  H104     1.0000 0.57593  0.67147  0.65077  Biso   1.000  H
  H105     1.0000 0.32853  0.90447  0.65077  Biso   1.000  H
  H106     1.0000 0.09073  0.42887  0.18257  Biso   1.000  H
  H107     1.0000 0.57113  0.66187  0.18257  Biso   1.000  H
  H108     1.0000 0.33813  0.90927  0.18257  Biso   1.000  H
  C109     1.0000 0.15480  0.30990  0.06896  Biso   1.000  C
  C110     1.0000 0.69010  0.84490  0.06896  Biso   1.000  C
  C111     1.0000 0.15510  0.84520  0.06896  Biso   1.000  C
  C112     1.0000 0.30990  0.15480  0.43104  Biso   1.000  C
  C113     1.0000 0.84520  0.15510  0.43104  Biso   1.000  C
  C114     1.0000 0.84490  0.69010  0.43104  Biso   1.000  C
  C115     1.0000 0.82147  0.64323  0.40229  Biso   1.000  C
  C116     1.0000 0.35677  0.17823  0.40229  Biso   1.000  C
  C117     1.0000 0.82177  0.17853  0.40229  Biso   1.000  C
  C118     1.0000 0.97657  0.48813  0.76437  Biso   1.000  C
  C119     1.0000 0.51187  0.48843  0.76437  Biso   1.000  C
  C120     1.0000 0.51157  0.02343  0.76437  Biso   1.000  C
  C121     1.0000 0.48813  0.97657  0.73563  Biso   1.000  C
  C122     1.0000 0.02343  0.51157  0.73563  Biso   1.000  C
  C123     1.0000 0.48843  0.51187  0.73563  Biso   1.000  C
  C124     1.0000 0.64323  0.82147  0.09771  Biso   1.000  C
  C125     1.0000 0.17853  0.82177  0.09771  Biso   1.000  C
  C126     1.0000 0.17823  0.35677  0.09771  Biso   1.000  C
  C127     1.0000 0.84520  0.69010  0.93104  Biso   1.000  C
  C128     1.0000 0.30990  0.15510  0.93104  Biso   1.000  C
  C129     1.0000 0.84490  0.15480  0.93104  Biso   1.000  C
  C130     1.0000 0.69010  0.84520  0.56896  Biso   1.000  C
  C131     1.0000 0.15480  0.84490  0.56896  Biso   1.000  C
  C132     1.0000 0.15510  0.30990  0.56896  Biso   1.000  C
  C133     1.0000 0.51187  0.02343  0.26437  Biso   1.000  C
  C134     1.0000 0.97657  0.48843  0.26437  Biso   1.000  C
  C135     1.0000 0.51157  0.48813  0.26437  Biso   1.000  C
  C136     1.0000 0.35677  0.17853  0.90229  Biso   1.000  C
  C137     1.0000 0.82147  0.17823  0.90229  Biso   1.000  C
  C138     1.0000 0.82177  0.64323  0.90229  Biso   1.000  C
  C139     1.0000 0.17853  0.35677  0.59771  Biso   1.000  C
  C140     1.0000 0.64323  0.82177  0.59771  Biso   1.000  C
  C141     1.0000 0.17823  0.82147  0.59771  Biso   1.000  C
  C142     1.0000 0.02343  0.51187  0.23563  Biso   1.000  C
  C143     1.0000 0.48813  0.51157  0.23563  Biso   1.000  C
  C144     1.0000 0.48843  0.97657  0.23563  Biso   1.000  C
  C145     1.0000 0.37870  0.48210  0.02062  Biso   1.000  C
  C146     1.0000 0.51790  0.89660  0.02062  Biso   1.000  C
  C147     1.0000 0.10340  0.62130  0.02062  Biso   1.000  C
  C148     1.0000 0.48210  0.37870  0.47938  Biso   1.000  C
  C149     1.0000 0.62130  0.10340  0.47938  Biso   1.000  C
  C150     1.0000 0.89660  0.51790  0.47938  Biso   1.000  C
  C151     1.0000 0.04537  0.81543  0.35395  Biso   1.000  C
  C152     1.0000 0.18457  0.22993  0.35395  Biso   1.000  C
  C153     1.0000 0.77007  0.95463  0.35395  Biso   1.000  C
  C154     1.0000 0.14877  0.71203  0.81271  Biso   1.000  C
  C155     1.0000 0.28797  0.43673  0.81271  Biso   1.000  C
  C156     1.0000 0.56327  0.85123  0.81271  Biso   1.000  C
  C157     1.0000 0.71203  0.14877  0.68729  Biso   1.000  C
  C158     1.0000 0.85123  0.56327  0.68729  Biso   1.000  C
  C159     1.0000 0.43673  0.28797  0.68729  Biso   1.000  C
  C160     1.0000 0.81543  0.04537  0.14605  Biso   1.000  C
  C161     1.0000 0.95463  0.77007  0.14605  Biso   1.000  C
  C162     1.0000 0.22993  0.18457  0.14605  Biso   1.000  C
  C163     1.0000 0.62130  0.51790  0.97938  Biso   1.000  C
  C164     1.0000 0.48210  0.10340  0.97938  Biso   1.000  C
  C165     1.0000 0.89660  0.37870  0.97938  Biso   1.000  C
  C166     1.0000 0.51790  0.62130  0.52062  Biso   1.000  C
  C167     1.0000 0.37870  0.89660  0.52062  Biso   1.000  C
  C168     1.0000 0.10340  0.48210  0.52062  Biso   1.000  C
  C169     1.0000 0.28797  0.85123  0.31271  Biso   1.000  C
  C170     1.0000 0.14877  0.43673  0.31271  Biso   1.000  C
  C171     1.0000 0.56327  0.71203  0.31271  Biso   1.000  C
  C172     1.0000 0.18457  0.95463  0.85395  Biso   1.000  C
  C173     1.0000 0.04537  0.22993  0.85395  Biso   1.000  C
  C174     1.0000 0.77007  0.81543  0.85395  Biso   1.000  C
  C175     1.0000 0.95463  0.18457  0.64605  Biso   1.000  C
  C176     1.0000 0.81543  0.77007  0.64605  Biso   1.000  C
  C177     1.0000 0.22993  0.04537  0.64605  Biso   1.000  C
  C178     1.0000 0.85123  0.28797  0.18729  Biso   1.000  C
  C179     1.0000 0.71203  0.56327  0.18729  Biso   1.000  C
  C180     1.0000 0.43673  0.14877  0.18729  Biso   1.000  C
  H109     1.0000 0.32630  0.44730  0.01070  Biso   1.000  H
  H110     1.0000 0.55270  0.87900  0.01070  Biso   1.000  H
  H111     1.0000 0.12100  0.67370  0.01070  Biso   1.000  H
  H112     1.0000 0.44730  0.32630  0.48930  Biso   1.000  H
  H113     1.0000 0.67370  0.12100  0.48930  Biso   1.000  H
  H114     1.0000 0.87900  0.55270  0.48930  Biso   1.000  H
  H115     1.0000 0.99297  0.78063  0.34403  Biso   1.000  H
  H116     1.0000 0.21937  0.21233  0.34403  Biso   1.000  H
  H117     1.0000 0.78767  0.00703  0.34403  Biso   1.000  H
  H118     1.0000 0.11397  0.65963  0.82263  Biso   1.000  H
  H119     1.0000 0.34037  0.45433  0.82263  Biso   1.000  H
  H120     1.0000 0.54567  0.88603  0.82263  Biso   1.000  H
  H121     1.0000 0.65963  0.11397  0.67737  Biso   1.000  H
  H122     1.0000 0.88603  0.54567  0.67737  Biso   1.000  H
  H123     1.0000 0.45433  0.34037  0.67737  Biso   1.000  H
  H124     1.0000 0.78063  0.99297  0.15597  Biso   1.000  H
  H125     1.0000 0.00703  0.78767  0.15597  Biso   1.000  H
  H126     1.0000 0.21233  0.21937  0.15597  Biso   1.000  H
  H127     1.0000 0.67370  0.55270  0.98930  Biso   1.000  H
  H128     1.0000 0.44730  0.12100  0.98930  Biso   1.000  H
  H129     1.0000 0.87900  0.32630  0.98930  Biso   1.000  H
  H130     1.0000 0.55270  0.67370  0.51070  Biso   1.000  H
  H131     1.0000 0.32630  0.87900  0.51070  Biso   1.000  H
  H132     1.0000 0.12100  0.44730  0.51070  Biso   1.000  H
  H133     1.0000 0.34037  0.88603  0.32263  Biso   1.000  H
  H134     1.0000 0.11397  0.45433  0.32263  Biso   1.000  H
  H135     1.0000 0.54567  0.65963  0.32263  Biso   1.000  H
  H136     1.0000 0.21937  0.00703  0.84403  Biso   1.000  H
  H137     1.0000 0.99297  0.21233  0.84403  Biso   1.000  H
  H138     1.0000 0.78767  0.78063  0.84403  Biso   1.000  H
  H139     1.0000 0.00703  0.21937  0.65597  Biso   1.000  H
  H140     1.0000 0.78063  0.78767  0.65597  Biso   1.000  H
  H141     1.0000 0.21233  0.99297  0.65597  Biso   1.000  H
  H142     1.0000 0.88603  0.34037  0.17737  Biso   1.000  H
  H143     1.0000 0.65963  0.54567  0.17737  Biso   1.000  H
  H144     1.0000 0.45433  0.11397  0.17737  Biso   1.000  H
  C181     1.0000 0.51570  0.60860  0.02186  Biso   1.000  C
  C182     1.0000 0.39140  0.90710  0.02186  Biso   1.000  C
  C183     1.0000 0.09290  0.48430  0.02186  Biso   1.000  C
  C184     1.0000 0.60860  0.51570  0.47814  Biso   1.000  C
  C185     1.0000 0.48430  0.09290  0.47814  Biso   1.000  C
  C186     1.0000 0.90710  0.39140  0.47814  Biso   1.000  C
  C187     1.0000 0.18237  0.94193  0.35519  Biso   1.000  C
  C188     1.0000 0.05807  0.24043  0.35519  Biso   1.000  C
  C189     1.0000 0.75957  0.81763  0.35519  Biso   1.000  C
  C190     1.0000 0.27527  0.84903  0.81147  Biso   1.000  C
  C191     1.0000 0.15097  0.42623  0.81147  Biso   1.000  C
  C192     1.0000 0.57377  0.72473  0.81147  Biso   1.000  C
  C193     1.0000 0.84903  0.27527  0.68853  Biso   1.000  C
  C194     1.0000 0.72473  0.57377  0.68853  Biso   1.000  C
  C195     1.0000 0.42623  0.15097  0.68853  Biso   1.000  C
  C196     1.0000 0.94193  0.18237  0.14481  Biso   1.000  C
  C197     1.0000 0.81763  0.75957  0.14481  Biso   1.000  C
  C198     1.0000 0.24043  0.05807  0.14481  Biso   1.000  C
  C199     1.0000 0.48430  0.39140  0.97814  Biso   1.000  C
  C200     1.0000 0.60860  0.09290  0.97814  Biso   1.000  C
  C201     1.0000 0.90710  0.51570  0.97814  Biso   1.000  C
  C202     1.0000 0.39140  0.48430  0.52186  Biso   1.000  C
  C203     1.0000 0.51570  0.90710  0.52186  Biso   1.000  C
  C204     1.0000 0.09290  0.60860  0.52186  Biso   1.000  C
  C205     1.0000 0.15097  0.72473  0.31147  Biso   1.000  C
  C206     1.0000 0.27527  0.42623  0.31147  Biso   1.000  C
  C207     1.0000 0.57377  0.84903  0.31147  Biso   1.000  C
  C208     1.0000 0.05807  0.81763  0.85519  Biso   1.000  C
  C209     1.0000 0.18237  0.24043  0.85519  Biso   1.000  C
  C210     1.0000 0.75957  0.94193  0.85519  Biso   1.000  C
  C211     1.0000 0.81763  0.05807  0.64481  Biso   1.000  C
  C212     1.0000 0.94193  0.75957  0.64481  Biso   1.000  C
  C213     1.0000 0.24043  0.18237  0.64481  Biso   1.000  C
  C214     1.0000 0.72473  0.15097  0.18853  Biso   1.000  C
  C215     1.0000 0.84903  0.57377  0.18853  Biso   1.000  C
  C216     1.0000 0.42623  0.27527  0.18853  Biso   1.000  C
  H145     1.0000 0.55590  0.66050  0.01280  Biso   1.000  H
  H146     1.0000 0.33950  0.89540  0.01280  Biso   1.000  H
  H147     1.0000 0.10460  0.44410  0.01280  Biso   1.000  H
  H148     1.0000 0.66050  0.55590  0.48720  Biso   1.000  H
  H149     1.0000 0.44410  0.10460  0.48720  Biso   1.000  H
  H150     1.0000 0.89540  0.33950  0.48720  Biso   1.000  H
  H151     1.0000 0.22257  0.99383  0.34613  Biso   1.000  H
  H152     1.0000 0.00617  0.22873  0.34613  Biso   1.000  H
  H153     1.0000 0.77127  0.77743  0.34613  Biso   1.000  H
  H154     1.0000 0.32717  0.88923  0.82053  Biso   1.000  H
  H155     1.0000 0.11077  0.43793  0.82053  Biso   1.000  H
  H156     1.0000 0.56207  0.67283  0.82053  Biso   1.000  H
  H157     1.0000 0.88923  0.32717  0.67947  Biso   1.000  H
  H158     1.0000 0.67283  0.56207  0.67947  Biso   1.000  H
  H159     1.0000 0.43793  0.11077  0.67947  Biso   1.000  H
  H160     1.0000 0.99383  0.22257  0.15387  Biso   1.000  H
  H161     1.0000 0.77743  0.77127  0.15387  Biso   1.000  H
  H162     1.0000 0.22873  0.00617  0.15387  Biso   1.000  H
  H163     1.0000 0.44410  0.33950  0.98720  Biso   1.000  H
  H164     1.0000 0.66050  0.10460  0.98720  Biso   1.000  H
  H165     1.0000 0.89540  0.55590  0.98720  Biso   1.000  H
  H166     1.0000 0.33950  0.44410  0.51280  Biso   1.000  H
  H167     1.0000 0.55590  0.89540  0.51280  Biso   1.000  H
  H168     1.0000 0.10460  0.66050  0.51280  Biso   1.000  H
  H169     1.0000 0.11077  0.67283  0.32053  Biso   1.000  H
  H170     1.0000 0.32717  0.43793  0.32053  Biso   1.000  H
  H171     1.0000 0.56207  0.88923  0.32053  Biso   1.000  H
  H172     1.0000 0.00617  0.77743  0.84613  Biso   1.000  H
  H173     1.0000 0.22257  0.22873  0.84613  Biso   1.000  H
  H174     1.0000 0.77127  0.99383  0.84613  Biso   1.000  H
  H175     1.0000 0.77743  0.00617  0.65387  Biso   1.000  H
  H176     1.0000 0.99383  0.77127  0.65387  Biso   1.000  H
  H177     1.0000 0.22873  0.22257  0.65387  Biso   1.000  H
  H178     1.0000 0.67283  0.11077  0.17947  Biso   1.000  H
  H179     1.0000 0.88923  0.56207  0.17947  Biso   1.000  H
  H180     1.0000 0.43793  0.32717  0.17947  Biso   1.000  H
  C217     1.0000 0.47280  0.51050  0.06054  Biso   1.000  C
  C218     1.0000 0.48950  0.96230  0.06054  Biso   1.000  C
  C219     1.0000 0.03770  0.52720  0.06054  Biso   1.000  C
  C220     1.0000 0.51050  0.47280  0.43946  Biso   1.000  C
  C221     1.0000 0.52720  0.03770  0.43946  Biso   1.000  C
  C222     1.0000 0.96230  0.48950  0.43946  Biso   1.000  C
  C223     1.0000 0.13947  0.84383  0.39387  Biso   1.000  C
  C224     1.0000 0.15617  0.29563  0.39387  Biso   1.000  C
  C225     1.0000 0.70437  0.86053  0.39387  Biso   1.000  C
  C226     1.0000 0.17717  0.80613  0.77279  Biso   1.000  C
  C227     1.0000 0.19387  0.37103  0.77279  Biso   1.000  C
  C228     1.0000 0.62897  0.82283  0.77279  Biso   1.000  C
  C229     1.0000 0.80613  0.17717  0.72721  Biso   1.000  C
  C230     1.0000 0.82283  0.62897  0.72721  Biso   1.000  C
  C231     1.0000 0.37103  0.19387  0.72721  Biso   1.000  C
  C232     1.0000 0.84383  0.13947  0.10613  Biso   1.000  C
  C233     1.0000 0.86053  0.70437  0.10613  Biso   1.000  C
  C234     1.0000 0.29563  0.15617  0.10613  Biso   1.000  C
  C235     1.0000 0.52720  0.48950  0.93946  Biso   1.000  C
  C236     1.0000 0.51050  0.03770  0.93946  Biso   1.000  C
  C237     1.0000 0.96230  0.47280  0.93946  Biso   1.000  C
  C238     1.0000 0.48950  0.52720  0.56054  Biso   1.000  C
  C239     1.0000 0.47280  0.96230  0.56054  Biso   1.000  C
  C240     1.0000 0.03770  0.51050  0.56054  Biso   1.000  C
  C241     1.0000 0.19387  0.82283  0.27279  Biso   1.000  C
  C242     1.0000 0.17717  0.37103  0.27279  Biso   1.000  C
  C243     1.0000 0.62897  0.80613  0.27279  Biso   1.000  C
  C244     1.0000 0.15617  0.86053  0.89387  Biso   1.000  C
  C245     1.0000 0.13947  0.29563  0.89387  Biso   1.000  C
  C246     1.0000 0.70437  0.84383  0.89387  Biso   1.000  C
  C247     1.0000 0.86053  0.15617  0.60613  Biso   1.000  C
  C248     1.0000 0.84383  0.70437  0.60613  Biso   1.000  C
  C249     1.0000 0.29563  0.13947  0.60613  Biso   1.000  C
  C250     1.0000 0.82283  0.19387  0.22721  Biso   1.000  C
  C251     1.0000 0.80613  0.62897  0.22721  Biso   1.000  C
  C252     1.0000 0.37103  0.17717  0.22721  Biso   1.000  C
  C253     1.0000 0.49040  0.48200  0.09068  Biso   1.000  C
  C254     1.0000 0.51800  0.00840  0.09068  Biso   1.000  C
  C255     1.0000 0.99160  0.50960  0.09068  Biso   1.000  C
  C256     1.0000 0.48200  0.49040  0.40932  Biso   1.000  C
  C257     1.0000 0.50960  0.99160  0.40932  Biso   1.000  C
  C258     1.0000 0.00840  0.51800  0.40932  Biso   1.000  C
  C259     1.0000 0.15707  0.81533  0.42401  Biso   1.000  C
  C260     1.0000 0.18467  0.34173  0.42401  Biso   1.000  C
  C261     1.0000 0.65827  0.84293  0.42401  Biso   1.000  C
  C262     1.0000 0.14867  0.82373  0.74265  Biso   1.000  C
  C263     1.0000 0.17627  0.32493  0.74265  Biso   1.000  C
  C264     1.0000 0.67507  0.85133  0.74265  Biso   1.000  C
  C265     1.0000 0.82373  0.14867  0.75735  Biso   1.000  C
  C266     1.0000 0.85133  0.67507  0.75735  Biso   1.000  C
  C267     1.0000 0.32493  0.17627  0.75735  Biso   1.000  C
  C268     1.0000 0.81533  0.15707  0.07599  Biso   1.000  C
  C269     1.0000 0.84293  0.65827  0.07599  Biso   1.000  C
  C270     1.0000 0.34173  0.18467  0.07599  Biso   1.000  C
  C271     1.0000 0.50960  0.51800  0.90932  Biso   1.000  C
  C272     1.0000 0.48200  0.99160  0.90932  Biso   1.000  C
  C273     1.0000 0.00840  0.49040  0.90932  Biso   1.000  C
  C274     1.0000 0.51800  0.50960  0.59068  Biso   1.000  C
  C275     1.0000 0.49040  0.00840  0.59068  Biso   1.000  C
  C276     1.0000 0.99160  0.48200  0.59068  Biso   1.000  C
  C277     1.0000 0.17627  0.85133  0.24265  Biso   1.000  C
  C278     1.0000 0.14867  0.32493  0.24265  Biso   1.000  C
  C279     1.0000 0.67507  0.82373  0.24265  Biso   1.000  C
  C280     1.0000 0.18467  0.84293  0.92401  Biso   1.000  C
  C281     1.0000 0.15707  0.34173  0.92401  Biso   1.000  C
  C282     1.0000 0.65827  0.81533  0.92401  Biso   1.000  C
  C283     1.0000 0.84293  0.18467  0.57599  Biso   1.000  C
  C284     1.0000 0.81533  0.65827  0.57599  Biso   1.000  C
  C285     1.0000 0.34173  0.15707  0.57599  Biso   1.000  C
  C286     1.0000 0.85133  0.17627  0.25735  Biso   1.000  C
  C287     1.0000 0.82373  0.67507  0.25735  Biso   1.000  C
  C288     1.0000 0.32493  0.14867  0.25735  Biso   1.000  C
  C289     1.0000 0.43750  0.55800  0.00684  Biso   1.000  C
  C290     1.0000 0.44200  0.87950  0.00684  Biso   1.000  C
  C291     1.0000 0.12050  0.56250  0.00684  Biso   1.000  C
  C292     1.0000 0.55800  0.43750  0.49316  Biso   1.000  C
  C293     1.0000 0.56250  0.12050  0.49316  Biso   1.000  C
  C294     1.0000 0.87950  0.44200  0.49316  Biso   1.000  C
  C295     1.0000 0.10417  0.89133  0.34017  Biso   1.000  C
  C296     1.0000 0.10867  0.21283  0.34017  Biso   1.000  C
  C297     1.0000 0.78717  0.89583  0.34017  Biso   1.000  C
  C298     1.0000 0.22467  0.77083  0.82649  Biso   1.000  C
  C299     1.0000 0.22917  0.45383  0.82649  Biso   1.000  C
  C300     1.0000 0.54617  0.77533  0.82649  Biso   1.000  C
  C301     1.0000 0.77083  0.22467  0.67351  Biso   1.000  C
  C302     1.0000 0.77533  0.54617  0.67351  Biso   1.000  C
  C303     1.0000 0.45383  0.22917  0.67351  Biso   1.000  C
  C304     1.0000 0.89133  0.10417  0.15983  Biso   1.000  C
  C305     1.0000 0.89583  0.78717  0.15983  Biso   1.000  C
  C306     1.0000 0.21283  0.10867  0.15983  Biso   1.000  C
  C307     1.0000 0.56250  0.44200  0.99316  Biso   1.000  C
  C308     1.0000 0.55800  0.12050  0.99316  Biso   1.000  C
  C309     1.0000 0.87950  0.43750  0.99316  Biso   1.000  C
  C310     1.0000 0.44200  0.56250  0.50684  Biso   1.000  C
  C311     1.0000 0.43750  0.87950  0.50684  Biso   1.000  C
  C312     1.0000 0.12050  0.55800  0.50684  Biso   1.000  C
  C313     1.0000 0.22917  0.77533  0.32649  Biso   1.000  C
  C314     1.0000 0.22467  0.45383  0.32649  Biso   1.000  C
  C315     1.0000 0.54617  0.77083  0.32649  Biso   1.000  C
  C316     1.0000 0.10867  0.89583  0.84017  Biso   1.000  C
  C317     1.0000 0.10417  0.21283  0.84017  Biso   1.000  C
  C318     1.0000 0.78717  0.89133  0.84017  Biso   1.000  C
  C319     1.0000 0.89583  0.10867  0.65983  Biso   1.000  C
  C320     1.0000 0.89133  0.78717  0.65983  Biso   1.000  C
  C321     1.0000 0.21283  0.10417  0.65983  Biso   1.000  C
  C322     1.0000 0.77533  0.22917  0.17351  Biso   1.000  C
  C323     1.0000 0.77083  0.54617  0.17351  Biso   1.000  C
  C324     1.0000 0.45383  0.22467  0.17351  Biso   1.000  C
  H181     1.0000 0.42540  0.57530  0.98780  Biso   1.000  H
  H182     1.0000 0.42470  0.85010  0.98780  Biso   1.000  H
  H183     1.0000 0.14990  0.57460  0.98780  Biso   1.000  H
  H184     1.0000 0.57530  0.42540  0.51220  Biso   1.000  H
  H185     1.0000 0.57460  0.14990  0.51220  Biso   1.000  H
  H186     1.0000 0.85010  0.42470  0.51220  Biso   1.000  H
  H187     1.0000 0.09207  0.90863  0.32113  Biso   1.000  H
  H188     1.0000 0.09137  0.18343  0.32113  Biso   1.000  H
  H189     1.0000 0.81657  0.90793  0.32113  Biso   1.000  H
  H190     1.0000 0.24197  0.75873  0.84553  Biso   1.000  H
  H191     1.0000 0.24127  0.48323  0.84553  Biso   1.000  H
  H192     1.0000 0.51677  0.75803  0.84553  Biso   1.000  H
  H193     1.0000 0.75873  0.24197  0.65447  Biso   1.000  H
  H194     1.0000 0.75803  0.51677  0.65447  Biso   1.000  H
  H195     1.0000 0.48323  0.24127  0.65447  Biso   1.000  H
  H196     1.0000 0.90863  0.09207  0.17887  Biso   1.000  H
  H197     1.0000 0.90793  0.81657  0.17887  Biso   1.000  H
  H198     1.0000 0.18343  0.09137  0.17887  Biso   1.000  H
  H199     1.0000 0.57460  0.42470  0.01220  Biso   1.000  H
  H200     1.0000 0.57530  0.14990  0.01220  Biso   1.000  H
  H201     1.0000 0.85010  0.42540  0.01220  Biso   1.000  H
  H202     1.0000 0.42470  0.57460  0.48780  Biso   1.000  H
  H203     1.0000 0.42540  0.85010  0.48780  Biso   1.000  H
  H204     1.0000 0.14990  0.57530  0.48780  Biso   1.000  H
  H205     1.0000 0.24127  0.75803  0.34553  Biso   1.000  H
  H206     1.0000 0.24197  0.48323  0.34553  Biso   1.000  H
  H207     1.0000 0.51677  0.75873  0.34553  Biso   1.000  H
  H208     1.0000 0.09137  0.90793  0.82113  Biso   1.000  H
  H209     1.0000 0.09207  0.18343  0.82113  Biso   1.000  H
  H210     1.0000 0.81657  0.90863  0.82113  Biso   1.000  H
  H211     1.0000 0.90793  0.09137  0.67887  Biso   1.000  H
  H212     1.0000 0.90863  0.81657  0.67887  Biso   1.000  H
  H213     1.0000 0.18343  0.09207  0.67887  Biso   1.000  H
  H214     1.0000 0.75803  0.24127  0.15447  Biso   1.000  H
  H215     1.0000 0.75873  0.51677  0.15447  Biso   1.000  H
  H216     1.0000 0.48323  0.24197  0.15447  Biso   1.000  H
  O1       1.0000 0.00000  0.00000  0.25000  Biso   1.000  O
  O2       1.0000 0.66667  0.33333  0.58333  Biso   1.000  O
  O3       1.0000 0.33333  0.66667  0.91667  Biso   1.000  O
  O4       1.0000 0.00000  0.00000  0.75000  Biso   1.000  O
  O5       1.0000 0.66667  0.33333  0.08333  Biso   1.000  O
  O6       1.0000 0.33333  0.66667  0.41667  Biso   1.000  O
  O7       1.0000 0.00000  0.00000  0.92070  Biso   1.000  O
  O8       1.0000 0.00000  0.00000  0.57930  Biso   1.000  O
  O9       1.0000 0.66667  0.33333  0.25403  Biso   1.000  O
  O10      1.0000 0.66667  0.33333  0.91263  Biso   1.000  O
  O11      1.0000 0.33333  0.66667  0.58737  Biso   1.000  O
  O12      1.0000 0.33333  0.66667  0.24597  Biso   1.000  O
  O13      1.0000 0.00000  0.00000  0.07930  Biso   1.000  O
  O14      1.0000 0.00000  0.00000  0.42070  Biso   1.000  O
  O15      1.0000 0.66667  0.33333  0.41263  Biso   1.000  O
  O16      1.0000 0.66667  0.33333  0.75403  Biso   1.000  O
  O17      1.0000 0.33333  0.66667  0.74597  Biso   1.000  O
  O18      1.0000 0.33333  0.66667  0.08737  Biso   1.000  O
