data_image0
_cell_length_a       18.853
_cell_length_b       18.853
_cell_length_c       20.639
_cell_angle_alpha    90
_cell_angle_beta     90
_cell_angle_gamma    90

_symmetry_space_group_name_H-M    "P 1"
_symmetry_int_tables_number       1

loop_
  _symmetry_equiv_pos_as_xyz
  'x, y, z'

loop_
  _atom_site_label
  _atom_site_occupancy
  _atom_site_fract_x
  _atom_site_fract_y
  _atom_site_fract_z
  _atom_site_thermal_displace_type
  _atom_site_B_iso_or_equiv
  _atom_site_type_symbol
  Cu1      1.0000 0.71849  0.07189  0.64776  Biso   1.000  Cu
  Cu2      1.0000 0.92811  0.71849  0.14776  Biso   1.000  Cu
  Cu3      1.0000 0.28151  0.92811  0.64776  Biso   1.000  Cu
  Cu4      1.0000 0.07189  0.28151  0.14776  Biso   1.000  Cu
  Cu5      1.0000 0.78151  0.57189  0.64776  Biso   1.000  Cu
  Cu6      1.0000 0.42811  0.78151  0.14776  Biso   1.000  Cu
  Cu7      1.0000 0.21849  0.42811  0.64776  Biso   1.000  Cu
  Cu8      1.0000 0.57189  0.21849  0.14776  Biso   1.000  Cu
  Cu9      1.0000 0.63781  0.19834  0.73151  Biso   1.000  Cu
  Cu10     1.0000 0.80166  0.63781  0.23151  Biso   1.000  Cu
  Cu11     1.0000 0.36219  0.80166  0.73151  Biso   1.000  Cu
  Cu12     1.0000 0.19834  0.36219  0.23151  Biso   1.000  Cu
  Cu13     1.0000 0.86219  0.69834  0.73151  Biso   1.000  Cu
  Cu14     1.0000 0.30166  0.86219  0.23151  Biso   1.000  Cu
  Cu15     1.0000 0.13781  0.30166  0.73151  Biso   1.000  Cu
  Cu16     1.0000 0.69834  0.13781  0.23151  Biso   1.000  Cu
  Cu17     1.0000 0.56622  0.14625  0.59561  Biso   1.000  Cu
  Cu18     1.0000 0.85375  0.56622  0.09561  Biso   1.000  Cu
  Cu19     1.0000 0.43378  0.85375  0.59561  Biso   1.000  Cu
  Cu20     1.0000 0.14625  0.43378  0.09561  Biso   1.000  Cu
  Cu21     1.0000 0.93378  0.64625  0.59561  Biso   1.000  Cu
  Cu22     1.0000 0.35375  0.93378  0.09561  Biso   1.000  Cu
  Cu23     1.0000 0.06622  0.35375  0.59561  Biso   1.000  Cu
  Cu24     1.0000 0.64625  0.06622  0.09561  Biso   1.000  Cu
  O1       1.0000 0.62660  0.11750  0.67050  Biso   1.000  O
  O2       1.0000 0.88250  0.62660  0.17050  Biso   1.000  O
  O3       1.0000 0.37340  0.88250  0.67050  Biso   1.000  O
  O4       1.0000 0.11750  0.37340  0.17050  Biso   1.000  O
  O5       1.0000 0.87340  0.61750  0.67050  Biso   1.000  O
  O6       1.0000 0.38250  0.87340  0.17050  Biso   1.000  O
  O7       1.0000 0.12660  0.38250  0.67050  Biso   1.000  O
  O8       1.0000 0.61750  0.12660  0.17050  Biso   1.000  O
  H1       1.0000 0.59930  0.08150  0.69400  Biso   1.000  H
  H2       1.0000 0.91850  0.59930  0.19400  Biso   1.000  H
  H3       1.0000 0.40070  0.91850  0.69400  Biso   1.000  H
  H4       1.0000 0.08150  0.40070  0.19400  Biso   1.000  H
  H5       1.0000 0.90070  0.58150  0.69400  Biso   1.000  H
  H6       1.0000 0.41850  0.90070  0.19400  Biso   1.000  H
  H7       1.0000 0.09930  0.41850  0.69400  Biso   1.000  H
  H8       1.0000 0.58150  0.09930  0.19400  Biso   1.000  H
  N1       1.0000 0.74950  0.09500  0.73370  Biso   1.000  N
  N2       1.0000 0.90500  0.74950  0.23370  Biso   1.000  N
  N3       1.0000 0.25050  0.90500  0.73370  Biso   1.000  N
  N4       1.0000 0.09500  0.25050  0.23370  Biso   1.000  N
  N5       1.0000 0.75050  0.59500  0.73370  Biso   1.000  N
  N6       1.0000 0.40500  0.75050  0.23370  Biso   1.000  N
  N7       1.0000 0.24950  0.40500  0.73370  Biso   1.000  N
  N8       1.0000 0.59500  0.24950  0.23370  Biso   1.000  N
  N9       1.0000 0.72000  0.14760  0.76660  Biso   1.000  N
  N10      1.0000 0.85240  0.72000  0.26660  Biso   1.000  N
  N11      1.0000 0.28000  0.85240  0.76660  Biso   1.000  N
  N12      1.0000 0.14760  0.28000  0.26660  Biso   1.000  N
  N13      1.0000 0.78000  0.64760  0.76660  Biso   1.000  N
  N14      1.0000 0.35240  0.78000  0.26660  Biso   1.000  N
  N15      1.0000 0.22000  0.35240  0.76660  Biso   1.000  N
  N16      1.0000 0.64760  0.22000  0.26660  Biso   1.000  N
  C1       1.0000 0.74900  0.15320  0.82570  Biso   1.000  C
  C2       1.0000 0.84680  0.74900  0.32570  Biso   1.000  C
  C3       1.0000 0.25100  0.84680  0.82570  Biso   1.000  C
  C4       1.0000 0.15320  0.25100  0.32570  Biso   1.000  C
  C5       1.0000 0.75100  0.65320  0.82570  Biso   1.000  C
  C6       1.0000 0.34680  0.75100  0.32570  Biso   1.000  C
  C7       1.0000 0.24900  0.34680  0.82570  Biso   1.000  C
  C8       1.0000 0.65320  0.24900  0.32570  Biso   1.000  C
  H9       1.0000 0.73760  0.18760  0.85620  Biso   1.000  H
  H10      1.0000 0.81240  0.73760  0.35620  Biso   1.000  H
  H11      1.0000 0.26240  0.81240  0.85620  Biso   1.000  H
  H12      1.0000 0.18760  0.26240  0.35620  Biso   1.000  H
  H13      1.0000 0.76240  0.68760  0.85620  Biso   1.000  H
  H14      1.0000 0.31240  0.76240  0.35620  Biso   1.000  H
  H15      1.0000 0.23760  0.31240  0.85620  Biso   1.000  H
  H16      1.0000 0.68760  0.23760  0.35620  Biso   1.000  H
  C9       1.0000 0.79880  0.09960  0.83440  Biso   1.000  C
  C10      1.0000 0.90040  0.79880  0.33440  Biso   1.000  C
  C11      1.0000 0.20120  0.90040  0.83440  Biso   1.000  C
  C12      1.0000 0.09960  0.20120  0.33440  Biso   1.000  C
  C13      1.0000 0.70120  0.59960  0.83440  Biso   1.000  C
  C14      1.0000 0.40040  0.70120  0.33440  Biso   1.000  C
  C15      1.0000 0.29880  0.40040  0.83440  Biso   1.000  C
  C16      1.0000 0.59960  0.29880  0.33440  Biso   1.000  C
  H17      1.0000 0.82640  0.09010  0.87080  Biso   1.000  H
  H18      1.0000 0.90990  0.82640  0.37080  Biso   1.000  H
  H19      1.0000 0.17360  0.90990  0.87080  Biso   1.000  H
  H20      1.0000 0.09010  0.17360  0.37080  Biso   1.000  H
  H21      1.0000 0.67360  0.59010  0.87080  Biso   1.000  H
  H22      1.0000 0.40990  0.67360  0.37080  Biso   1.000  H
  H23      1.0000 0.32640  0.40990  0.87080  Biso   1.000  H
  H24      1.0000 0.59010  0.32640  0.37080  Biso   1.000  H
  C17      1.0000 0.79750  0.06590  0.77900  Biso   1.000  C
  C18      1.0000 0.93410  0.79750  0.27900  Biso   1.000  C
  C19      1.0000 0.20250  0.93410  0.77900  Biso   1.000  C
  C20      1.0000 0.06590  0.20250  0.27900  Biso   1.000  C
  C21      1.0000 0.70250  0.56590  0.77900  Biso   1.000  C
  C22      1.0000 0.43410  0.70250  0.27900  Biso   1.000  C
  C23      1.0000 0.29750  0.43410  0.77900  Biso   1.000  C
  C24      1.0000 0.56590  0.29750  0.27900  Biso   1.000  C
  H25      1.0000 0.82550  0.02640  0.77030  Biso   1.000  H
  H26      1.0000 0.97360  0.82550  0.27030  Biso   1.000  H
  H27      1.0000 0.17450  0.97360  0.77030  Biso   1.000  H
  H28      1.0000 0.02640  0.17450  0.27030  Biso   1.000  H
  H29      1.0000 0.67450  0.52640  0.77030  Biso   1.000  H
  H30      1.0000 0.47360  0.67450  0.27030  Biso   1.000  H
  H31      1.0000 0.32550  0.47360  0.77030  Biso   1.000  H
  H32      1.0000 0.52640  0.32550  0.27030  Biso   1.000  H
  N17      1.0000 0.54190  0.22900  0.71110  Biso   1.000  N
  N18      1.0000 0.77100  0.54190  0.21110  Biso   1.000  N
  N19      1.0000 0.45810  0.77100  0.71110  Biso   1.000  N
  N20      1.0000 0.22900  0.45810  0.21110  Biso   1.000  N
  N21      1.0000 0.95810  0.72900  0.71110  Biso   1.000  N
  N22      1.0000 0.27100  0.95810  0.21110  Biso   1.000  N
  N23      1.0000 0.04190  0.27100  0.71110  Biso   1.000  N
  N24      1.0000 0.72900  0.04190  0.21110  Biso   1.000  N
  N25      1.0000 0.50780  0.19990  0.65900  Biso   1.000  N
  N26      1.0000 0.80010  0.50780  0.15900  Biso   1.000  N
  N27      1.0000 0.49220  0.80010  0.65900  Biso   1.000  N
  N28      1.0000 0.19990  0.49220  0.15900  Biso   1.000  N
  N29      1.0000 0.99220  0.69990  0.65900  Biso   1.000  N
  N30      1.0000 0.30010  0.99220  0.15900  Biso   1.000  N
  N31      1.0000 0.00780  0.30010  0.65900  Biso   1.000  N
  N32      1.0000 0.69990  0.00780  0.15900  Biso   1.000  N
  C25      1.0000 0.44510  0.22300  0.65860  Biso   1.000  C
  C26      1.0000 0.77700  0.44510  0.15860  Biso   1.000  C
  C27      1.0000 0.55490  0.77700  0.65860  Biso   1.000  C
  C28      1.0000 0.22300  0.55490  0.15860  Biso   1.000  C
  C29      1.0000 0.05490  0.72300  0.65860  Biso   1.000  C
  C30      1.0000 0.27700  0.05490  0.15860  Biso   1.000  C
  C31      1.0000 0.94510  0.27700  0.65860  Biso   1.000  C
  C32      1.0000 0.72300  0.94510  0.15860  Biso   1.000  C
  H33      1.0000 0.41320  0.21420  0.62520  Biso   1.000  H
  H34      1.0000 0.78580  0.41320  0.12520  Biso   1.000  H
  H35      1.0000 0.58680  0.78580  0.62520  Biso   1.000  H
  H36      1.0000 0.21420  0.58680  0.12520  Biso   1.000  H
  H37      1.0000 0.08680  0.71420  0.62520  Biso   1.000  H
  H38      1.0000 0.28580  0.08680  0.12520  Biso   1.000  H
  H39      1.0000 0.91320  0.28580  0.62520  Biso   1.000  H
  H40      1.0000 0.71420  0.91320  0.12520  Biso   1.000  H
  C33      1.0000 0.42840  0.26310  0.71340  Biso   1.000  C
  C34      1.0000 0.73690  0.42840  0.21340  Biso   1.000  C
  C35      1.0000 0.57160  0.73690  0.71340  Biso   1.000  C
  C36      1.0000 0.26310  0.57160  0.21340  Biso   1.000  C
  C37      1.0000 0.07160  0.76310  0.71340  Biso   1.000  C
  C38      1.0000 0.23690  0.07160  0.21340  Biso   1.000  C
  C39      1.0000 0.92840  0.23690  0.71340  Biso   1.000  C
  C40      1.0000 0.76310  0.92840  0.21340  Biso   1.000  C
  H41      1.0000 0.38550  0.28310  0.72610  Biso   1.000  H
  H42      1.0000 0.71690  0.38550  0.22610  Biso   1.000  H
  H43      1.0000 0.61450  0.71690  0.72610  Biso   1.000  H
  H44      1.0000 0.28310  0.61450  0.22610  Biso   1.000  H
  H45      1.0000 0.11450  0.78310  0.72610  Biso   1.000  H
  H46      1.0000 0.21690  0.11450  0.22610  Biso   1.000  H
  H47      1.0000 0.88550  0.21690  0.72610  Biso   1.000  H
  H48      1.0000 0.78310  0.88550  0.22610  Biso   1.000  H
  C41      1.0000 0.49160  0.26470  0.74250  Biso   1.000  C
  C42      1.0000 0.73530  0.49160  0.24250  Biso   1.000  C
  C43      1.0000 0.50840  0.73530  0.74250  Biso   1.000  C
  C44      1.0000 0.26470  0.50840  0.24250  Biso   1.000  C
  C45      1.0000 0.00840  0.76470  0.74250  Biso   1.000  C
  C46      1.0000 0.23530  0.00840  0.24250  Biso   1.000  C
  C47      1.0000 0.99160  0.23530  0.74250  Biso   1.000  C
  C48      1.0000 0.76470  0.99160  0.24250  Biso   1.000  C
  H49      1.0000 0.49980  0.28850  0.78120  Biso   1.000  H
  H50      1.0000 0.71150  0.49980  0.28120  Biso   1.000  H
  H51      1.0000 0.50020  0.71150  0.78120  Biso   1.000  H
  H52      1.0000 0.28850  0.50020  0.28120  Biso   1.000  H
  H53      1.0000 0.00020  0.78850  0.78120  Biso   1.000  H
  H54      1.0000 0.21150  0.00020  0.28120  Biso   1.000  H
  H55      1.0000 0.99980  0.21150  0.78120  Biso   1.000  H
  H56      1.0000 0.78850  0.99980  0.28120  Biso   1.000  H
  N33      1.0000 0.62790  0.08990  0.53830  Biso   1.000  N
  N34      1.0000 0.91010  0.62790  0.03830  Biso   1.000  N
  N35      1.0000 0.37210  0.91010  0.53830  Biso   1.000  N
  N36      1.0000 0.08990  0.37210  0.03830  Biso   1.000  N
  N37      1.0000 0.87210  0.58990  0.53830  Biso   1.000  N
  N38      1.0000 0.41010  0.87210  0.03830  Biso   1.000  N
  N39      1.0000 0.12790  0.41010  0.53830  Biso   1.000  N
  N40      1.0000 0.58990  0.12790  0.03830  Biso   1.000  N
  N41      1.0000 0.68540  0.06100  0.55870  Biso   1.000  N
  N42      1.0000 0.93900  0.68540  0.05870  Biso   1.000  N
  N43      1.0000 0.31460  0.93900  0.55870  Biso   1.000  N
  N44      1.0000 0.06100  0.31460  0.05870  Biso   1.000  N
  N45      1.0000 0.81460  0.56100  0.55870  Biso   1.000  N
  N46      1.0000 0.43900  0.81460  0.05870  Biso   1.000  N
  N47      1.0000 0.18540  0.43900  0.55870  Biso   1.000  N
  N48      1.0000 0.56100  0.18540  0.05870  Biso   1.000  N
  C49      1.0000 0.71440  0.02200  0.51030  Biso   1.000  C
  C50      1.0000 0.97800  0.71440  0.01030  Biso   1.000  C
  C51      1.0000 0.28560  0.97800  0.51030  Biso   1.000  C
  C52      1.0000 0.02200  0.28560  0.01030  Biso   1.000  C
  C53      1.0000 0.78560  0.52200  0.51030  Biso   1.000  C
  C54      1.0000 0.47800  0.78560  0.01030  Biso   1.000  C
  C55      1.0000 0.21440  0.47800  0.51030  Biso   1.000  C
  C56      1.0000 0.52200  0.21440  0.01030  Biso   1.000  C
  H57      1.0000 0.75520  0.99450  0.51360  Biso   1.000  H
  H58      1.0000 0.00550  0.75520  0.01360  Biso   1.000  H
  H59      1.0000 0.24480  0.00550  0.51360  Biso   1.000  H
  H60      1.0000 0.99450  0.24480  0.01360  Biso   1.000  H
  H61      1.0000 0.74480  0.49450  0.51360  Biso   1.000  H
  H62      1.0000 0.50550  0.74480  0.01360  Biso   1.000  H
  H63      1.0000 0.25520  0.50550  0.51360  Biso   1.000  H
  H64      1.0000 0.49450  0.25520  0.01360  Biso   1.000  H
  C57      1.0000 0.67420  0.02950  0.45680  Biso   1.000  C
  C58      1.0000 0.97050  0.67420  0.95680  Biso   1.000  C
  C59      1.0000 0.32580  0.97050  0.45680  Biso   1.000  C
  C60      1.0000 0.02950  0.32580  0.95680  Biso   1.000  C
  C61      1.0000 0.82580  0.52950  0.45680  Biso   1.000  C
  C62      1.0000 0.47050  0.82580  0.95680  Biso   1.000  C
  C63      1.0000 0.17420  0.47050  0.45680  Biso   1.000  C
  C64      1.0000 0.52950  0.17420  0.95680  Biso   1.000  C
  H65      1.0000 0.68140  0.00880  0.41650  Biso   1.000  H
  H66      1.0000 0.99120  0.68140  0.91650  Biso   1.000  H
  H67      1.0000 0.31860  0.99120  0.41650  Biso   1.000  H
  H68      1.0000 0.00880  0.31860  0.91650  Biso   1.000  H
  H69      1.0000 0.81860  0.50880  0.41650  Biso   1.000  H
  H70      1.0000 0.49120  0.81860  0.91650  Biso   1.000  H
  H71      1.0000 0.18140  0.49120  0.41650  Biso   1.000  H
  H72      1.0000 0.50880  0.18140  0.91650  Biso   1.000  H
  C65      1.0000 0.61810  0.07630  0.47560  Biso   1.000  C
  C66      1.0000 0.92370  0.61810  0.97560  Biso   1.000  C
  C67      1.0000 0.38190  0.92370  0.47560  Biso   1.000  C
  C68      1.0000 0.07630  0.38190  0.97560  Biso   1.000  C
  C69      1.0000 0.88190  0.57630  0.47560  Biso   1.000  C
  C70      1.0000 0.42370  0.88190  0.97560  Biso   1.000  C
  C71      1.0000 0.11810  0.42370  0.47560  Biso   1.000  C
  C72      1.0000 0.57630  0.11810  0.97560  Biso   1.000  C
  H73      1.0000 0.58210  0.09370  0.44930  Biso   1.000  H
  H74      1.0000 0.90630  0.58210  0.94930  Biso   1.000  H
  H75      1.0000 0.41790  0.90630  0.44930  Biso   1.000  H
  H76      1.0000 0.09370  0.41790  0.94930  Biso   1.000  H
  H77      1.0000 0.91790  0.59370  0.44930  Biso   1.000  H
  H78      1.0000 0.40630  0.91790  0.94930  Biso   1.000  H
  H79      1.0000 0.08210  0.40630  0.44930  Biso   1.000  H
  H80      1.0000 0.59370  0.08210  0.94930  Biso   1.000  H
  N49      1.0000 0.66490  0.28230  0.78860  Biso   1.000  N
  N50      1.0000 0.71770  0.66490  0.28860  Biso   1.000  N
  N51      1.0000 0.33510  0.71770  0.78860  Biso   1.000  N
  N52      1.0000 0.28230  0.33510  0.28860  Biso   1.000  N
  N53      1.0000 0.83510  0.78230  0.78860  Biso   1.000  N
  N54      1.0000 0.21770  0.83510  0.28860  Biso   1.000  N
  N55      1.0000 0.16490  0.21770  0.78860  Biso   1.000  N
  N56      1.0000 0.78230  0.16490  0.28860  Biso   1.000  N
  C73      1.0000 0.72710  0.31840  0.77400  Biso   1.000  C
  C74      1.0000 0.68160  0.72710  0.27400  Biso   1.000  C
  C75      1.0000 0.27290  0.68160  0.77400  Biso   1.000  C
  C76      1.0000 0.31840  0.27290  0.27400  Biso   1.000  C
  C77      1.0000 0.77290  0.81840  0.77400  Biso   1.000  C
  C78      1.0000 0.18160  0.77290  0.27400  Biso   1.000  C
  C79      1.0000 0.22710  0.18160  0.77400  Biso   1.000  C
  C80      1.0000 0.81840  0.22710  0.27400  Biso   1.000  C
  H81      1.0000 0.74910  0.31150  0.73410  Biso   1.000  H
  H82      1.0000 0.68850  0.74910  0.23410  Biso   1.000  H
  H83      1.0000 0.25090  0.68850  0.73410  Biso   1.000  H
  H84      1.0000 0.31150  0.25090  0.23410  Biso   1.000  H
  H85      1.0000 0.75090  0.81150  0.73410  Biso   1.000  H
  H86      1.0000 0.18850  0.75090  0.23410  Biso   1.000  H
  H87      1.0000 0.24910  0.18850  0.73410  Biso   1.000  H
  H88      1.0000 0.81150  0.24910  0.23410  Biso   1.000  H
  C81      1.0000 0.75660  0.36470  0.81890  Biso   1.000  C
  C82      1.0000 0.63530  0.75660  0.31890  Biso   1.000  C
  C83      1.0000 0.24340  0.63530  0.81890  Biso   1.000  C
  C84      1.0000 0.36470  0.24340  0.31890  Biso   1.000  C
  C85      1.0000 0.74340  0.86470  0.81890  Biso   1.000  C
  C86      1.0000 0.13530  0.74340  0.31890  Biso   1.000  C
  C87      1.0000 0.25660  0.13530  0.81890  Biso   1.000  C
  C88      1.0000 0.86470  0.25660  0.31890  Biso   1.000  C
  H89      1.0000 0.79830  0.38890  0.80900  Biso   1.000  H
  H90      1.0000 0.61110  0.79830  0.30900  Biso   1.000  H
  H91      1.0000 0.20170  0.61110  0.80900  Biso   1.000  H
  H92      1.0000 0.38890  0.20170  0.30900  Biso   1.000  H
  H93      1.0000 0.70170  0.88890  0.80900  Biso   1.000  H
  H94      1.0000 0.11110  0.70170  0.30900  Biso   1.000  H
  H95      1.0000 0.29830  0.11110  0.80900  Biso   1.000  H
  H96      1.0000 0.88890  0.29830  0.30900  Biso   1.000  H
  C89      1.0000 0.72390  0.37500  0.87850  Biso   1.000  C
  C90      1.0000 0.62500  0.72390  0.37850  Biso   1.000  C
  C91      1.0000 0.27610  0.62500  0.87850  Biso   1.000  C
  C92      1.0000 0.37500  0.27610  0.37850  Biso   1.000  C
  C93      1.0000 0.77610  0.87500  0.87850  Biso   1.000  C
  C94      1.0000 0.12500  0.77610  0.37850  Biso   1.000  C
  C95      1.0000 0.22390  0.12500  0.87850  Biso   1.000  C
  C96      1.0000 0.87500  0.22390  0.37850  Biso   1.000  C
  C97      1.0000 0.66160  0.33890  0.89320  Biso   1.000  C
  C98      1.0000 0.66110  0.66160  0.39320  Biso   1.000  C
  C99      1.0000 0.33840  0.66110  0.89320  Biso   1.000  C
  C100     1.0000 0.33890  0.33840  0.39320  Biso   1.000  C
  C101     1.0000 0.83840  0.83890  0.89320  Biso   1.000  C
  C102     1.0000 0.16110  0.83840  0.39320  Biso   1.000  C
  C103     1.0000 0.16160  0.16110  0.89320  Biso   1.000  C
  C104     1.0000 0.83890  0.16160  0.39320  Biso   1.000  C
  H97      1.0000 0.63970  0.34580  0.93300  Biso   1.000  H
  H98      1.0000 0.65420  0.63970  0.43300  Biso   1.000  H
  H99      1.0000 0.36030  0.65420  0.93300  Biso   1.000  H
  H100     1.0000 0.34580  0.36030  0.43300  Biso   1.000  H
  H101     1.0000 0.86030  0.84580  0.93300  Biso   1.000  H
  H102     1.0000 0.15420  0.86030  0.43300  Biso   1.000  H
  H103     1.0000 0.13970  0.15420  0.93300  Biso   1.000  H
  H104     1.0000 0.84580  0.13970  0.43300  Biso   1.000  H
  C105     1.0000 0.63210  0.29260  0.84820  Biso   1.000  C
  C106     1.0000 0.70740  0.63210  0.34820  Biso   1.000  C
  C107     1.0000 0.36790  0.70740  0.84820  Biso   1.000  C
  C108     1.0000 0.29260  0.36790  0.34820  Biso   1.000  C
  C109     1.0000 0.86790  0.79260  0.84820  Biso   1.000  C
  C110     1.0000 0.20740  0.86790  0.34820  Biso   1.000  C
  C111     1.0000 0.13210  0.20740  0.84820  Biso   1.000  C
  C112     1.0000 0.79260  0.13210  0.34820  Biso   1.000  C
  H105     1.0000 0.59050  0.26840  0.85810  Biso   1.000  H
  H106     1.0000 0.73160  0.59050  0.35810  Biso   1.000  H
  H107     1.0000 0.40950  0.73160  0.85810  Biso   1.000  H
  H108     1.0000 0.26840  0.40950  0.35810  Biso   1.000  H
  H109     1.0000 0.90950  0.76840  0.85810  Biso   1.000  H
  H110     1.0000 0.23160  0.90950  0.35810  Biso   1.000  H
  H111     1.0000 0.09050  0.23160  0.85810  Biso   1.000  H
  H112     1.0000 0.76840  0.09050  0.35810  Biso   1.000  H
  C113     1.0000 0.75840  0.41760  0.92910  Biso   1.000  C
  C114     1.0000 0.58240  0.75840  0.42910  Biso   1.000  C
  C115     1.0000 0.24160  0.58240  0.92910  Biso   1.000  C
  C116     1.0000 0.41760  0.24160  0.42910  Biso   1.000  C
  C117     1.0000 0.74160  0.91760  0.92910  Biso   1.000  C
  C118     1.0000 0.08240  0.74160  0.42910  Biso   1.000  C
  C119     1.0000 0.25840  0.08240  0.92910  Biso   1.000  C
  C120     1.0000 0.91760  0.25840  0.42910  Biso   1.000  C
  C121     1.0000 0.71590  0.46450  0.96370  Biso   1.000  C
  C122     1.0000 0.53550  0.71590  0.46370  Biso   1.000  C
  C123     1.0000 0.28410  0.53550  0.96370  Biso   1.000  C
  C124     1.0000 0.46450  0.28410  0.46370  Biso   1.000  C
  C125     1.0000 0.78410  0.96450  0.96370  Biso   1.000  C
  C126     1.0000 0.03550  0.78410  0.46370  Biso   1.000  C
  C127     1.0000 0.21590  0.03550  0.96370  Biso   1.000  C
  C128     1.0000 0.96450  0.21590  0.46370  Biso   1.000  C
  H113     1.0000 0.66750  0.46690  0.95510  Biso   1.000  H
  H114     1.0000 0.53310  0.66750  0.45510  Biso   1.000  H
  H115     1.0000 0.33250  0.53310  0.95510  Biso   1.000  H
  H116     1.0000 0.46690  0.33250  0.45510  Biso   1.000  H
  H117     1.0000 0.83250  0.96690  0.95510  Biso   1.000  H
  H118     1.0000 0.03310  0.83250  0.45510  Biso   1.000  H
  H119     1.0000 0.16750  0.03310  0.95510  Biso   1.000  H
  H120     1.0000 0.96690  0.16750  0.45510  Biso   1.000  H
  C129     1.0000 0.74560  0.50760  0.01110  Biso   1.000  C
  C130     1.0000 0.49240  0.74560  0.51110  Biso   1.000  C
  C131     1.0000 0.25440  0.49240  0.01110  Biso   1.000  C
  C132     1.0000 0.50760  0.25440  0.51110  Biso   1.000  C
  C133     1.0000 0.75440  0.00760  0.01110  Biso   1.000  C
  C134     1.0000 0.99240  0.75440  0.51110  Biso   1.000  C
  C135     1.0000 0.24560  0.99240  0.01110  Biso   1.000  C
  C136     1.0000 0.00760  0.24560  0.51110  Biso   1.000  C
  H121     1.0000 0.71710  0.53890  0.03420  Biso   1.000  H
  H122     1.0000 0.46110  0.71710  0.53420  Biso   1.000  H
  H123     1.0000 0.28290  0.46110  0.03420  Biso   1.000  H
  H124     1.0000 0.53890  0.28290  0.53420  Biso   1.000  H
  H125     1.0000 0.78290  0.03890  0.03420  Biso   1.000  H
  H126     1.0000 0.96110  0.78290  0.53420  Biso   1.000  H
  H127     1.0000 0.21710  0.96110  0.03420  Biso   1.000  H
  H128     1.0000 0.03890  0.21710  0.53420  Biso   1.000  H
  N57      1.0000 0.81780  0.50390  0.02390  Biso   1.000  N
  N58      1.0000 0.49610  0.81780  0.52390  Biso   1.000  N
  N59      1.0000 0.18220  0.49610  0.02390  Biso   1.000  N
  N60      1.0000 0.50390  0.18220  0.52390  Biso   1.000  N
  N61      1.0000 0.68220  0.00390  0.02390  Biso   1.000  N
  N62      1.0000 0.99610  0.68220  0.52390  Biso   1.000  N
  N63      1.0000 0.31780  0.99610  0.02390  Biso   1.000  N
  N64      1.0000 0.00390  0.31780  0.52390  Biso   1.000  N
  C137     1.0000 0.86040  0.45710  0.98930  Biso   1.000  C
  C138     1.0000 0.54290  0.86040  0.48930  Biso   1.000  C
  C139     1.0000 0.13960  0.54290  0.98930  Biso   1.000  C
  C140     1.0000 0.45710  0.13960  0.48930  Biso   1.000  C
  C141     1.0000 0.63960  0.95710  0.98930  Biso   1.000  C
  C142     1.0000 0.04290  0.63960  0.48930  Biso   1.000  C
  C143     1.0000 0.36040  0.04290  0.98930  Biso   1.000  C
  C144     1.0000 0.95710  0.36040  0.48930  Biso   1.000  C
  H129     1.0000 0.90880  0.45470  0.99790  Biso   1.000  H
  H130     1.0000 0.54530  0.90880  0.49790  Biso   1.000  H
  H131     1.0000 0.09120  0.54530  0.99790  Biso   1.000  H
  H132     1.0000 0.45470  0.09120  0.49790  Biso   1.000  H
  H133     1.0000 0.59120  0.95470  0.99790  Biso   1.000  H
  H134     1.0000 0.04530  0.59120  0.49790  Biso   1.000  H
  H135     1.0000 0.40880  0.04530  0.99790  Biso   1.000  H
  H136     1.0000 0.95470  0.40880  0.49790  Biso   1.000  H
  C145     1.0000 0.83070  0.41400  0.94200  Biso   1.000  C
  C146     1.0000 0.58600  0.83070  0.44200  Biso   1.000  C
  C147     1.0000 0.16930  0.58600  0.94200  Biso   1.000  C
  C148     1.0000 0.41400  0.16930  0.44200  Biso   1.000  C
  C149     1.0000 0.66930  0.91400  0.94200  Biso   1.000  C
  C150     1.0000 0.08600  0.66930  0.44200  Biso   1.000  C
  C151     1.0000 0.33070  0.08600  0.94200  Biso   1.000  C
  C152     1.0000 0.91400  0.33070  0.44200  Biso   1.000  C
  H137     1.0000 0.85920  0.38270  0.91880  Biso   1.000  H
  H138     1.0000 0.61730  0.85920  0.41880  Biso   1.000  H
  H139     1.0000 0.14080  0.61730  0.91880  Biso   1.000  H
  H140     1.0000 0.38270  0.14080  0.41880  Biso   1.000  H
  H141     1.0000 0.64080  0.88270  0.91880  Biso   1.000  H
  H142     1.0000 0.11730  0.64080  0.41880  Biso   1.000  H
  H143     1.0000 0.35920  0.11730  0.91880  Biso   1.000  H
  H144     1.0000 0.88270  0.35920  0.41880  Biso   1.000  H
  N65      1.0000 0.81680  0.03940  0.62670  Biso   1.000  N
  N66      1.0000 0.96060  0.81680  0.12670  Biso   1.000  N
  N67      1.0000 0.18320  0.96060  0.62670  Biso   1.000  N
  N68      1.0000 0.03940  0.18320  0.12670  Biso   1.000  N
  N69      1.0000 0.68320  0.53940  0.62670  Biso   1.000  N
  N70      1.0000 0.46060  0.68320  0.12670  Biso   1.000  N
  N71      1.0000 0.31680  0.46060  0.62670  Biso   1.000  N
  N72      1.0000 0.53940  0.31680  0.12670  Biso   1.000  N
  C153     1.0000 0.86460  0.09220  0.60940  Biso   1.000  C
  C154     1.0000 0.90780  0.86460  0.10940  Biso   1.000  C
  C155     1.0000 0.13540  0.90780  0.60940  Biso   1.000  C
  C156     1.0000 0.09220  0.13540  0.10940  Biso   1.000  C
  C157     1.0000 0.63540  0.59220  0.60940  Biso   1.000  C
  C158     1.0000 0.40780  0.63540  0.10940  Biso   1.000  C
  C159     1.0000 0.36460  0.40780  0.60940  Biso   1.000  C
  C160     1.0000 0.59220  0.36460  0.10940  Biso   1.000  C
  H145     1.0000 0.84840  0.13760  0.59990  Biso   1.000  H
  H146     1.0000 0.86240  0.84840  0.09990  Biso   1.000  H
  H147     1.0000 0.15160  0.86240  0.59990  Biso   1.000  H
  H148     1.0000 0.13760  0.15160  0.09990  Biso   1.000  H
  H149     1.0000 0.65160  0.63760  0.59990  Biso   1.000  H
  H150     1.0000 0.36240  0.65160  0.09990  Biso   1.000  H
  H151     1.0000 0.34840  0.36240  0.59990  Biso   1.000  H
  H152     1.0000 0.63760  0.34840  0.09990  Biso   1.000  H
  C161     1.0000 0.93670  0.07710  0.60620  Biso   1.000  C
  C162     1.0000 0.92290  0.93670  0.10620  Biso   1.000  C
  C163     1.0000 0.06330  0.92290  0.60620  Biso   1.000  C
  C164     1.0000 0.07710  0.06330  0.10620  Biso   1.000  C
  C165     1.0000 0.56330  0.57710  0.60620  Biso   1.000  C
  C166     1.0000 0.42290  0.56330  0.10620  Biso   1.000  C
  C167     1.0000 0.43670  0.42290  0.60620  Biso   1.000  C
  C168     1.0000 0.57710  0.43670  0.10620  Biso   1.000  C
  H153     1.0000 0.96870  0.11240  0.59460  Biso   1.000  H
  H154     1.0000 0.88760  0.96870  0.09460  Biso   1.000  H
  H155     1.0000 0.03130  0.88760  0.59460  Biso   1.000  H
  H156     1.0000 0.11240  0.03130  0.09460  Biso   1.000  H
  H157     1.0000 0.53130  0.61240  0.59460  Biso   1.000  H
  H158     1.0000 0.38760  0.53130  0.09460  Biso   1.000  H
  H159     1.0000 0.46870  0.38760  0.59460  Biso   1.000  H
  H160     1.0000 0.61240  0.46870  0.09460  Biso   1.000  H
  C169     1.0000 0.96090  0.00920  0.62030  Biso   1.000  C
  C170     1.0000 0.99080  0.96090  0.12030  Biso   1.000  C
  C171     1.0000 0.03910  0.99080  0.62030  Biso   1.000  C
  C172     1.0000 0.00920  0.03910  0.12030  Biso   1.000  C
  C173     1.0000 0.53910  0.50920  0.62030  Biso   1.000  C
  C174     1.0000 0.49080  0.53910  0.12030  Biso   1.000  C
  C175     1.0000 0.46090  0.49080  0.62030  Biso   1.000  C
  C176     1.0000 0.50920  0.46090  0.12030  Biso   1.000  C
  C177     1.0000 0.91310  0.95640  0.63760  Biso   1.000  C
  C178     1.0000 0.04360  0.91310  0.13760  Biso   1.000  C
  C179     1.0000 0.08690  0.04360  0.63760  Biso   1.000  C
  C180     1.0000 0.95640  0.08690  0.13760  Biso   1.000  C
  C181     1.0000 0.58690  0.45640  0.63760  Biso   1.000  C
  C182     1.0000 0.54360  0.58690  0.13760  Biso   1.000  C
  C183     1.0000 0.41310  0.54360  0.63760  Biso   1.000  C
  C184     1.0000 0.45640  0.41310  0.13760  Biso   1.000  C
  H161     1.0000 0.92930  0.91100  0.64710  Biso   1.000  H
  H162     1.0000 0.08900  0.92930  0.14710  Biso   1.000  H
  H163     1.0000 0.07070  0.08900  0.64710  Biso   1.000  H
  H164     1.0000 0.91100  0.07070  0.14710  Biso   1.000  H
  H165     1.0000 0.57070  0.41100  0.64710  Biso   1.000  H
  H166     1.0000 0.58900  0.57070  0.14710  Biso   1.000  H
  H167     1.0000 0.42930  0.58900  0.64710  Biso   1.000  H
  H168     1.0000 0.41100  0.42930  0.14710  Biso   1.000  H
  C185     1.0000 0.84100  0.97150  0.64080  Biso   1.000  C
  C186     1.0000 0.02850  0.84100  0.14080  Biso   1.000  C
  C187     1.0000 0.15900  0.02850  0.64080  Biso   1.000  C
  C188     1.0000 0.97150  0.15900  0.14080  Biso   1.000  C
  C189     1.0000 0.65900  0.47150  0.64080  Biso   1.000  C
  C190     1.0000 0.52850  0.65900  0.14080  Biso   1.000  C
  C191     1.0000 0.34100  0.52850  0.64080  Biso   1.000  C
  C192     1.0000 0.47150  0.34100  0.14080  Biso   1.000  C
  H169     1.0000 0.80900  0.93620  0.65240  Biso   1.000  H
  H170     1.0000 0.06380  0.80900  0.15240  Biso   1.000  H
  H171     1.0000 0.19100  0.06380  0.65240  Biso   1.000  H
  H172     1.0000 0.93620  0.19100  0.15240  Biso   1.000  H
  H173     1.0000 0.69100  0.43620  0.65240  Biso   1.000  H
  H174     1.0000 0.56380  0.69100  0.15240  Biso   1.000  H
  H175     1.0000 0.30900  0.56380  0.65240  Biso   1.000  H
  H176     1.0000 0.43620  0.30900  0.15240  Biso   1.000  H
  S1       1.0000 0.73180  0.27710  0.59250  Biso   1.000  S
  S2       1.0000 0.72290  0.73180  0.09250  Biso   1.000  S
  S3       1.0000 0.26820  0.72290  0.59250  Biso   1.000  S
  S4       1.0000 0.27710  0.26820  0.09250  Biso   1.000  S
  S5       1.0000 0.76820  0.77710  0.59250  Biso   1.000  S
  S6       1.0000 0.22290  0.76820  0.09250  Biso   1.000  S
  S7       1.0000 0.23180  0.22290  0.59250  Biso   1.000  S
  S8       1.0000 0.77710  0.23180  0.09250  Biso   1.000  S
  O9       1.0000 0.66740  0.26250  0.61910  Biso   1.000  O
  O10      1.0000 0.73750  0.66740  0.11910  Biso   1.000  O
  O11      1.0000 0.33260  0.73750  0.61910  Biso   1.000  O
  O12      1.0000 0.26250  0.33260  0.11910  Biso   1.000  O
  O13      1.0000 0.83260  0.76250  0.61910  Biso   1.000  O
  O14      1.0000 0.23750  0.83260  0.11910  Biso   1.000  O
  O15      1.0000 0.16740  0.23750  0.61910  Biso   1.000  O
  O16      1.0000 0.76250  0.16740  0.11910  Biso   1.000  O
  O17      1.0000 0.76890  0.33650  0.61500  Biso   1.000  O
  O18      1.0000 0.66350  0.76890  0.11500  Biso   1.000  O
  O19      1.0000 0.23110  0.66350  0.61500  Biso   1.000  O
  O20      1.0000 0.33650  0.23110  0.11500  Biso   1.000  O
  O21      1.0000 0.73110  0.83650  0.61500  Biso   1.000  O
  O22      1.0000 0.16350  0.73110  0.11500  Biso   1.000  O
  O23      1.0000 0.26890  0.16350  0.61500  Biso   1.000  O
  O24      1.0000 0.83650  0.26890  0.11500  Biso   1.000  O
  O25      1.0000 0.77950  0.21710  0.57230  Biso   1.000  O
  O26      1.0000 0.78290  0.77950  0.07230  Biso   1.000  O
  O27      1.0000 0.22050  0.78290  0.57230  Biso   1.000  O
  O28      1.0000 0.21710  0.22050  0.07230  Biso   1.000  O
  O29      1.0000 0.72050  0.71710  0.57230  Biso   1.000  O
  O30      1.0000 0.28290  0.72050  0.07230  Biso   1.000  O
  O31      1.0000 0.27950  0.28290  0.57230  Biso   1.000  O
  O32      1.0000 0.71710  0.27950  0.07230  Biso   1.000  O
  C193     1.0000 0.70500  0.29460  0.51420  Biso   1.000  C
  C194     1.0000 0.70540  0.70500  0.01420  Biso   1.000  C
  C195     1.0000 0.29500  0.70540  0.51420  Biso   1.000  C
  C196     1.0000 0.29460  0.29500  0.01420  Biso   1.000  C
  C197     1.0000 0.79500  0.79460  0.51420  Biso   1.000  C
  C198     1.0000 0.20540  0.79500  0.01420  Biso   1.000  C
  C199     1.0000 0.20500  0.20540  0.51420  Biso   1.000  C
  C200     1.0000 0.79460  0.20500  0.01420  Biso   1.000  C
  F1       1.0000 0.66250  0.35370  0.51220  Biso   1.000  F
  F2       1.0000 0.64630  0.66250  0.01220  Biso   1.000  F
  F3       1.0000 0.33750  0.64630  0.51220  Biso   1.000  F
  F4       1.0000 0.35370  0.33750  0.01220  Biso   1.000  F
  F5       1.0000 0.83750  0.85370  0.51220  Biso   1.000  F
  F6       1.0000 0.14630  0.83750  0.01220  Biso   1.000  F
  F7       1.0000 0.16250  0.14630  0.51220  Biso   1.000  F
  F8       1.0000 0.85370  0.16250  0.01220  Biso   1.000  F
  F9       1.0000 0.75450  0.32590  0.47730  Biso   1.000  F
  F10      1.0000 0.67410  0.75450  0.97730  Biso   1.000  F
  F11      1.0000 0.24550  0.67410  0.47730  Biso   1.000  F
  F12      1.0000 0.32590  0.24550  0.97730  Biso   1.000  F
  F13      1.0000 0.74550  0.82590  0.47730  Biso   1.000  F
  F14      1.0000 0.17410  0.74550  0.97730  Biso   1.000  F
  F15      1.0000 0.25450  0.17410  0.47730  Biso   1.000  F
  F16      1.0000 0.82590  0.25450  0.97730  Biso   1.000  F
  F17      1.0000 0.67300  0.24540  0.48200  Biso   1.000  F
  F18      1.0000 0.75460  0.67300  0.98200  Biso   1.000  F
  F19      1.0000 0.32700  0.75460  0.48200  Biso   1.000  F
  F20      1.0000 0.24540  0.32700  0.98200  Biso   1.000  F
  F21      1.0000 0.82700  0.74540  0.48200  Biso   1.000  F
  F22      1.0000 0.25460  0.82700  0.98200  Biso   1.000  F
  F23      1.0000 0.17300  0.25460  0.48200  Biso   1.000  F
  F24      1.0000 0.74540  0.17300  0.98200  Biso   1.000  F
  S9       1.0000 0.50000  0.50000  0.92230  Biso   1.000  S
  S10      1.0000 0.50000  0.50000  0.42230  Biso   1.000  S
  S11      1.0000 0.00000  0.00000  0.92230  Biso   1.000  S
  S12      1.0000 0.00000  0.00000  0.42230  Biso   1.000  S
  O33      1.0000 0.49800  0.42620  0.92500  Biso   1.000  O
  O34      1.0000 0.57380  0.49800  0.42500  Biso   1.000  O
  O35      1.0000 0.50200  0.57380  0.92500  Biso   1.000  O
  O36      1.0000 0.42620  0.50200  0.42500  Biso   1.000  O
  O37      1.0000 0.00200  0.92620  0.92500  Biso   1.000  O
  O38      1.0000 0.07380  0.00200  0.42500  Biso   1.000  O
  O39      1.0000 0.99800  0.07380  0.92500  Biso   1.000  O
  O40      1.0000 0.92620  0.99800  0.42500  Biso   1.000  O
  O41      1.0000 0.44700  0.53500  0.95500  Biso   1.000  O
  O42      1.0000 0.46500  0.44700  0.45500  Biso   1.000  O
  O43      1.0000 0.55300  0.46500  0.95500  Biso   1.000  O
  O44      1.0000 0.53500  0.55300  0.45500  Biso   1.000  O
  O45      1.0000 0.05300  0.03500  0.95500  Biso   1.000  O
  O46      1.0000 0.96500  0.05300  0.45500  Biso   1.000  O
  O47      1.0000 0.94700  0.96500  0.95500  Biso   1.000  O
  O48      1.0000 0.03500  0.94700  0.45500  Biso   1.000  O
  O49      1.0000 0.57070  0.52700  0.94200  Biso   1.000  O
  O50      1.0000 0.47300  0.57070  0.44200  Biso   1.000  O
  O51      1.0000 0.42930  0.47300  0.94200  Biso   1.000  O
  O52      1.0000 0.52700  0.42930  0.44200  Biso   1.000  O
  O53      1.0000 0.92930  0.02700  0.94200  Biso   1.000  O
  O54      1.0000 0.97300  0.92930  0.44200  Biso   1.000  O
  O55      1.0000 0.07070  0.97300  0.94200  Biso   1.000  O
  O56      1.0000 0.02700  0.07070  0.44200  Biso   1.000  O
  C201     1.0000 0.50000  0.50000  0.83500  Biso   1.000  C
  C202     1.0000 0.50000  0.50000  0.33500  Biso   1.000  C
  C203     1.0000 0.00000  0.00000  0.83500  Biso   1.000  C
  C204     1.0000 0.00000  0.00000  0.33500  Biso   1.000  C
  F25      1.0000 0.47700  0.43060  0.81990  Biso   1.000  F
  F26      1.0000 0.56940  0.47700  0.31990  Biso   1.000  F
  F27      1.0000 0.52300  0.56940  0.81990  Biso   1.000  F
  F28      1.0000 0.43060  0.52300  0.31990  Biso   1.000  F
  F29      1.0000 0.02300  0.93060  0.81990  Biso   1.000  F
  F30      1.0000 0.06940  0.02300  0.31990  Biso   1.000  F
  F31      1.0000 0.97700  0.06940  0.81990  Biso   1.000  F
  F32      1.0000 0.93060  0.97700  0.31990  Biso   1.000  F
  F33      1.0000 0.44800  0.54700  0.82000  Biso   1.000  F
  F34      1.0000 0.45300  0.44800  0.32000  Biso   1.000  F
  F35      1.0000 0.55200  0.45300  0.82000  Biso   1.000  F
  F36      1.0000 0.54700  0.55200  0.32000  Biso   1.000  F
  F37      1.0000 0.05200  0.04700  0.82000  Biso   1.000  F
  F38      1.0000 0.95300  0.05200  0.32000  Biso   1.000  F
  F39      1.0000 0.94800  0.95300  0.82000  Biso   1.000  F
  F40      1.0000 0.04700  0.94800  0.32000  Biso   1.000  F
  F41      1.0000 0.56480  0.51200  0.82300  Biso   1.000  F
  F42      1.0000 0.48800  0.56480  0.32300  Biso   1.000  F
  F43      1.0000 0.43520  0.48800  0.82300  Biso   1.000  F
  F44      1.0000 0.51200  0.43520  0.32300  Biso   1.000  F
  F45      1.0000 0.93520  0.01200  0.82300  Biso   1.000  F
  F46      1.0000 0.98800  0.93520  0.32300  Biso   1.000  F
  F47      1.0000 0.06480  0.98800  0.82300  Biso   1.000  F
  F48      1.0000 0.01200  0.06480  0.32300  Biso   1.000  F
  S13      1.0000 0.52690  0.99460  0.27440  Biso   1.000  S
  S14      1.0000 0.00540  0.52690  0.77440  Biso   1.000  S
  S15      1.0000 0.47310  0.00540  0.27440  Biso   1.000  S
  S16      1.0000 0.99460  0.47310  0.77440  Biso   1.000  S
  S17      1.0000 0.97310  0.49460  0.27440  Biso   1.000  S
  S18      1.0000 0.50540  0.97310  0.77440  Biso   1.000  S
  S19      1.0000 0.02690  0.50540  0.27440  Biso   1.000  S
  S20      1.0000 0.49460  0.02690  0.77440  Biso   1.000  S
  O57      1.0000 0.58260  0.03590  0.29730  Biso   1.000  O
  O58      1.0000 0.96410  0.58260  0.79730  Biso   1.000  O
  O59      1.0000 0.41740  0.96410  0.29730  Biso   1.000  O
  O60      1.0000 0.03590  0.41740  0.79730  Biso   1.000  O
  O61      1.0000 0.91740  0.53590  0.29730  Biso   1.000  O
  O62      1.0000 0.46410  0.91740  0.79730  Biso   1.000  O
  O63      1.0000 0.08260  0.46410  0.29730  Biso   1.000  O
  O64      1.0000 0.53590  0.08260  0.79730  Biso   1.000  O
  O65      1.0000 0.54120  0.92430  0.26640  Biso   1.000  O
  O66      1.0000 0.07570  0.54120  0.76640  Biso   1.000  O
  O67      1.0000 0.45880  0.07570  0.26640  Biso   1.000  O
  O68      1.0000 0.92430  0.45880  0.76640  Biso   1.000  O
  O69      1.0000 0.95880  0.42430  0.26640  Biso   1.000  O
  O70      1.0000 0.57570  0.95880  0.76640  Biso   1.000  O
  O71      1.0000 0.04120  0.57570  0.26640  Biso   1.000  O
  O72      1.0000 0.42430  0.04120  0.76640  Biso   1.000  O
  O73      1.0000 0.50700  0.02820  0.21130  Biso   1.000  O
  O74      1.0000 0.97180  0.50700  0.71130  Biso   1.000  O
  O75      1.0000 0.49300  0.97180  0.21130  Biso   1.000  O
  O76      1.0000 0.02820  0.49300  0.71130  Biso   1.000  O
  O77      1.0000 0.99300  0.52820  0.21130  Biso   1.000  O
  O78      1.0000 0.47180  0.99300  0.71130  Biso   1.000  O
  O79      1.0000 0.00700  0.47180  0.21130  Biso   1.000  O
  O80      1.0000 0.52820  0.00700  0.71130  Biso   1.000  O
  C205     1.0000 0.45300  0.99380  0.33300  Biso   1.000  C
  C206     1.0000 0.00620  0.45300  0.83300  Biso   1.000  C
  C207     1.0000 0.54700  0.00620  0.33300  Biso   1.000  C
  C208     1.0000 0.99380  0.54700  0.83300  Biso   1.000  C
  C209     1.0000 0.04700  0.49380  0.33300  Biso   1.000  C
  C210     1.0000 0.50620  0.04700  0.83300  Biso   1.000  C
  C211     1.0000 0.95300  0.50620  0.33300  Biso   1.000  C
  C212     1.0000 0.49380  0.95300  0.83300  Biso   1.000  C
  F49      1.0000 0.50000  0.00000  0.38510  Biso   1.000  F
  F50      1.0000 0.00000  0.50000  0.88510  Biso   1.000  F
  F51      1.0000 0.00000  0.50000  0.38510  Biso   1.000  F
  F52      1.0000 0.50000  0.00000  0.88510  Biso   1.000  F
  F53      1.0000 0.57820  0.07160  0.33130  Biso   1.000  F
  F54      1.0000 0.92840  0.57820  0.83130  Biso   1.000  F
  F55      1.0000 0.42180  0.92840  0.33130  Biso   1.000  F
  F56      1.0000 0.07160  0.42180  0.83130  Biso   1.000  F
  F57      1.0000 0.92180  0.57160  0.33130  Biso   1.000  F
  F58      1.0000 0.42840  0.92180  0.83130  Biso   1.000  F
  F59      1.0000 0.07820  0.42840  0.33130  Biso   1.000  F
  F60      1.0000 0.57160  0.07820  0.83130  Biso   1.000  F
  F61      1.0000 0.58110  0.95030  0.31600  Biso   1.000  F
  F62      1.0000 0.04970  0.58110  0.81600  Biso   1.000  F
  F63      1.0000 0.41890  0.04970  0.31600  Biso   1.000  F
  F64      1.0000 0.95030  0.41890  0.81600  Biso   1.000  F
  F65      1.0000 0.91890  0.45030  0.31600  Biso   1.000  F
  F66      1.0000 0.54970  0.91890  0.81600  Biso   1.000  F
  F67      1.0000 0.08110  0.54970  0.31600  Biso   1.000  F
  F68      1.0000 0.45030  0.08110  0.81600  Biso   1.000  F
  O81      1.0000 0.66550  0.95050  0.67400  Biso   1.000  O
  O82      1.0000 0.04950  0.66550  0.17400  Biso   1.000  O
  O83      1.0000 0.33450  0.04950  0.67400  Biso   1.000  O
  O84      1.0000 0.95050  0.33450  0.17400  Biso   1.000  O
  O85      1.0000 0.83450  0.45050  0.67400  Biso   1.000  O
  O86      1.0000 0.54950  0.83450  0.17400  Biso   1.000  O
  O87      1.0000 0.16550  0.54950  0.67400  Biso   1.000  O
  O88      1.0000 0.45050  0.16550  0.17400  Biso   1.000  O
  H177     1.0000 0.69050  0.91710  0.65840  Biso   1.000  H
  H178     1.0000 0.08290  0.69050  0.15840  Biso   1.000  H
  H179     1.0000 0.30950  0.08290  0.65840  Biso   1.000  H
  H180     1.0000 0.91710  0.30950  0.15840  Biso   1.000  H
  H181     1.0000 0.80950  0.41710  0.65840  Biso   1.000  H
  H182     1.0000 0.58290  0.80950  0.15840  Biso   1.000  H
  H183     1.0000 0.19050  0.58290  0.65840  Biso   1.000  H
  H184     1.0000 0.41710  0.19050  0.15840  Biso   1.000  H
  H185     1.0000 0.66090  0.94470  0.71460  Biso   1.000  H
  H186     1.0000 0.05530  0.66090  0.21460  Biso   1.000  H
  H187     1.0000 0.33910  0.05530  0.71460  Biso   1.000  H
  H188     1.0000 0.94470  0.33910  0.21460  Biso   1.000  H
  H189     1.0000 0.83910  0.44470  0.71460  Biso   1.000  H
  H190     1.0000 0.55530  0.83910  0.21460  Biso   1.000  H
  H191     1.0000 0.16090  0.55530  0.71460  Biso   1.000  H
  H192     1.0000 0.44470  0.16090  0.21460  Biso   1.000  H
  O89      1.0000 0.97480  0.49300  0.09120  Biso   1.000  O
  O90      1.0000 0.50700  0.97480  0.59120  Biso   1.000  O
  O91      1.0000 0.02520  0.50700  0.09120  Biso   1.000  O
  O92      1.0000 0.49300  0.02520  0.59120  Biso   1.000  O
  O93      1.0000 0.52520  0.99300  0.09120  Biso   1.000  O
  O94      1.0000 0.00700  0.52520  0.59120  Biso   1.000  O
  O95      1.0000 0.47480  0.00700  0.09120  Biso   1.000  O
  O96      1.0000 0.99300  0.47480  0.59120  Biso   1.000  O
  H193     1.0000 0.96720  0.47710  0.05320  Biso   1.000  H
  H194     1.0000 0.52290  0.96720  0.55320  Biso   1.000  H
  H195     1.0000 0.03280  0.52290  0.05320  Biso   1.000  H
  H196     1.0000 0.47710  0.03280  0.55320  Biso   1.000  H
  H197     1.0000 0.53280  0.97710  0.05320  Biso   1.000  H
  H198     1.0000 0.02290  0.53280  0.55320  Biso   1.000  H
  H199     1.0000 0.46720  0.02290  0.05320  Biso   1.000  H
  H200     1.0000 0.97710  0.46720  0.55320  Biso   1.000  H
  H201     1.0000 0.95950  0.45990  0.11540  Biso   1.000  H
  H202     1.0000 0.54010  0.95950  0.61540  Biso   1.000  H
  H203     1.0000 0.04050  0.54010  0.11540  Biso   1.000  H
  H204     1.0000 0.45990  0.04050  0.61540  Biso   1.000  H
  H205     1.0000 0.54050  0.95990  0.11540  Biso   1.000  H
  H206     1.0000 0.04010  0.54050  0.61540  Biso   1.000  H
  H207     1.0000 0.45950  0.04010  0.11540  Biso   1.000  H
  H208     1.0000 0.95990  0.45950  0.61540  Biso   1.000  H
