data_image0
_cell_length_a       18.9711
_cell_length_b       18.9711
_cell_length_c       44.954
_cell_angle_alpha    90
_cell_angle_beta     90
_cell_angle_gamma    120

_symmetry_space_group_name_H-M    "P 1"
_symmetry_int_tables_number       1

loop_
  _symmetry_equiv_pos_as_xyz
  'x, y, z'

loop_
  _atom_site_label
  _atom_site_occupancy
  _atom_site_fract_x
  _atom_site_fract_y
  _atom_site_fract_z
  _atom_site_thermal_displace_type
  _atom_site_B_iso_or_equiv
  _atom_site_type_symbol
  Cu1      1.0000 0.52224  0.47781  0.02507  Biso   1.000  Cu
  Cu2      1.0000 0.52219  0.04443  0.02507  Biso   1.000  Cu
  Cu3      1.0000 0.95557  0.47776  0.02507  Biso   1.000  Cu
  Cu4      1.0000 0.18891  0.81114  0.35840  Biso   1.000  Cu
  Cu5      1.0000 0.18886  0.37776  0.35840  Biso   1.000  Cu
  Cu6      1.0000 0.62224  0.81109  0.35840  Biso   1.000  Cu
  Cu7      1.0000 0.85557  0.14448  0.69173  Biso   1.000  Cu
  Cu8      1.0000 0.85552  0.71110  0.69173  Biso   1.000  Cu
  Cu9      1.0000 0.28890  0.14443  0.69173  Biso   1.000  Cu
  Cu10     1.0000 0.47776  0.52219  0.97493  Biso   1.000  Cu
  Cu11     1.0000 0.47781  0.95557  0.97493  Biso   1.000  Cu
  Cu12     1.0000 0.04443  0.52224  0.97493  Biso   1.000  Cu
  Cu13     1.0000 0.14443  0.85552  0.30827  Biso   1.000  Cu
  Cu14     1.0000 0.14448  0.28890  0.30827  Biso   1.000  Cu
  Cu15     1.0000 0.71110  0.85557  0.30827  Biso   1.000  Cu
  Cu16     1.0000 0.81109  0.18886  0.64160  Biso   1.000  Cu
  Cu17     1.0000 0.81114  0.62224  0.64160  Biso   1.000  Cu
  Cu18     1.0000 0.37776  0.18891  0.64160  Biso   1.000  Cu
  N1       1.0000 0.54110  0.45930  0.07178  Biso   1.000  N
  N2       1.0000 0.54070  0.08180  0.07178  Biso   1.000  N
  N3       1.0000 0.91820  0.45890  0.07178  Biso   1.000  N
  N4       1.0000 0.20777  0.79263  0.40511  Biso   1.000  N
  N5       1.0000 0.20737  0.41513  0.40511  Biso   1.000  N
  N6       1.0000 0.58487  0.79223  0.40511  Biso   1.000  N
  N7       1.0000 0.87443  0.12597  0.73845  Biso   1.000  N
  N8       1.0000 0.87403  0.74847  0.73845  Biso   1.000  N
  N9       1.0000 0.25153  0.12557  0.73845  Biso   1.000  N
  N10      1.0000 0.45890  0.54070  0.92822  Biso   1.000  N
  N11      1.0000 0.45930  0.91820  0.92822  Biso   1.000  N
  N12      1.0000 0.08180  0.54110  0.92822  Biso   1.000  N
  N13      1.0000 0.12557  0.87403  0.26155  Biso   1.000  N
  N14      1.0000 0.12597  0.25153  0.26155  Biso   1.000  N
  N15      1.0000 0.74847  0.87443  0.26155  Biso   1.000  N
  N16      1.0000 0.79223  0.20737  0.59489  Biso   1.000  N
  N17      1.0000 0.79263  0.58487  0.59489  Biso   1.000  N
  N18      1.0000 0.41513  0.20777  0.59489  Biso   1.000  N
  O1       1.0000 0.25830  0.37010  0.29894  Biso   1.000  O
  O2       1.0000 0.62990  0.88820  0.29894  Biso   1.000  O
  O3       1.0000 0.11180  0.74170  0.29894  Biso   1.000  O
  O4       1.0000 0.92497  0.70343  0.63227  Biso   1.000  O
  O5       1.0000 0.29657  0.22153  0.63227  Biso   1.000  O
  O6       1.0000 0.77847  0.07503  0.63227  Biso   1.000  O
  O7       1.0000 0.59163  0.03677  0.96561  Biso   1.000  O
  O8       1.0000 0.96323  0.55487  0.96561  Biso   1.000  O
  O9       1.0000 0.44513  0.40837  0.96561  Biso   1.000  O
  O10      1.0000 0.74170  0.62990  0.70106  Biso   1.000  O
  O11      1.0000 0.37010  0.11180  0.70106  Biso   1.000  O
  O12      1.0000 0.88820  0.25830  0.70106  Biso   1.000  O
  O13      1.0000 0.40837  0.96323  0.03439  Biso   1.000  O
  O14      1.0000 0.03677  0.44513  0.03439  Biso   1.000  O
  O15      1.0000 0.55487  0.59163  0.03439  Biso   1.000  O
  O16      1.0000 0.07503  0.29657  0.36773  Biso   1.000  O
  O17      1.0000 0.70343  0.77847  0.36773  Biso   1.000  O
  O18      1.0000 0.22153  0.92497  0.36773  Biso   1.000  O
  O19      1.0000 0.62980  0.74170  0.29893  Biso   1.000  O
  O20      1.0000 0.25830  0.88810  0.29893  Biso   1.000  O
  O21      1.0000 0.11190  0.37020  0.29893  Biso   1.000  O
  O22      1.0000 0.29647  0.07503  0.63226  Biso   1.000  O
  O23      1.0000 0.92497  0.22143  0.63226  Biso   1.000  O
  O24      1.0000 0.77857  0.70353  0.63226  Biso   1.000  O
  O25      1.0000 0.96313  0.40837  0.96560  Biso   1.000  O
  O26      1.0000 0.59163  0.55477  0.96560  Biso   1.000  O
  O27      1.0000 0.44523  0.03687  0.96560  Biso   1.000  O
  O28      1.0000 0.37020  0.25830  0.70107  Biso   1.000  O
  O29      1.0000 0.74170  0.11190  0.70107  Biso   1.000  O
  O30      1.0000 0.88810  0.62980  0.70107  Biso   1.000  O
  O31      1.0000 0.03687  0.59163  0.03440  Biso   1.000  O
  O32      1.0000 0.40837  0.44523  0.03440  Biso   1.000  O
  O33      1.0000 0.55477  0.96313  0.03440  Biso   1.000  O
  O34      1.0000 0.70353  0.92497  0.36774  Biso   1.000  O
  O35      1.0000 0.07503  0.77857  0.36774  Biso   1.000  O
  O36      1.0000 0.22143  0.29647  0.36774  Biso   1.000  O
  O37      1.0000 0.55345  0.70491  0.34002  Biso   1.000  O
  O38      1.0000 0.29509  0.84854  0.34002  Biso   1.000  O
  O39      1.0000 0.15146  0.44655  0.34002  Biso   1.000  O
  O40      1.0000 0.22012  0.03824  0.67335  Biso   1.000  O
  O41      1.0000 0.96176  0.18187  0.67335  Biso   1.000  O
  O42      1.0000 0.81813  0.77988  0.67335  Biso   1.000  O
  O43      1.0000 0.88678  0.37158  0.00669  Biso   1.000  O
  O44      1.0000 0.62842  0.51521  0.00669  Biso   1.000  O
  O45      1.0000 0.48479  0.11322  0.00669  Biso   1.000  O
  O46      1.0000 0.44655  0.29509  0.65998  Biso   1.000  O
  O47      1.0000 0.70491  0.15146  0.65998  Biso   1.000  O
  O48      1.0000 0.84854  0.55345  0.65998  Biso   1.000  O
  O49      1.0000 0.11322  0.62842  0.99331  Biso   1.000  O
  O50      1.0000 0.37158  0.48479  0.99331  Biso   1.000  O
  O51      1.0000 0.51521  0.88678  0.99331  Biso   1.000  O
  O52      1.0000 0.77988  0.96176  0.32665  Biso   1.000  O
  O53      1.0000 0.03824  0.81813  0.32665  Biso   1.000  O
  O54      1.0000 0.18187  0.22012  0.32665  Biso   1.000  O
  O55      1.0000 0.29509  0.44665  0.34007  Biso   1.000  O
  O56      1.0000 0.55335  0.84844  0.34007  Biso   1.000  O
  O57      1.0000 0.15156  0.70491  0.34007  Biso   1.000  O
  O58      1.0000 0.96176  0.77998  0.67340  Biso   1.000  O
  O59      1.0000 0.22002  0.18177  0.67340  Biso   1.000  O
  O60      1.0000 0.81823  0.03824  0.67340  Biso   1.000  O
  O61      1.0000 0.62842  0.11332  0.00674  Biso   1.000  O
  O62      1.0000 0.88668  0.51511  0.00674  Biso   1.000  O
  O63      1.0000 0.48489  0.37158  0.00674  Biso   1.000  O
  O64      1.0000 0.70491  0.55335  0.65993  Biso   1.000  O
  O65      1.0000 0.44665  0.15156  0.65993  Biso   1.000  O
  O66      1.0000 0.84844  0.29509  0.65993  Biso   1.000  O
  O67      1.0000 0.37158  0.88668  0.99326  Biso   1.000  O
  O68      1.0000 0.11332  0.48489  0.99326  Biso   1.000  O
  O69      1.0000 0.51511  0.62842  0.99326  Biso   1.000  O
  O70      1.0000 0.03824  0.22002  0.32660  Biso   1.000  O
  O71      1.0000 0.77998  0.81823  0.32660  Biso   1.000  O
  O72      1.0000 0.18177  0.96176  0.32660  Biso   1.000  O
  C1       1.0000 0.59740  0.52280  0.08710  Biso   1.000  C
  C2       1.0000 0.47720  0.07460  0.08710  Biso   1.000  C
  C3       1.0000 0.92540  0.40260  0.08710  Biso   1.000  C
  C4       1.0000 0.26407  0.85613  0.42043  Biso   1.000  C
  C5       1.0000 0.14387  0.40793  0.42043  Biso   1.000  C
  C6       1.0000 0.59207  0.73593  0.42043  Biso   1.000  C
  C7       1.0000 0.93073  0.18947  0.75377  Biso   1.000  C
  C8       1.0000 0.81053  0.74127  0.75377  Biso   1.000  C
  C9       1.0000 0.25873  0.06927  0.75377  Biso   1.000  C
  C10      1.0000 0.40260  0.47720  0.91290  Biso   1.000  C
  C11      1.0000 0.52280  0.92540  0.91290  Biso   1.000  C
  C12      1.0000 0.07460  0.59740  0.91290  Biso   1.000  C
  C13      1.0000 0.06927  0.81053  0.24623  Biso   1.000  C
  C14      1.0000 0.18947  0.25873  0.24623  Biso   1.000  C
  C15      1.0000 0.74127  0.93073  0.24623  Biso   1.000  C
  C16      1.0000 0.73593  0.14387  0.57957  Biso   1.000  C
  C17      1.0000 0.85613  0.59207  0.57957  Biso   1.000  C
  C18      1.0000 0.40793  0.26407  0.57957  Biso   1.000  C
  H1       1.0000 0.64290  0.56200  0.07700  Biso   1.000  H
  H2       1.0000 0.43800  0.08090  0.07700  Biso   1.000  H
  H3       1.0000 0.91910  0.35710  0.07700  Biso   1.000  H
  H4       1.0000 0.30957  0.89533  0.41033  Biso   1.000  H
  H5       1.0000 0.10467  0.41423  0.41033  Biso   1.000  H
  H6       1.0000 0.58577  0.69043  0.41033  Biso   1.000  H
  H7       1.0000 0.97623  0.22867  0.74367  Biso   1.000  H
  H8       1.0000 0.77133  0.74757  0.74367  Biso   1.000  H
  H9       1.0000 0.25243  0.02377  0.74367  Biso   1.000  H
  H10      1.0000 0.35710  0.43800  0.92300  Biso   1.000  H
  H11      1.0000 0.56200  0.91910  0.92300  Biso   1.000  H
  H12      1.0000 0.08090  0.64290  0.92300  Biso   1.000  H
  H13      1.0000 0.02377  0.77133  0.25633  Biso   1.000  H
  H14      1.0000 0.22867  0.25243  0.25633  Biso   1.000  H
  H15      1.0000 0.74757  0.97623  0.25633  Biso   1.000  H
  H16      1.0000 0.69043  0.10467  0.58967  Biso   1.000  H
  H17      1.0000 0.89533  0.58577  0.58967  Biso   1.000  H
  H18      1.0000 0.41423  0.30957  0.58967  Biso   1.000  H
  C19      1.0000 0.59160  0.53360  0.11736  Biso   1.000  C
  C20      1.0000 0.46640  0.05800  0.11736  Biso   1.000  C
  C21      1.0000 0.94200  0.40840  0.11736  Biso   1.000  C
  C22      1.0000 0.25827  0.86693  0.45069  Biso   1.000  C
  C23      1.0000 0.13307  0.39133  0.45069  Biso   1.000  C
  C24      1.0000 0.60867  0.74173  0.45069  Biso   1.000  C
  C25      1.0000 0.92493  0.20027  0.78403  Biso   1.000  C
  C26      1.0000 0.79973  0.72467  0.78403  Biso   1.000  C
  C27      1.0000 0.27533  0.07507  0.78403  Biso   1.000  C
  C28      1.0000 0.40840  0.46640  0.88264  Biso   1.000  C
  C29      1.0000 0.53360  0.94200  0.88264  Biso   1.000  C
  C30      1.0000 0.05800  0.59160  0.88264  Biso   1.000  C
  C31      1.0000 0.07507  0.79973  0.21597  Biso   1.000  C
  C32      1.0000 0.20027  0.27533  0.21597  Biso   1.000  C
  C33      1.0000 0.72467  0.92493  0.21597  Biso   1.000  C
  C34      1.0000 0.74173  0.13307  0.54931  Biso   1.000  C
  C35      1.0000 0.86693  0.60867  0.54931  Biso   1.000  C
  C36      1.0000 0.39133  0.25827  0.54931  Biso   1.000  C
  H19      1.0000 0.63240  0.57890  0.12710  Biso   1.000  H
  H20      1.0000 0.42110  0.05350  0.12710  Biso   1.000  H
  H21      1.0000 0.94650  0.36760  0.12710  Biso   1.000  H
  H22      1.0000 0.29907  0.91223  0.46043  Biso   1.000  H
  H23      1.0000 0.08777  0.38683  0.46043  Biso   1.000  H
  H24      1.0000 0.61317  0.70093  0.46043  Biso   1.000  H
  H25      1.0000 0.96573  0.24557  0.79377  Biso   1.000  H
  H26      1.0000 0.75443  0.72017  0.79377  Biso   1.000  H
  H27      1.0000 0.27983  0.03427  0.79377  Biso   1.000  H
  H28      1.0000 0.36760  0.42110  0.87290  Biso   1.000  H
  H29      1.0000 0.57890  0.94650  0.87290  Biso   1.000  H
  H30      1.0000 0.05350  0.63240  0.87290  Biso   1.000  H
  H31      1.0000 0.03427  0.75443  0.20623  Biso   1.000  H
  H32      1.0000 0.24557  0.27983  0.20623  Biso   1.000  H
  H33      1.0000 0.72017  0.96573  0.20623  Biso   1.000  H
  H34      1.0000 0.70093  0.08777  0.53957  Biso   1.000  H
  H35      1.0000 0.91223  0.61317  0.53957  Biso   1.000  H
  H36      1.0000 0.38683  0.29907  0.53957  Biso   1.000  H
  C37      1.0000 0.52410  0.47570  0.13285  Biso   1.000  C
  C38      1.0000 0.52430  0.04840  0.13285  Biso   1.000  C
  C39      1.0000 0.95160  0.47590  0.13285  Biso   1.000  C
  C40      1.0000 0.19077  0.80903  0.46618  Biso   1.000  C
  C41      1.0000 0.19097  0.38173  0.46618  Biso   1.000  C
  C42      1.0000 0.61827  0.80923  0.46618  Biso   1.000  C
  C43      1.0000 0.85743  0.14237  0.79952  Biso   1.000  C
  C44      1.0000 0.85763  0.71507  0.79952  Biso   1.000  C
  C45      1.0000 0.28493  0.14257  0.79952  Biso   1.000  C
  C46      1.0000 0.47590  0.52430  0.86715  Biso   1.000  C
  C47      1.0000 0.47570  0.95160  0.86715  Biso   1.000  C
  C48      1.0000 0.04840  0.52410  0.86715  Biso   1.000  C
  C49      1.0000 0.14257  0.85763  0.20048  Biso   1.000  C
  C50      1.0000 0.14237  0.28493  0.20048  Biso   1.000  C
  C51      1.0000 0.71507  0.85743  0.20048  Biso   1.000  C
  C52      1.0000 0.80923  0.19097  0.53382  Biso   1.000  C
  C53      1.0000 0.80903  0.61827  0.53382  Biso   1.000  C
  C54      1.0000 0.38173  0.19077  0.53382  Biso   1.000  C
  C55      1.0000 0.46640  0.40820  0.11733  Biso   1.000  C
  C56      1.0000 0.59180  0.05820  0.11733  Biso   1.000  C
  C57      1.0000 0.94180  0.53360  0.11733  Biso   1.000  C
  C58      1.0000 0.13307  0.74153  0.45066  Biso   1.000  C
  C59      1.0000 0.25847  0.39153  0.45066  Biso   1.000  C
  C60      1.0000 0.60847  0.86693  0.45066  Biso   1.000  C
  C61      1.0000 0.79973  0.07487  0.78400  Biso   1.000  C
  C62      1.0000 0.92513  0.72487  0.78400  Biso   1.000  C
  C63      1.0000 0.27513  0.20027  0.78400  Biso   1.000  C
  C64      1.0000 0.53360  0.59180  0.88267  Biso   1.000  C
  C65      1.0000 0.40820  0.94180  0.88267  Biso   1.000  C
  C66      1.0000 0.05820  0.46640  0.88267  Biso   1.000  C
  C67      1.0000 0.20027  0.92513  0.21600  Biso   1.000  C
  C68      1.0000 0.07487  0.27513  0.21600  Biso   1.000  C
  C69      1.0000 0.72487  0.79973  0.21600  Biso   1.000  C
  C70      1.0000 0.86693  0.25847  0.54934  Biso   1.000  C
  C71      1.0000 0.74153  0.60847  0.54934  Biso   1.000  C
  C72      1.0000 0.39153  0.13307  0.54934  Biso   1.000  C
  H37      1.0000 0.42100  0.36730  0.12700  Biso   1.000  H
  H38      1.0000 0.63270  0.05370  0.12700  Biso   1.000  H
  H39      1.0000 0.94630  0.57900  0.12700  Biso   1.000  H
  H40      1.0000 0.08767  0.70063  0.46033  Biso   1.000  H
  H41      1.0000 0.29937  0.38703  0.46033  Biso   1.000  H
  H42      1.0000 0.61297  0.91233  0.46033  Biso   1.000  H
  H43      1.0000 0.75433  0.03397  0.79367  Biso   1.000  H
  H44      1.0000 0.96603  0.72037  0.79367  Biso   1.000  H
  H45      1.0000 0.27963  0.24567  0.79367  Biso   1.000  H
  H46      1.0000 0.57900  0.63270  0.87300  Biso   1.000  H
  H47      1.0000 0.36730  0.94630  0.87300  Biso   1.000  H
  H48      1.0000 0.05370  0.42100  0.87300  Biso   1.000  H
  H49      1.0000 0.24567  0.96603  0.20633  Biso   1.000  H
  H50      1.0000 0.03397  0.27963  0.20633  Biso   1.000  H
  H51      1.0000 0.72037  0.75433  0.20633  Biso   1.000  H
  H52      1.0000 0.91233  0.29937  0.53967  Biso   1.000  H
  H53      1.0000 0.70063  0.61297  0.53967  Biso   1.000  H
  H54      1.0000 0.38703  0.08767  0.53967  Biso   1.000  H
  C73      1.0000 0.47740  0.40270  0.08703  Biso   1.000  C
  C74      1.0000 0.59730  0.07470  0.08703  Biso   1.000  C
  C75      1.0000 0.92530  0.52260  0.08703  Biso   1.000  C
  C76      1.0000 0.14407  0.73603  0.42036  Biso   1.000  C
  C77      1.0000 0.26397  0.40803  0.42036  Biso   1.000  C
  C78      1.0000 0.59197  0.85593  0.42036  Biso   1.000  C
  C79      1.0000 0.81073  0.06937  0.75370  Biso   1.000  C
  C80      1.0000 0.93063  0.74137  0.75370  Biso   1.000  C
  C81      1.0000 0.25863  0.18927  0.75370  Biso   1.000  C
  C82      1.0000 0.52260  0.59730  0.91297  Biso   1.000  C
  C83      1.0000 0.40270  0.92530  0.91297  Biso   1.000  C
  C84      1.0000 0.07470  0.47740  0.91297  Biso   1.000  C
  C85      1.0000 0.18927  0.93063  0.24630  Biso   1.000  C
  C86      1.0000 0.06937  0.25863  0.24630  Biso   1.000  C
  C87      1.0000 0.74137  0.81073  0.24630  Biso   1.000  C
  C88      1.0000 0.85593  0.26397  0.57964  Biso   1.000  C
  C89      1.0000 0.73603  0.59197  0.57964  Biso   1.000  C
  C90      1.0000 0.40803  0.14407  0.57964  Biso   1.000  C
  H55      1.0000 0.43840  0.35720  0.07680  Biso   1.000  H
  H56      1.0000 0.64280  0.08120  0.07680  Biso   1.000  H
  H57      1.0000 0.91880  0.56160  0.07680  Biso   1.000  H
  H58      1.0000 0.10507  0.69053  0.41013  Biso   1.000  H
  H59      1.0000 0.30947  0.41453  0.41013  Biso   1.000  H
  H60      1.0000 0.58547  0.89493  0.41013  Biso   1.000  H
  H61      1.0000 0.77173  0.02387  0.74347  Biso   1.000  H
  H62      1.0000 0.97613  0.74787  0.74347  Biso   1.000  H
  H63      1.0000 0.25213  0.22827  0.74347  Biso   1.000  H
  H64      1.0000 0.56160  0.64280  0.92320  Biso   1.000  H
  H65      1.0000 0.35720  0.91880  0.92320  Biso   1.000  H
  H66      1.0000 0.08120  0.43840  0.92320  Biso   1.000  H
  H67      1.0000 0.22827  0.97613  0.25653  Biso   1.000  H
  H68      1.0000 0.02387  0.25213  0.25653  Biso   1.000  H
  H69      1.0000 0.74787  0.77173  0.25653  Biso   1.000  H
  H70      1.0000 0.89493  0.30947  0.58987  Biso   1.000  H
  H71      1.0000 0.69053  0.58547  0.58987  Biso   1.000  H
  H72      1.0000 0.41453  0.10507  0.58987  Biso   1.000  H
  C91      1.0000 0.51150  0.48880  0.16457  Biso   1.000  C
  C92      1.0000 0.51120  0.02270  0.16457  Biso   1.000  C
  C93      1.0000 0.97730  0.48850  0.16457  Biso   1.000  C
  C94      1.0000 0.17817  0.82213  0.49790  Biso   1.000  C
  C95      1.0000 0.17787  0.35603  0.49790  Biso   1.000  C
  C96      1.0000 0.64397  0.82183  0.49790  Biso   1.000  C
  C97      1.0000 0.84483  0.15547  0.83124  Biso   1.000  C
  C98      1.0000 0.84453  0.68937  0.83124  Biso   1.000  C
  C99      1.0000 0.31063  0.15517  0.83124  Biso   1.000  C
  C100     1.0000 0.48850  0.51120  0.83543  Biso   1.000  C
  C101     1.0000 0.48880  0.97730  0.83543  Biso   1.000  C
  C102     1.0000 0.02270  0.51150  0.83543  Biso   1.000  C
  C103     1.0000 0.15517  0.84453  0.16876  Biso   1.000  C
  C104     1.0000 0.15547  0.31063  0.16876  Biso   1.000  C
  C105     1.0000 0.68937  0.84483  0.16876  Biso   1.000  C
  C106     1.0000 0.82183  0.17787  0.50210  Biso   1.000  C
  C107     1.0000 0.82213  0.64397  0.50210  Biso   1.000  C
  C108     1.0000 0.35603  0.17817  0.50210  Biso   1.000  C
  C109     1.0000 0.57010  0.69300  0.31408  Biso   1.000  C
  C110     1.0000 0.30700  0.87710  0.31408  Biso   1.000  C
  C111     1.0000 0.12290  0.42990  0.31408  Biso   1.000  C
  C112     1.0000 0.23677  0.02633  0.64741  Biso   1.000  C
  C113     1.0000 0.97367  0.21043  0.64741  Biso   1.000  C
  C114     1.0000 0.78957  0.76323  0.64741  Biso   1.000  C
  C115     1.0000 0.90343  0.35967  0.98075  Biso   1.000  C
  C116     1.0000 0.64033  0.54377  0.98075  Biso   1.000  C
  C117     1.0000 0.45623  0.09657  0.98075  Biso   1.000  C
  C118     1.0000 0.42990  0.30700  0.68592  Biso   1.000  C
  C119     1.0000 0.69300  0.12290  0.68592  Biso   1.000  C
  C120     1.0000 0.87710  0.57010  0.68592  Biso   1.000  C
  C121     1.0000 0.09657  0.64033  0.01925  Biso   1.000  C
  C122     1.0000 0.35967  0.45623  0.01925  Biso   1.000  C
  C123     1.0000 0.54377  0.90343  0.01925  Biso   1.000  C
  C124     1.0000 0.76323  0.97367  0.35259  Biso   1.000  C
  C125     1.0000 0.02633  0.78957  0.35259  Biso   1.000  C
  C126     1.0000 0.21043  0.23677  0.35259  Biso   1.000  C
  C127     1.0000 0.51170  0.61430  0.29947  Biso   1.000  C
  C128     1.0000 0.38570  0.89740  0.29947  Biso   1.000  C
  C129     1.0000 0.10260  0.48830  0.29947  Biso   1.000  C
  C130     1.0000 0.17837  0.94763  0.63280  Biso   1.000  C
  C131     1.0000 0.05237  0.23073  0.63280  Biso   1.000  C
  C132     1.0000 0.76927  0.82163  0.63280  Biso   1.000  C
  C133     1.0000 0.84503  0.28097  0.96614  Biso   1.000  C
  C134     1.0000 0.71903  0.56407  0.96614  Biso   1.000  C
  C135     1.0000 0.43593  0.15497  0.96614  Biso   1.000  C
  C136     1.0000 0.48830  0.38570  0.70053  Biso   1.000  C
  C137     1.0000 0.61430  0.10260  0.70053  Biso   1.000  C
  C138     1.0000 0.89740  0.51170  0.70053  Biso   1.000  C
  C139     1.0000 0.15497  0.71903  0.03386  Biso   1.000  C
  C140     1.0000 0.28097  0.43593  0.03386  Biso   1.000  C
  C141     1.0000 0.56407  0.84503  0.03386  Biso   1.000  C
  C142     1.0000 0.82163  0.05237  0.36720  Biso   1.000  C
  C143     1.0000 0.94763  0.76927  0.36720  Biso   1.000  C
  C144     1.0000 0.23073  0.17837  0.36720  Biso   1.000  C
  C145     1.0000 0.44160  0.55850  0.31382  Biso   1.000  C
  C146     1.0000 0.44150  0.88310  0.31382  Biso   1.000  C
  C147     1.0000 0.11690  0.55840  0.31382  Biso   1.000  C
  C148     1.0000 0.10827  0.89183  0.64715  Biso   1.000  C
  C149     1.0000 0.10817  0.21643  0.64715  Biso   1.000  C
  C150     1.0000 0.78357  0.89173  0.64715  Biso   1.000  C
  C151     1.0000 0.77493  0.22517  0.98049  Biso   1.000  C
  C152     1.0000 0.77483  0.54977  0.98049  Biso   1.000  C
  C153     1.0000 0.45023  0.22507  0.98049  Biso   1.000  C
  C154     1.0000 0.55840  0.44150  0.68618  Biso   1.000  C
  C155     1.0000 0.55850  0.11690  0.68618  Biso   1.000  C
  C156     1.0000 0.88310  0.44160  0.68618  Biso   1.000  C
  C157     1.0000 0.22507  0.77483  0.01951  Biso   1.000  C
  C158     1.0000 0.22517  0.45023  0.01951  Biso   1.000  C
  C159     1.0000 0.54977  0.77493  0.01951  Biso   1.000  C
  C160     1.0000 0.89173  0.10817  0.35285  Biso   1.000  C
  C161     1.0000 0.89183  0.78357  0.35285  Biso   1.000  C
  C162     1.0000 0.21643  0.10827  0.35285  Biso   1.000  C
  H73      1.0000 0.43180  0.56820  0.33320  Biso   1.000  H
  H74      1.0000 0.43180  0.86360  0.33320  Biso   1.000  H
  H75      1.0000 0.13640  0.56820  0.33320  Biso   1.000  H
  H76      1.0000 0.09847  0.90153  0.66653  Biso   1.000  H
  H77      1.0000 0.09847  0.19693  0.66653  Biso   1.000  H
  H78      1.0000 0.80307  0.90153  0.66653  Biso   1.000  H
  H79      1.0000 0.76513  0.23487  0.99987  Biso   1.000  H
  H80      1.0000 0.76513  0.53027  0.99987  Biso   1.000  H
  H81      1.0000 0.46973  0.23487  0.99987  Biso   1.000  H
  H82      1.0000 0.56820  0.43180  0.66680  Biso   1.000  H
  H83      1.0000 0.56820  0.13640  0.66680  Biso   1.000  H
  H84      1.0000 0.86360  0.43180  0.66680  Biso   1.000  H
  H85      1.0000 0.23487  0.76513  0.00013  Biso   1.000  H
  H86      1.0000 0.23487  0.46973  0.00013  Biso   1.000  H
  H87      1.0000 0.53027  0.76513  0.00013  Biso   1.000  H
  H88      1.0000 0.90153  0.09847  0.33347  Biso   1.000  H
  H89      1.0000 0.90153  0.80307  0.33347  Biso   1.000  H
  H90      1.0000 0.19693  0.09847  0.33347  Biso   1.000  H
  C163     1.0000 0.52700  0.59890  0.27036  Biso   1.000  C
  C164     1.0000 0.40110  0.92810  0.27036  Biso   1.000  C
  C165     1.0000 0.07190  0.47300  0.27036  Biso   1.000  C
  C166     1.0000 0.19367  0.93223  0.60369  Biso   1.000  C
  C167     1.0000 0.06777  0.26143  0.60369  Biso   1.000  C
  C168     1.0000 0.73857  0.80633  0.60369  Biso   1.000  C
  C169     1.0000 0.86033  0.26557  0.93703  Biso   1.000  C
  C170     1.0000 0.73443  0.59477  0.93703  Biso   1.000  C
  C171     1.0000 0.40523  0.13967  0.93703  Biso   1.000  C
  C172     1.0000 0.47300  0.40110  0.72964  Biso   1.000  C
  C173     1.0000 0.59890  0.07190  0.72964  Biso   1.000  C
  C174     1.0000 0.92810  0.52700  0.72964  Biso   1.000  C
  C175     1.0000 0.13967  0.73443  0.06297  Biso   1.000  C
  C176     1.0000 0.26557  0.40523  0.06297  Biso   1.000  C
  C177     1.0000 0.59477  0.86033  0.06297  Biso   1.000  C
  C178     1.0000 0.80633  0.06777  0.39631  Biso   1.000  C
  C179     1.0000 0.93223  0.73857  0.39631  Biso   1.000  C
  C180     1.0000 0.26143  0.19367  0.39631  Biso   1.000  C
  H91      1.0000 0.57490  0.63620  0.26080  Biso   1.000  H
  H92      1.0000 0.36380  0.93870  0.26080  Biso   1.000  H
  H93      1.0000 0.06130  0.42510  0.26080  Biso   1.000  H
  H94      1.0000 0.24157  0.96953  0.59413  Biso   1.000  H
  H95      1.0000 0.03047  0.27203  0.59413  Biso   1.000  H
  H96      1.0000 0.72797  0.75843  0.59413  Biso   1.000  H
  H97      1.0000 0.90823  0.30287  0.92747  Biso   1.000  H
  H98      1.0000 0.69713  0.60537  0.92747  Biso   1.000  H
  H99      1.0000 0.39463  0.09177  0.92747  Biso   1.000  H
  H100     1.0000 0.42510  0.36380  0.73920  Biso   1.000  H
  H101     1.0000 0.63620  0.06130  0.73920  Biso   1.000  H
  H102     1.0000 0.93870  0.57490  0.73920  Biso   1.000  H
  H103     1.0000 0.09177  0.69713  0.07253  Biso   1.000  H
  H104     1.0000 0.30287  0.39463  0.07253  Biso   1.000  H
  H105     1.0000 0.60537  0.90823  0.07253  Biso   1.000  H
  H106     1.0000 0.75843  0.03047  0.40587  Biso   1.000  H
  H107     1.0000 0.96953  0.72797  0.40587  Biso   1.000  H
  H108     1.0000 0.27203  0.24157  0.40587  Biso   1.000  H
  C181     1.0000 0.30670  0.42960  0.31410  Biso   1.000  C
  C182     1.0000 0.57040  0.87710  0.31410  Biso   1.000  C
  C183     1.0000 0.12290  0.69330  0.31410  Biso   1.000  C
  C184     1.0000 0.97337  0.76293  0.64743  Biso   1.000  C
  C185     1.0000 0.23707  0.21043  0.64743  Biso   1.000  C
  C186     1.0000 0.78957  0.02663  0.64743  Biso   1.000  C
  C187     1.0000 0.64003  0.09627  0.98077  Biso   1.000  C
  C188     1.0000 0.90373  0.54377  0.98077  Biso   1.000  C
  C189     1.0000 0.45623  0.35997  0.98077  Biso   1.000  C
  C190     1.0000 0.69330  0.57040  0.68590  Biso   1.000  C
  C191     1.0000 0.42960  0.12290  0.68590  Biso   1.000  C
  C192     1.0000 0.87710  0.30670  0.68590  Biso   1.000  C
  C193     1.0000 0.35997  0.90373  0.01923  Biso   1.000  C
  C194     1.0000 0.09627  0.45623  0.01923  Biso   1.000  C
  C195     1.0000 0.54377  0.64003  0.01923  Biso   1.000  C
  C196     1.0000 0.02663  0.23707  0.35257  Biso   1.000  C
  C197     1.0000 0.76293  0.78957  0.35257  Biso   1.000  C
  C198     1.0000 0.21043  0.97337  0.35257  Biso   1.000  C
  C199     1.0000 0.38560  0.48820  0.29951  Biso   1.000  C
  C200     1.0000 0.51180  0.89740  0.29951  Biso   1.000  C
  C201     1.0000 0.10260  0.61440  0.29951  Biso   1.000  C
  C202     1.0000 0.05227  0.82153  0.63284  Biso   1.000  C
  C203     1.0000 0.17847  0.23073  0.63284  Biso   1.000  C
  C204     1.0000 0.76927  0.94773  0.63284  Biso   1.000  C
  C205     1.0000 0.71893  0.15487  0.96618  Biso   1.000  C
  C206     1.0000 0.84513  0.56407  0.96618  Biso   1.000  C
  C207     1.0000 0.43593  0.28107  0.96618  Biso   1.000  C
  C208     1.0000 0.61440  0.51180  0.70049  Biso   1.000  C
  C209     1.0000 0.48820  0.10260  0.70049  Biso   1.000  C
  C210     1.0000 0.89740  0.38560  0.70049  Biso   1.000  C
  C211     1.0000 0.28107  0.84513  0.03382  Biso   1.000  C
  C212     1.0000 0.15487  0.43593  0.03382  Biso   1.000  C
  C213     1.0000 0.56407  0.71893  0.03382  Biso   1.000  C
  C214     1.0000 0.94773  0.17847  0.36716  Biso   1.000  C
  C215     1.0000 0.82153  0.76927  0.36716  Biso   1.000  C
  C216     1.0000 0.23073  0.05227  0.36716  Biso   1.000  C
  C217     1.0000 0.40100  0.47290  0.27039  Biso   1.000  C
  C218     1.0000 0.52710  0.92810  0.27039  Biso   1.000  C
  C219     1.0000 0.07190  0.59900  0.27039  Biso   1.000  C
  C220     1.0000 0.06767  0.80623  0.60372  Biso   1.000  C
  C221     1.0000 0.19377  0.26143  0.60372  Biso   1.000  C
  C222     1.0000 0.73857  0.93233  0.60372  Biso   1.000  C
  C223     1.0000 0.73433  0.13957  0.93706  Biso   1.000  C
  C224     1.0000 0.86043  0.59477  0.93706  Biso   1.000  C
  C225     1.0000 0.40523  0.26567  0.93706  Biso   1.000  C
  C226     1.0000 0.59900  0.52710  0.72961  Biso   1.000  C
  C227     1.0000 0.47290  0.07190  0.72961  Biso   1.000  C
  C228     1.0000 0.92810  0.40100  0.72961  Biso   1.000  C
  C229     1.0000 0.26567  0.86043  0.06294  Biso   1.000  C
  C230     1.0000 0.13957  0.40523  0.06294  Biso   1.000  C
  C231     1.0000 0.59477  0.73433  0.06294  Biso   1.000  C
  C232     1.0000 0.93233  0.19377  0.39628  Biso   1.000  C
  C233     1.0000 0.80623  0.73857  0.39628  Biso   1.000  C
  C234     1.0000 0.26143  0.06767  0.39628  Biso   1.000  C
  H109     1.0000 0.36380  0.42500  0.26090  Biso   1.000  H
  H110     1.0000 0.57500  0.93880  0.26090  Biso   1.000  H
  H111     1.0000 0.06120  0.63620  0.26090  Biso   1.000  H
  H112     1.0000 0.03047  0.75833  0.59423  Biso   1.000  H
  H113     1.0000 0.24167  0.27213  0.59423  Biso   1.000  H
  H114     1.0000 0.72787  0.96953  0.59423  Biso   1.000  H
  H115     1.0000 0.69713  0.09167  0.92757  Biso   1.000  H
  H116     1.0000 0.90833  0.60547  0.92757  Biso   1.000  H
  H117     1.0000 0.39453  0.30287  0.92757  Biso   1.000  H
  H118     1.0000 0.63620  0.57500  0.73910  Biso   1.000  H
  H119     1.0000 0.42500  0.06120  0.73910  Biso   1.000  H
  H120     1.0000 0.93880  0.36380  0.73910  Biso   1.000  H
  H121     1.0000 0.30287  0.90833  0.07243  Biso   1.000  H
  H122     1.0000 0.09167  0.39453  0.07243  Biso   1.000  H
  H123     1.0000 0.60547  0.69713  0.07243  Biso   1.000  H
  H124     1.0000 0.96953  0.24167  0.40577  Biso   1.000  H
  H125     1.0000 0.75833  0.72787  0.40577  Biso   1.000  H
  H126     1.0000 0.27213  0.03047  0.40577  Biso   1.000  H
  C235     1.0000 0.47130  0.52860  0.25563  Biso   1.000  C
  C236     1.0000 0.47140  0.94270  0.25563  Biso   1.000  C
  C237     1.0000 0.05730  0.52870  0.25563  Biso   1.000  C
  C238     1.0000 0.13797  0.86193  0.58896  Biso   1.000  C
  C239     1.0000 0.13807  0.27603  0.58896  Biso   1.000  C
  C240     1.0000 0.72397  0.86203  0.58896  Biso   1.000  C
  C241     1.0000 0.80463  0.19527  0.92230  Biso   1.000  C
  C242     1.0000 0.80473  0.60937  0.92230  Biso   1.000  C
  C243     1.0000 0.39063  0.19537  0.92230  Biso   1.000  C
  C244     1.0000 0.52870  0.47140  0.74437  Biso   1.000  C
  C245     1.0000 0.52860  0.05730  0.74437  Biso   1.000  C
  C246     1.0000 0.94270  0.47130  0.74437  Biso   1.000  C
  C247     1.0000 0.19537  0.80473  0.07770  Biso   1.000  C
  C248     1.0000 0.19527  0.39063  0.07770  Biso   1.000  C
  C249     1.0000 0.60937  0.80463  0.07770  Biso   1.000  C
  C250     1.0000 0.86203  0.13807  0.41104  Biso   1.000  C
  C251     1.0000 0.86193  0.72397  0.41104  Biso   1.000  C
  C252     1.0000 0.27603  0.13797  0.41104  Biso   1.000  C
  C253     1.0000 0.48630  0.51370  0.22431  Biso   1.000  C
  C254     1.0000 0.48630  0.97260  0.22431  Biso   1.000  C
  C255     1.0000 0.02740  0.51370  0.22431  Biso   1.000  C
  C256     1.0000 0.15297  0.84703  0.55764  Biso   1.000  C
  C257     1.0000 0.15297  0.30593  0.55764  Biso   1.000  C
  C258     1.0000 0.69407  0.84703  0.55764  Biso   1.000  C
  C259     1.0000 0.81963  0.18037  0.89098  Biso   1.000  C
  C260     1.0000 0.81963  0.63927  0.89098  Biso   1.000  C
  C261     1.0000 0.36073  0.18037  0.89098  Biso   1.000  C
  C262     1.0000 0.51370  0.48630  0.77569  Biso   1.000  C
  C263     1.0000 0.51370  0.02740  0.77569  Biso   1.000  C
  C264     1.0000 0.97260  0.48630  0.77569  Biso   1.000  C
  C265     1.0000 0.18037  0.81963  0.10902  Biso   1.000  C
  C266     1.0000 0.18037  0.36073  0.10902  Biso   1.000  C
  C267     1.0000 0.63927  0.81963  0.10902  Biso   1.000  C
  C268     1.0000 0.84703  0.15297  0.44236  Biso   1.000  C
  C269     1.0000 0.84703  0.69407  0.44236  Biso   1.000  C
  C270     1.0000 0.30593  0.15297  0.44236  Biso   1.000  C
  C271     1.0000 0.53850  0.56550  0.17470  Biso   1.000  C
  C272     1.0000 0.43450  0.97300  0.17470  Biso   1.000  C
  C273     1.0000 0.02700  0.46150  0.17470  Biso   1.000  C
  C274     1.0000 0.20517  0.89883  0.50803  Biso   1.000  C
  C275     1.0000 0.10117  0.30633  0.50803  Biso   1.000  C
  C276     1.0000 0.69367  0.79483  0.50803  Biso   1.000  C
  C277     1.0000 0.87183  0.23217  0.84137  Biso   1.000  C
  C278     1.0000 0.76783  0.63967  0.84137  Biso   1.000  C
  C279     1.0000 0.36033  0.12817  0.84137  Biso   1.000  C
  C280     1.0000 0.46150  0.43450  0.82530  Biso   1.000  C
  C281     1.0000 0.56550  0.02700  0.82530  Biso   1.000  C
  C282     1.0000 0.97300  0.53850  0.82530  Biso   1.000  C
  C283     1.0000 0.12817  0.76783  0.15863  Biso   1.000  C
  C284     1.0000 0.23217  0.36033  0.15863  Biso   1.000  C
  C285     1.0000 0.63967  0.87183  0.15863  Biso   1.000  C
  C286     1.0000 0.79483  0.10117  0.49197  Biso   1.000  C
  C287     1.0000 0.89883  0.69367  0.49197  Biso   1.000  C
  C288     1.0000 0.30633  0.20517  0.49197  Biso   1.000  C
  C289     1.0000 0.47070  0.42040  0.18430  Biso   1.000  C
  C290     1.0000 0.57960  0.05030  0.18430  Biso   1.000  C
  C291     1.0000 0.94970  0.52930  0.18430  Biso   1.000  C
  C292     1.0000 0.13737  0.75373  0.51763  Biso   1.000  C
  C293     1.0000 0.24627  0.38363  0.51763  Biso   1.000  C
  C294     1.0000 0.61637  0.86263  0.51763  Biso   1.000  C
  C295     1.0000 0.80403  0.08707  0.85097  Biso   1.000  C
  C296     1.0000 0.91293  0.71697  0.85097  Biso   1.000  C
  C297     1.0000 0.28303  0.19597  0.85097  Biso   1.000  C
  C298     1.0000 0.52930  0.57960  0.81570  Biso   1.000  C
  C299     1.0000 0.42040  0.94970  0.81570  Biso   1.000  C
  C300     1.0000 0.05030  0.47070  0.81570  Biso   1.000  C
  C301     1.0000 0.19597  0.91293  0.14903  Biso   1.000  C
  C302     1.0000 0.08707  0.28303  0.14903  Biso   1.000  C
  C303     1.0000 0.71697  0.80403  0.14903  Biso   1.000  C
  C304     1.0000 0.86263  0.24627  0.48237  Biso   1.000  C
  C305     1.0000 0.75373  0.61637  0.48237  Biso   1.000  C
  C306     1.0000 0.38363  0.13737  0.48237  Biso   1.000  C
  C307     1.0000 0.52390  0.58000  0.20480  Biso   1.000  C
  C308     1.0000 0.42000  0.94390  0.20480  Biso   1.000  C
  C309     1.0000 0.05610  0.47610  0.20480  Biso   1.000  C
  C310     1.0000 0.19057  0.91333  0.53813  Biso   1.000  C
  C311     1.0000 0.08667  0.27723  0.53813  Biso   1.000  C
  C312     1.0000 0.72277  0.80943  0.53813  Biso   1.000  C
  C313     1.0000 0.85723  0.24667  0.87147  Biso   1.000  C
  C314     1.0000 0.75333  0.61057  0.87147  Biso   1.000  C
  C315     1.0000 0.38943  0.14277  0.87147  Biso   1.000  C
  C316     1.0000 0.47610  0.42000  0.79520  Biso   1.000  C
  C317     1.0000 0.58000  0.05610  0.79520  Biso   1.000  C
  C318     1.0000 0.94390  0.52390  0.79520  Biso   1.000  C
  C319     1.0000 0.14277  0.75333  0.12853  Biso   1.000  C
  C320     1.0000 0.24667  0.38943  0.12853  Biso   1.000  C
  C321     1.0000 0.61057  0.85723  0.12853  Biso   1.000  C
  C322     1.0000 0.80943  0.08667  0.46187  Biso   1.000  C
  C323     1.0000 0.91333  0.72277  0.46187  Biso   1.000  C
  C324     1.0000 0.27723  0.19057  0.46187  Biso   1.000  C
  C325     1.0000 0.45950  0.43570  0.21370  Biso   1.000  C
  C326     1.0000 0.56430  0.02380  0.21370  Biso   1.000  C
  C327     1.0000 0.97620  0.54050  0.21370  Biso   1.000  C
  C328     1.0000 0.12617  0.76903  0.54703  Biso   1.000  C
  C329     1.0000 0.23097  0.35713  0.54703  Biso   1.000  C
  C330     1.0000 0.64287  0.87383  0.54703  Biso   1.000  C
  C331     1.0000 0.79283  0.10237  0.88037  Biso   1.000  C
  C332     1.0000 0.89763  0.69047  0.88037  Biso   1.000  C
  C333     1.0000 0.30953  0.20717  0.88037  Biso   1.000  C
  C334     1.0000 0.54050  0.56430  0.78630  Biso   1.000  C
  C335     1.0000 0.43570  0.97620  0.78630  Biso   1.000  C
  C336     1.0000 0.02380  0.45950  0.78630  Biso   1.000  C
  C337     1.0000 0.20717  0.89763  0.11963  Biso   1.000  C
  C338     1.0000 0.10237  0.30953  0.11963  Biso   1.000  C
  C339     1.0000 0.69047  0.79283  0.11963  Biso   1.000  C
  C340     1.0000 0.87383  0.23097  0.45297  Biso   1.000  C
  C341     1.0000 0.76903  0.64287  0.45297  Biso   1.000  C
  C342     1.0000 0.35713  0.12617  0.45297  Biso   1.000  C
  C343     1.0000 0.43480  0.46150  0.17480  Biso   1.000  C
  C344     1.0000 0.53850  0.97330  0.17480  Biso   1.000  C
  C345     1.0000 0.02670  0.56520  0.17480  Biso   1.000  C
  C346     1.0000 0.10147  0.79483  0.50813  Biso   1.000  C
  C347     1.0000 0.20517  0.30663  0.50813  Biso   1.000  C
  C348     1.0000 0.69337  0.89853  0.50813  Biso   1.000  C
  C349     1.0000 0.76813  0.12817  0.84147  Biso   1.000  C
  C350     1.0000 0.87183  0.63997  0.84147  Biso   1.000  C
  C351     1.0000 0.36003  0.23187  0.84147  Biso   1.000  C
  C352     1.0000 0.56520  0.53850  0.82520  Biso   1.000  C
  C353     1.0000 0.46150  0.02670  0.82520  Biso   1.000  C
  C354     1.0000 0.97330  0.43480  0.82520  Biso   1.000  C
  C355     1.0000 0.23187  0.87183  0.15853  Biso   1.000  C
  C356     1.0000 0.12817  0.36003  0.15853  Biso   1.000  C
  C357     1.0000 0.63997  0.76813  0.15853  Biso   1.000  C
  C358     1.0000 0.89853  0.20517  0.49187  Biso   1.000  C
  C359     1.0000 0.79483  0.69337  0.49187  Biso   1.000  C
  C360     1.0000 0.30663  0.10147  0.49187  Biso   1.000  C
  C361     1.0000 0.57910  0.52880  0.18420  Biso   1.000  C
  C362     1.0000 0.47120  0.05030  0.18420  Biso   1.000  C
  C363     1.0000 0.94970  0.42090  0.18420  Biso   1.000  C
  C364     1.0000 0.24577  0.86213  0.51753  Biso   1.000  C
  C365     1.0000 0.13787  0.38363  0.51753  Biso   1.000  C
  C366     1.0000 0.61637  0.75423  0.51753  Biso   1.000  C
  C367     1.0000 0.91243  0.19547  0.85087  Biso   1.000  C
  C368     1.0000 0.80453  0.71697  0.85087  Biso   1.000  C
  C369     1.0000 0.28303  0.08757  0.85087  Biso   1.000  C
  C370     1.0000 0.42090  0.47120  0.81580  Biso   1.000  C
  C371     1.0000 0.52880  0.94970  0.81580  Biso   1.000  C
  C372     1.0000 0.05030  0.57910  0.81580  Biso   1.000  C
  C373     1.0000 0.08757  0.80453  0.14913  Biso   1.000  C
  C374     1.0000 0.19547  0.28303  0.14913  Biso   1.000  C
  C375     1.0000 0.71697  0.91243  0.14913  Biso   1.000  C
  C376     1.0000 0.75423  0.13787  0.48247  Biso   1.000  C
  C377     1.0000 0.86213  0.61637  0.48247  Biso   1.000  C
  C378     1.0000 0.38363  0.24577  0.48247  Biso   1.000  C
  C379     1.0000 0.56470  0.54070  0.21380  Biso   1.000  C
  C380     1.0000 0.45930  0.02400  0.21380  Biso   1.000  C
  C381     1.0000 0.97600  0.43530  0.21380  Biso   1.000  C
  C382     1.0000 0.23137  0.87403  0.54713  Biso   1.000  C
  C383     1.0000 0.12597  0.35733  0.54713  Biso   1.000  C
  C384     1.0000 0.64267  0.76863  0.54713  Biso   1.000  C
  C385     1.0000 0.89803  0.20737  0.88047  Biso   1.000  C
  C386     1.0000 0.79263  0.69067  0.88047  Biso   1.000  C
  C387     1.0000 0.30933  0.10197  0.88047  Biso   1.000  C
  C388     1.0000 0.43530  0.45930  0.78620  Biso   1.000  C
  C389     1.0000 0.54070  0.97600  0.78620  Biso   1.000  C
  C390     1.0000 0.02400  0.56470  0.78620  Biso   1.000  C
  C391     1.0000 0.10197  0.79263  0.11953  Biso   1.000  C
  C392     1.0000 0.20737  0.30933  0.11953  Biso   1.000  C
  C393     1.0000 0.69067  0.89803  0.11953  Biso   1.000  C
  C394     1.0000 0.76863  0.12597  0.45287  Biso   1.000  C
  C395     1.0000 0.87403  0.64267  0.45287  Biso   1.000  C
  C396     1.0000 0.35733  0.23137  0.45287  Biso   1.000  C
  C397     1.0000 0.41970  0.47640  0.20480  Biso   1.000  C
  C398     1.0000 0.52360  0.94330  0.20480  Biso   1.000  C
  C399     1.0000 0.05670  0.58030  0.20480  Biso   1.000  C
  C400     1.0000 0.08637  0.80973  0.53813  Biso   1.000  C
  C401     1.0000 0.19027  0.27663  0.53813  Biso   1.000  C
  C402     1.0000 0.72337  0.91363  0.53813  Biso   1.000  C
  C403     1.0000 0.75303  0.14307  0.87147  Biso   1.000  C
  C404     1.0000 0.85693  0.60997  0.87147  Biso   1.000  C
  C405     1.0000 0.39003  0.24697  0.87147  Biso   1.000  C
  C406     1.0000 0.58030  0.52360  0.79520  Biso   1.000  C
  C407     1.0000 0.47640  0.05670  0.79520  Biso   1.000  C
  C408     1.0000 0.94330  0.41970  0.79520  Biso   1.000  C
  C409     1.0000 0.24697  0.85693  0.12853  Biso   1.000  C
  C410     1.0000 0.14307  0.39003  0.12853  Biso   1.000  C
  C411     1.0000 0.60997  0.75303  0.12853  Biso   1.000  C
  C412     1.0000 0.91363  0.19027  0.46187  Biso   1.000  C
  C413     1.0000 0.80973  0.72337  0.46187  Biso   1.000  C
  C414     1.0000 0.27663  0.08637  0.46187  Biso   1.000  C
