data_image0
_cell_length_a       31.812
_cell_length_b       31.812
_cell_length_c       79.5235
_cell_angle_alpha    90
_cell_angle_beta     90
_cell_angle_gamma    120

_symmetry_space_group_name_H-M    "P 1"
_symmetry_int_tables_number       1

loop_
  _symmetry_equiv_pos_as_xyz
  'x, y, z'

loop_
  _atom_site_label
  _atom_site_occupancy
  _atom_site_fract_x
  _atom_site_fract_y
  _atom_site_fract_z
  _atom_site_thermal_displace_type
  _atom_site_B_iso_or_equiv
  _atom_site_type_symbol
  Cu1      1.0000 0.52599  0.26005  0.36793  Biso   1.000  Cu
  Cu2      1.0000 0.73995  0.26594  0.36793  Biso   1.000  Cu
  Cu3      1.0000 0.73406  0.47401  0.36793  Biso   1.000  Cu
  Cu4      1.0000 0.26594  0.73995  0.63207  Biso   1.000  Cu
  Cu5      1.0000 0.47401  0.73406  0.63207  Biso   1.000  Cu
  Cu6      1.0000 0.26005  0.52599  0.63207  Biso   1.000  Cu
  Cu7      1.0000 0.19266  0.59338  0.70126  Biso   1.000  Cu
  Cu8      1.0000 0.40662  0.59927  0.70126  Biso   1.000  Cu
  Cu9      1.0000 0.40073  0.80734  0.70126  Biso   1.000  Cu
  Cu10     1.0000 0.93261  0.07328  0.96540  Biso   1.000  Cu
  Cu11     1.0000 0.14068  0.06739  0.96540  Biso   1.000  Cu
  Cu12     1.0000 0.92672  0.85932  0.96540  Biso   1.000  Cu
  Cu13     1.0000 0.85932  0.92672  0.03460  Biso   1.000  Cu
  Cu14     1.0000 0.07328  0.93261  0.03460  Biso   1.000  Cu
  Cu15     1.0000 0.06739  0.14068  0.03460  Biso   1.000  Cu
  Cu16     1.0000 0.59927  0.40662  0.29874  Biso   1.000  Cu
  Cu17     1.0000 0.80734  0.40073  0.29874  Biso   1.000  Cu
  Cu18     1.0000 0.59338  0.19266  0.29874  Biso   1.000  Cu
  Cu19     1.0000 0.44754  0.22448  0.38629  Biso   1.000  Cu
  Cu20     1.0000 0.77552  0.22306  0.38629  Biso   1.000  Cu
  Cu21     1.0000 0.77694  0.55246  0.38629  Biso   1.000  Cu
  Cu22     1.0000 0.22306  0.77552  0.61371  Biso   1.000  Cu
  Cu23     1.0000 0.55246  0.77694  0.61371  Biso   1.000  Cu
  Cu24     1.0000 0.22448  0.44754  0.61371  Biso   1.000  Cu
  Cu25     1.0000 0.11421  0.55781  0.71962  Biso   1.000  Cu
  Cu26     1.0000 0.44219  0.55639  0.71962  Biso   1.000  Cu
  Cu27     1.0000 0.44361  0.88579  0.71962  Biso   1.000  Cu
  Cu28     1.0000 0.88973  0.10885  0.94704  Biso   1.000  Cu
  Cu29     1.0000 0.21913  0.11027  0.94704  Biso   1.000  Cu
  Cu30     1.0000 0.89115  0.78087  0.94704  Biso   1.000  Cu
  Cu31     1.0000 0.78087  0.89115  0.05296  Biso   1.000  Cu
  Cu32     1.0000 0.10885  0.88973  0.05296  Biso   1.000  Cu
  Cu33     1.0000 0.11027  0.21913  0.05296  Biso   1.000  Cu
  Cu34     1.0000 0.55639  0.44219  0.28038  Biso   1.000  Cu
  Cu35     1.0000 0.88579  0.44361  0.28038  Biso   1.000  Cu
  Cu36     1.0000 0.55781  0.11421  0.28038  Biso   1.000  Cu
  O1       1.0000 0.42030  0.24040  0.36626  Biso   1.000  O
  O2       1.0000 0.75960  0.17990  0.36626  Biso   1.000  O
  O3       1.0000 0.82010  0.57970  0.36626  Biso   1.000  O
  O4       1.0000 0.17990  0.75960  0.63374  Biso   1.000  O
  O5       1.0000 0.57970  0.82010  0.63374  Biso   1.000  O
  O6       1.0000 0.24040  0.42030  0.63374  Biso   1.000  O
  O7       1.0000 0.08697  0.57373  0.69959  Biso   1.000  O
  O8       1.0000 0.42627  0.51323  0.69959  Biso   1.000  O
  O9       1.0000 0.48677  0.91303  0.69959  Biso   1.000  O
  O10      1.0000 0.84657  0.09293  0.96707  Biso   1.000  O
  O11      1.0000 0.24637  0.15343  0.96707  Biso   1.000  O
  O12      1.0000 0.90707  0.75363  0.96707  Biso   1.000  O
  O13      1.0000 0.75363  0.90707  0.03293  Biso   1.000  O
  O14      1.0000 0.09293  0.84657  0.03293  Biso   1.000  O
  O15      1.0000 0.15343  0.24637  0.03293  Biso   1.000  O
  O16      1.0000 0.51323  0.42627  0.30041  Biso   1.000  O
  O17      1.0000 0.91303  0.48677  0.30041  Biso   1.000  O
  O18      1.0000 0.57373  0.08697  0.30041  Biso   1.000  O
  O19      1.0000 0.53770  0.32380  0.37408  Biso   1.000  O
  O20      1.0000 0.67620  0.21390  0.37408  Biso   1.000  O
  O21      1.0000 0.78610  0.46230  0.37408  Biso   1.000  O
  O22      1.0000 0.21390  0.67620  0.62592  Biso   1.000  O
  O23      1.0000 0.46230  0.78610  0.62592  Biso   1.000  O
  O24      1.0000 0.32380  0.53770  0.62592  Biso   1.000  O
  O25      1.0000 0.20437  0.65713  0.70741  Biso   1.000  O
  O26      1.0000 0.34287  0.54723  0.70741  Biso   1.000  O
  O27      1.0000 0.45277  0.79563  0.70741  Biso   1.000  O
  O28      1.0000 0.88057  0.00953  0.95925  Biso   1.000  O
  O29      1.0000 0.12897  0.11943  0.95925  Biso   1.000  O
  O30      1.0000 0.99047  0.87103  0.95925  Biso   1.000  O
  O31      1.0000 0.87103  0.99047  0.04075  Biso   1.000  O
  O32      1.0000 0.00953  0.88057  0.04075  Biso   1.000  O
  O33      1.0000 0.11943  0.12897  0.04075  Biso   1.000  O
  O34      1.0000 0.54723  0.34287  0.29259  Biso   1.000  O
  O35      1.0000 0.79563  0.45277  0.29259  Biso   1.000  O
  O36      1.0000 0.65713  0.20437  0.29259  Biso   1.000  O
  O37      1.0000 0.47920  0.29020  0.39457  Biso   1.000  O
  O38      1.0000 0.70980  0.18900  0.39457  Biso   1.000  O
  O39      1.0000 0.81100  0.52080  0.39457  Biso   1.000  O
  O40      1.0000 0.18900  0.70980  0.60543  Biso   1.000  O
  O41      1.0000 0.52080  0.81100  0.60543  Biso   1.000  O
  O42      1.0000 0.29020  0.47920  0.60543  Biso   1.000  O
  O43      1.0000 0.14587  0.62353  0.72790  Biso   1.000  O
  O44      1.0000 0.37647  0.52233  0.72790  Biso   1.000  O
  O45      1.0000 0.47767  0.85413  0.72790  Biso   1.000  O
  O46      1.0000 0.85567  0.04313  0.93876  Biso   1.000  O
  O47      1.0000 0.18747  0.14433  0.93876  Biso   1.000  O
  O48      1.0000 0.95687  0.81253  0.93876  Biso   1.000  O
  O49      1.0000 0.81253  0.95687  0.06124  Biso   1.000  O
  O50      1.0000 0.04313  0.85567  0.06124  Biso   1.000  O
  O51      1.0000 0.14433  0.18747  0.06124  Biso   1.000  O
  O52      1.0000 0.52233  0.37647  0.27210  Biso   1.000  O
  O53      1.0000 0.85413  0.47767  0.27210  Biso   1.000  O
  O54      1.0000 0.62353  0.14587  0.27210  Biso   1.000  O
  O55      1.0000 0.48660  0.21490  0.40369  Biso   1.000  O
  O56      1.0000 0.78510  0.27170  0.40369  Biso   1.000  O
  O57      1.0000 0.72830  0.51340  0.40369  Biso   1.000  O
  O58      1.0000 0.27170  0.78510  0.59631  Biso   1.000  O
  O59      1.0000 0.51340  0.72830  0.59631  Biso   1.000  O
  O60      1.0000 0.21490  0.48660  0.59631  Biso   1.000  O
  O61      1.0000 0.15327  0.54823  0.73702  Biso   1.000  O
  O62      1.0000 0.45177  0.60503  0.73702  Biso   1.000  O
  O63      1.0000 0.39497  0.84673  0.73702  Biso   1.000  O
  O64      1.0000 0.93837  0.11843  0.92964  Biso   1.000  O
  O65      1.0000 0.18007  0.06163  0.92964  Biso   1.000  O
  O66      1.0000 0.88157  0.81993  0.92964  Biso   1.000  O
  O67      1.0000 0.81993  0.88157  0.07036  Biso   1.000  O
  O68      1.0000 0.11843  0.93837  0.07036  Biso   1.000  O
  O69      1.0000 0.06163  0.18007  0.07036  Biso   1.000  O
  O70      1.0000 0.60503  0.45177  0.26298  Biso   1.000  O
  O71      1.0000 0.84673  0.39497  0.26298  Biso   1.000  O
  O72      1.0000 0.54823  0.15327  0.26298  Biso   1.000  O
  O73      1.0000 0.48500  0.25780  0.34987  Biso   1.000  O
  O74      1.0000 0.74220  0.22720  0.34987  Biso   1.000  O
  O75      1.0000 0.77280  0.51500  0.34987  Biso   1.000  O
  O76      1.0000 0.22720  0.74220  0.65013  Biso   1.000  O
  O77      1.0000 0.51500  0.77280  0.65013  Biso   1.000  O
  O78      1.0000 0.25780  0.48500  0.65013  Biso   1.000  O
  O79      1.0000 0.15167  0.59113  0.68320  Biso   1.000  O
  O80      1.0000 0.40887  0.56053  0.68320  Biso   1.000  O
  O81      1.0000 0.43947  0.84833  0.68320  Biso   1.000  O
  O82      1.0000 0.89387  0.07553  0.98346  Biso   1.000  O
  O83      1.0000 0.18167  0.10613  0.98346  Biso   1.000  O
  O84      1.0000 0.92447  0.81833  0.98346  Biso   1.000  O
  O85      1.0000 0.81833  0.92447  0.01654  Biso   1.000  O
  O86      1.0000 0.07553  0.89387  0.01654  Biso   1.000  O
  O87      1.0000 0.10613  0.18167  0.01654  Biso   1.000  O
  O88      1.0000 0.56053  0.40887  0.31680  Biso   1.000  O
  O89      1.0000 0.84833  0.43947  0.31680  Biso   1.000  O
  O90      1.0000 0.59113  0.15167  0.31680  Biso   1.000  O
  O91      1.0000 0.14320  0.51480  0.22710  Biso   1.000  O
  O92      1.0000 0.48520  0.62840  0.22710  Biso   1.000  O
  O93      1.0000 0.37160  0.85680  0.22710  Biso   1.000  O
  O94      1.0000 0.62840  0.48520  0.77290  Biso   1.000  O
  O95      1.0000 0.85680  0.37160  0.77290  Biso   1.000  O
  O96      1.0000 0.51480  0.14320  0.77290  Biso   1.000  O
  O97      1.0000 0.80987  0.84813  0.56043  Biso   1.000  O
  O98      1.0000 0.15187  0.96173  0.56043  Biso   1.000  O
  O99      1.0000 0.03827  0.19013  0.56043  Biso   1.000  O
  O100     1.0000 0.29507  0.81853  0.10623  Biso   1.000  O
  O101     1.0000 0.52347  0.70493  0.10623  Biso   1.000  O
  O102     1.0000 0.18147  0.47653  0.10623  Biso   1.000  O
  O103     1.0000 0.47653  0.18147  0.89377  Biso   1.000  O
  O104     1.0000 0.81853  0.29507  0.89377  Biso   1.000  O
  O105     1.0000 0.70493  0.52347  0.89377  Biso   1.000  O
  O106     1.0000 0.96173  0.15187  0.43957  Biso   1.000  O
  O107     1.0000 0.19013  0.03827  0.43957  Biso   1.000  O
  O108     1.0000 0.84813  0.80987  0.43957  Biso   1.000  O
  O109     1.0000 0.83750  0.97820  0.53060  Biso   1.000  O
  O110     1.0000 0.02180  0.85930  0.53060  Biso   1.000  O
  O111     1.0000 0.14070  0.16250  0.53060  Biso   1.000  O
  O112     1.0000 0.85930  0.02180  0.46940  Biso   1.000  O
  O113     1.0000 0.16250  0.14070  0.46940  Biso   1.000  O
  O114     1.0000 0.97820  0.83750  0.46940  Biso   1.000  O
  O115     1.0000 0.50417  0.31153  0.86393  Biso   1.000  O
  O116     1.0000 0.68847  0.19263  0.86393  Biso   1.000  O
  O117     1.0000 0.80737  0.49583  0.86393  Biso   1.000  O
  O118     1.0000 0.52597  0.35513  0.80273  Biso   1.000  O
  O119     1.0000 0.82917  0.47403  0.80273  Biso   1.000  O
  O120     1.0000 0.64487  0.17083  0.80273  Biso   1.000  O
  O121     1.0000 0.17083  0.64487  0.19727  Biso   1.000  O
  O122     1.0000 0.35513  0.52597  0.19727  Biso   1.000  O
  O123     1.0000 0.47403  0.82917  0.19727  Biso   1.000  O
  O124     1.0000 0.19263  0.68847  0.13607  Biso   1.000  O
  O125     1.0000 0.49583  0.80737  0.13607  Biso   1.000  O
  O126     1.0000 0.31153  0.50417  0.13607  Biso   1.000  O
  O127     1.0000 0.55630  0.25810  0.38842  Biso   1.000  O
  O128     1.0000 0.74190  0.29820  0.38842  Biso   1.000  O
  O129     1.0000 0.70180  0.44370  0.38842  Biso   1.000  O
  O130     1.0000 0.29820  0.74190  0.61158  Biso   1.000  O
  O131     1.0000 0.44370  0.70180  0.61158  Biso   1.000  O
  O132     1.0000 0.25810  0.55630  0.61158  Biso   1.000  O
  O133     1.0000 0.22297  0.59143  0.72175  Biso   1.000  O
  O134     1.0000 0.40857  0.63153  0.72175  Biso   1.000  O
  O135     1.0000 0.36847  0.77703  0.72175  Biso   1.000  O
  O136     1.0000 0.96487  0.07523  0.94491  Biso   1.000  O
  O137     1.0000 0.11037  0.03513  0.94491  Biso   1.000  O
  O138     1.0000 0.92477  0.88963  0.94491  Biso   1.000  O
  O139     1.0000 0.88963  0.92477  0.05509  Biso   1.000  O
  O140     1.0000 0.07523  0.96487  0.05509  Biso   1.000  O
  O141     1.0000 0.03513  0.11037  0.05509  Biso   1.000  O
  O142     1.0000 0.63153  0.40857  0.27825  Biso   1.000  O
  O143     1.0000 0.77703  0.36847  0.27825  Biso   1.000  O
  O144     1.0000 0.59143  0.22297  0.27825  Biso   1.000  O
  O145     1.0000 0.76460  0.93740  0.54292  Biso   1.000  O
  O146     1.0000 0.06260  0.82720  0.54292  Biso   1.000  O
  O147     1.0000 0.17280  0.23540  0.54292  Biso   1.000  O
  O148     1.0000 0.82720  0.06260  0.45708  Biso   1.000  O
  O149     1.0000 0.23540  0.17280  0.45708  Biso   1.000  O
  O150     1.0000 0.93740  0.76460  0.45708  Biso   1.000  O
  O151     1.0000 0.43127  0.27073  0.87625  Biso   1.000  O
  O152     1.0000 0.72927  0.16053  0.87625  Biso   1.000  O
  O153     1.0000 0.83947  0.56873  0.87625  Biso   1.000  O
  O154     1.0000 0.49387  0.39593  0.79041  Biso   1.000  O
  O155     1.0000 0.90207  0.50613  0.79041  Biso   1.000  O
  O156     1.0000 0.60407  0.09793  0.79041  Biso   1.000  O
  O157     1.0000 0.09793  0.60407  0.20959  Biso   1.000  O
  O158     1.0000 0.39593  0.49387  0.20959  Biso   1.000  O
  O159     1.0000 0.50613  0.90207  0.20959  Biso   1.000  O
  O160     1.0000 0.16053  0.72927  0.12375  Biso   1.000  O
  O161     1.0000 0.56873  0.83947  0.12375  Biso   1.000  O
  O162     1.0000 0.27073  0.43127  0.12375  Biso   1.000  O
  O163     1.0000 0.81650  0.89340  0.51577  Biso   1.000  O
  O164     1.0000 0.10660  0.92310  0.51577  Biso   1.000  O
  O165     1.0000 0.07690  0.18350  0.51577  Biso   1.000  O
  O166     1.0000 0.92310  0.10660  0.48423  Biso   1.000  O
  O167     1.0000 0.18350  0.07690  0.48423  Biso   1.000  O
  O168     1.0000 0.89340  0.81650  0.48423  Biso   1.000  O
  O169     1.0000 0.48317  0.22673  0.84910  Biso   1.000  O
  O170     1.0000 0.77327  0.25643  0.84910  Biso   1.000  O
  O171     1.0000 0.74357  0.51683  0.84910  Biso   1.000  O
  O172     1.0000 0.58977  0.43993  0.81756  Biso   1.000  O
  O173     1.0000 0.85017  0.41023  0.81756  Biso   1.000  O
  O174     1.0000 0.56007  0.14983  0.81756  Biso   1.000  O
  O175     1.0000 0.14983  0.56007  0.18244  Biso   1.000  O
  O176     1.0000 0.43993  0.58977  0.18244  Biso   1.000  O
  O177     1.0000 0.41023  0.85017  0.18244  Biso   1.000  O
  O178     1.0000 0.25643  0.77327  0.15090  Biso   1.000  O
  O179     1.0000 0.51683  0.74357  0.15090  Biso   1.000  O
  O180     1.0000 0.22673  0.48317  0.15090  Biso   1.000  O
  O181     1.0000 0.20170  0.54520  0.20792  Biso   1.000  O
  O182     1.0000 0.45480  0.65650  0.20792  Biso   1.000  O
  O183     1.0000 0.34350  0.79830  0.20792  Biso   1.000  O
  O184     1.0000 0.65650  0.45480  0.79208  Biso   1.000  O
  O185     1.0000 0.79830  0.34350  0.79208  Biso   1.000  O
  O186     1.0000 0.54520  0.20170  0.79208  Biso   1.000  O
  O187     1.0000 0.86837  0.87853  0.54125  Biso   1.000  O
  O188     1.0000 0.12147  0.98983  0.54125  Biso   1.000  O
  O189     1.0000 0.01017  0.13163  0.54125  Biso   1.000  O
  O190     1.0000 0.32317  0.78813  0.12541  Biso   1.000  O
  O191     1.0000 0.46497  0.67683  0.12541  Biso   1.000  O
  O192     1.0000 0.21187  0.53503  0.12541  Biso   1.000  O
  O193     1.0000 0.53503  0.21187  0.87459  Biso   1.000  O
  O194     1.0000 0.78813  0.32317  0.87459  Biso   1.000  O
  O195     1.0000 0.67683  0.46497  0.87459  Biso   1.000  O
  O196     1.0000 0.98983  0.12147  0.45875  Biso   1.000  O
  O197     1.0000 0.13163  0.01017  0.45875  Biso   1.000  O
  O198     1.0000 0.87853  0.86837  0.45875  Biso   1.000  O
  O199     1.0000 0.75730  0.84950  0.53320  Biso   1.000  O
  O200     1.0000 0.15050  0.90780  0.53320  Biso   1.000  O
  O201     1.0000 0.09220  0.24270  0.53320  Biso   1.000  O
  O202     1.0000 0.90780  0.15050  0.46680  Biso   1.000  O
  O203     1.0000 0.24270  0.09220  0.46680  Biso   1.000  O
  O204     1.0000 0.84950  0.75730  0.46680  Biso   1.000  O
  O205     1.0000 0.42397  0.18283  0.86653  Biso   1.000  O
  O206     1.0000 0.81717  0.24113  0.86653  Biso   1.000  O
  O207     1.0000 0.75887  0.57603  0.86653  Biso   1.000  O
  O208     1.0000 0.57447  0.48383  0.80013  Biso   1.000  O
  O209     1.0000 0.90937  0.42553  0.80013  Biso   1.000  O
  O210     1.0000 0.51617  0.09063  0.80013  Biso   1.000  O
  O211     1.0000 0.09063  0.51617  0.19987  Biso   1.000  O
  O212     1.0000 0.48383  0.57447  0.19987  Biso   1.000  O
  O213     1.0000 0.42553  0.90937  0.19987  Biso   1.000  O
  O214     1.0000 0.24113  0.81717  0.13347  Biso   1.000  O
  O215     1.0000 0.57603  0.75887  0.13347  Biso   1.000  O
  O216     1.0000 0.18283  0.42397  0.13347  Biso   1.000  O
  C1       1.0000 0.75680  0.06990  0.51229  Biso   1.000  C
  C2       1.0000 0.93010  0.68690  0.51229  Biso   1.000  C
  C3       1.0000 0.31310  0.24320  0.51229  Biso   1.000  C
  C4       1.0000 0.68690  0.93010  0.48771  Biso   1.000  C
  C5       1.0000 0.24320  0.31310  0.48771  Biso   1.000  C
  C6       1.0000 0.06990  0.75680  0.48771  Biso   1.000  C
  C7       1.0000 0.42347  0.40323  0.84562  Biso   1.000  C
  C8       1.0000 0.59677  0.02023  0.84562  Biso   1.000  C
  C9       1.0000 0.97977  0.57653  0.84562  Biso   1.000  C
  C10      1.0000 0.35357  0.26343  0.82104  Biso   1.000  C
  C11      1.0000 0.90987  0.64643  0.82104  Biso   1.000  C
  C12      1.0000 0.73657  0.09013  0.82104  Biso   1.000  C
  C13      1.0000 0.09013  0.73657  0.17896  Biso   1.000  C
  C14      1.0000 0.26343  0.35357  0.17896  Biso   1.000  C
  C15      1.0000 0.64643  0.90987  0.17896  Biso   1.000  C
  C16      1.0000 0.02023  0.59677  0.15438  Biso   1.000  C
  C17      1.0000 0.57653  0.97977  0.15438  Biso   1.000  C
  C18      1.0000 0.40323  0.42347  0.15438  Biso   1.000  C
  C19      1.0000 0.72440  0.03310  0.52286  Biso   1.000  C
  C20      1.0000 0.96690  0.69130  0.52286  Biso   1.000  C
  C21      1.0000 0.30870  0.27560  0.52286  Biso   1.000  C
  C22      1.0000 0.69130  0.96690  0.47714  Biso   1.000  C
  C23      1.0000 0.27560  0.30870  0.47714  Biso   1.000  C
  C24      1.0000 0.03310  0.72440  0.47714  Biso   1.000  C
  C25      1.0000 0.39107  0.36643  0.85619  Biso   1.000  C
  C26      1.0000 0.63357  0.02463  0.85619  Biso   1.000  C
  C27      1.0000 0.97537  0.60893  0.85619  Biso   1.000  C
  C28      1.0000 0.35797  0.30023  0.81047  Biso   1.000  C
  C29      1.0000 0.94227  0.64203  0.81047  Biso   1.000  C
  C30      1.0000 0.69977  0.05773  0.81047  Biso   1.000  C
  C31      1.0000 0.05773  0.69977  0.18953  Biso   1.000  C
  C32      1.0000 0.30023  0.35797  0.18953  Biso   1.000  C
  C33      1.0000 0.64203  0.94227  0.18953  Biso   1.000  C
  C34      1.0000 0.02463  0.63357  0.14381  Biso   1.000  C
  C35      1.0000 0.60893  0.97537  0.14381  Biso   1.000  C
  C36      1.0000 0.36643  0.39107  0.14381  Biso   1.000  C
  H1       1.0000 0.69450  0.03040  0.52530  Biso   1.000  H
  H2       1.0000 0.96960  0.66410  0.52530  Biso   1.000  H
  H3       1.0000 0.33590  0.30550  0.52530  Biso   1.000  H
  H4       1.0000 0.66410  0.96960  0.47470  Biso   1.000  H
  H5       1.0000 0.30550  0.33590  0.47470  Biso   1.000  H
  H6       1.0000 0.03040  0.69450  0.47470  Biso   1.000  H
  H7       1.0000 0.36117  0.36373  0.85863  Biso   1.000  H
  H8       1.0000 0.63627  0.99743  0.85863  Biso   1.000  H
  H9       1.0000 0.00257  0.63883  0.85863  Biso   1.000  H
  H10      1.0000 0.33077  0.30293  0.80803  Biso   1.000  H
  H11      1.0000 0.97217  0.66923  0.80803  Biso   1.000  H
  H12      1.0000 0.69707  0.02783  0.80803  Biso   1.000  H
  H13      1.0000 0.02783  0.69707  0.19197  Biso   1.000  H
  H14      1.0000 0.30293  0.33077  0.19197  Biso   1.000  H
  H15      1.0000 0.66923  0.97217  0.19197  Biso   1.000  H
  H16      1.0000 0.99743  0.63627  0.14137  Biso   1.000  H
  H17      1.0000 0.63883  0.00257  0.14137  Biso   1.000  H
  H18      1.0000 0.36373  0.36117  0.14137  Biso   1.000  H
  C37      1.0000 0.73660  0.00050  0.52973  Biso   1.000  C
  C38      1.0000 0.99950  0.73610  0.52973  Biso   1.000  C
  C39      1.0000 0.26390  0.26340  0.52973  Biso   1.000  C
  C40      1.0000 0.73610  0.99950  0.47027  Biso   1.000  C
  C41      1.0000 0.26340  0.26390  0.47027  Biso   1.000  C
  C42      1.0000 0.00050  0.73660  0.47027  Biso   1.000  C
  C43      1.0000 0.40327  0.33383  0.86306  Biso   1.000  C
  C44      1.0000 0.66617  0.06943  0.86306  Biso   1.000  C
  C45      1.0000 0.93057  0.59673  0.86306  Biso   1.000  C
  C46      1.0000 0.40277  0.33283  0.80360  Biso   1.000  C
  C47      1.0000 0.93007  0.59723  0.80360  Biso   1.000  C
  C48      1.0000 0.66717  0.06993  0.80360  Biso   1.000  C
  C49      1.0000 0.06993  0.66717  0.19640  Biso   1.000  C
  C50      1.0000 0.33283  0.40277  0.19640  Biso   1.000  C
  C51      1.0000 0.59723  0.93007  0.19640  Biso   1.000  C
  C52      1.0000 0.06943  0.66617  0.13694  Biso   1.000  C
  C53      1.0000 0.59673  0.93057  0.13694  Biso   1.000  C
  C54      1.0000 0.33383  0.40327  0.13694  Biso   1.000  C
  H19      1.0000 0.71490  0.97590  0.53680  Biso   1.000  H
  H20      1.0000 0.02410  0.73900  0.53680  Biso   1.000  H
  H21      1.0000 0.26100  0.28510  0.53680  Biso   1.000  H
  H22      1.0000 0.73900  0.02410  0.46320  Biso   1.000  H
  H23      1.0000 0.28510  0.26100  0.46320  Biso   1.000  H
  H24      1.0000 0.97590  0.71490  0.46320  Biso   1.000  H
  H25      1.0000 0.38157  0.30923  0.87013  Biso   1.000  H
  H26      1.0000 0.69077  0.07233  0.87013  Biso   1.000  H
  H27      1.0000 0.92767  0.61843  0.87013  Biso   1.000  H
  H28      1.0000 0.40567  0.35743  0.79653  Biso   1.000  H
  H29      1.0000 0.95177  0.59433  0.79653  Biso   1.000  H
  H30      1.0000 0.64257  0.04823  0.79653  Biso   1.000  H
  H31      1.0000 0.04823  0.64257  0.20347  Biso   1.000  H
  H32      1.0000 0.35743  0.40567  0.20347  Biso   1.000  H
  H33      1.0000 0.59433  0.95177  0.20347  Biso   1.000  H
  H34      1.0000 0.07233  0.69077  0.12987  Biso   1.000  H
  H35      1.0000 0.61843  0.92767  0.12987  Biso   1.000  H
  H36      1.0000 0.30923  0.38157  0.12987  Biso   1.000  H
  C55      1.0000 0.78120  0.00470  0.52604  Biso   1.000  C
  C56      1.0000 0.99530  0.77650  0.52604  Biso   1.000  C
  C57      1.0000 0.22350  0.21880  0.52604  Biso   1.000  C
  C58      1.0000 0.77650  0.99530  0.47396  Biso   1.000  C
  C59      1.0000 0.21880  0.22350  0.47396  Biso   1.000  C
  C60      1.0000 0.00470  0.78120  0.47396  Biso   1.000  C
  C61      1.0000 0.44787  0.33803  0.85937  Biso   1.000  C
  C62      1.0000 0.66197  0.10983  0.85937  Biso   1.000  C
  C63      1.0000 0.89017  0.55213  0.85937  Biso   1.000  C
  C64      1.0000 0.44317  0.32863  0.80729  Biso   1.000  C
  C65      1.0000 0.88547  0.55683  0.80729  Biso   1.000  C
  C66      1.0000 0.67137  0.11453  0.80729  Biso   1.000  C
  C67      1.0000 0.11453  0.67137  0.19271  Biso   1.000  C
  C68      1.0000 0.32863  0.44317  0.19271  Biso   1.000  C
  C69      1.0000 0.55683  0.88547  0.19271  Biso   1.000  C
  C70      1.0000 0.10983  0.66197  0.14063  Biso   1.000  C
  C71      1.0000 0.55213  0.89017  0.14063  Biso   1.000  C
  C72      1.0000 0.33803  0.44787  0.14063  Biso   1.000  C
  C73      1.0000 0.81360  0.04150  0.51550  Biso   1.000  C
  C74      1.0000 0.95850  0.77210  0.51550  Biso   1.000  C
  C75      1.0000 0.22790  0.18640  0.51550  Biso   1.000  C
  C76      1.0000 0.77210  0.95850  0.48450  Biso   1.000  C
  C77      1.0000 0.18640  0.22790  0.48450  Biso   1.000  C
  C78      1.0000 0.04150  0.81360  0.48450  Biso   1.000  C
  C79      1.0000 0.48027  0.37483  0.84883  Biso   1.000  C
  C80      1.0000 0.62517  0.10543  0.84883  Biso   1.000  C
  C81      1.0000 0.89457  0.51973  0.84883  Biso   1.000  C
  C82      1.0000 0.43877  0.29183  0.81783  Biso   1.000  C
  C83      1.0000 0.85307  0.56123  0.81783  Biso   1.000  C
  C84      1.0000 0.70817  0.14693  0.81783  Biso   1.000  C
  C85      1.0000 0.14693  0.70817  0.18217  Biso   1.000  C
  C86      1.0000 0.29183  0.43877  0.18217  Biso   1.000  C
  C87      1.0000 0.56123  0.85307  0.18217  Biso   1.000  C
  C88      1.0000 0.10543  0.62517  0.15117  Biso   1.000  C
  C89      1.0000 0.51973  0.89457  0.15117  Biso   1.000  C
  C90      1.0000 0.37483  0.48027  0.15117  Biso   1.000  C
  H37      1.0000 0.84350  0.04420  0.51300  Biso   1.000  H
  H38      1.0000 0.95580  0.79930  0.51300  Biso   1.000  H
  H39      1.0000 0.20070  0.15650  0.51300  Biso   1.000  H
  H40      1.0000 0.79930  0.95580  0.48700  Biso   1.000  H
  H41      1.0000 0.15650  0.20070  0.48700  Biso   1.000  H
  H42      1.0000 0.04420  0.84350  0.48700  Biso   1.000  H
  H43      1.0000 0.51017  0.37753  0.84633  Biso   1.000  H
  H44      1.0000 0.62247  0.13263  0.84633  Biso   1.000  H
  H45      1.0000 0.86737  0.48983  0.84633  Biso   1.000  H
  H46      1.0000 0.46597  0.28913  0.82033  Biso   1.000  H
  H47      1.0000 0.82317  0.53403  0.82033  Biso   1.000  H
  H48      1.0000 0.71087  0.17683  0.82033  Biso   1.000  H
  H49      1.0000 0.17683  0.71087  0.17967  Biso   1.000  H
  H50      1.0000 0.28913  0.46597  0.17967  Biso   1.000  H
  H51      1.0000 0.53403  0.82317  0.17967  Biso   1.000  H
  H52      1.0000 0.13263  0.62247  0.15367  Biso   1.000  H
  H53      1.0000 0.48983  0.86737  0.15367  Biso   1.000  H
  H54      1.0000 0.37753  0.51017  0.15367  Biso   1.000  H
  C91      1.0000 0.80140  0.07410  0.50860  Biso   1.000  C
  C92      1.0000 0.92590  0.72730  0.50860  Biso   1.000  C
  C93      1.0000 0.27270  0.19860  0.50860  Biso   1.000  C
  C94      1.0000 0.72730  0.92590  0.49140  Biso   1.000  C
  C95      1.0000 0.19860  0.27270  0.49140  Biso   1.000  C
  C96      1.0000 0.07410  0.80140  0.49140  Biso   1.000  C
  C97      1.0000 0.46807  0.40743  0.84193  Biso   1.000  C
  C98      1.0000 0.59257  0.06063  0.84193  Biso   1.000  C
  C99      1.0000 0.93937  0.53193  0.84193  Biso   1.000  C
  C100     1.0000 0.39397  0.25923  0.82473  Biso   1.000  C
  C101     1.0000 0.86527  0.60603  0.82473  Biso   1.000  C
  C102     1.0000 0.74077  0.13473  0.82473  Biso   1.000  C
  C103     1.0000 0.13473  0.74077  0.17527  Biso   1.000  C
  C104     1.0000 0.25923  0.39397  0.17527  Biso   1.000  C
  C105     1.0000 0.60603  0.86527  0.17527  Biso   1.000  C
  C106     1.0000 0.06063  0.59257  0.15807  Biso   1.000  C
  C107     1.0000 0.53193  0.93937  0.15807  Biso   1.000  C
  C108     1.0000 0.40743  0.46807  0.15807  Biso   1.000  C
  H55      1.0000 0.82310  0.09870  0.50150  Biso   1.000  H
  H56      1.0000 0.90130  0.72440  0.50150  Biso   1.000  H
  H57      1.0000 0.27560  0.17690  0.50150  Biso   1.000  H
  H58      1.0000 0.72440  0.90130  0.49850  Biso   1.000  H
  H59      1.0000 0.17690  0.27560  0.49850  Biso   1.000  H
  H60      1.0000 0.09870  0.82310  0.49850  Biso   1.000  H
  H61      1.0000 0.48977  0.43203  0.83483  Biso   1.000  H
  H62      1.0000 0.56797  0.05773  0.83483  Biso   1.000  H
  H63      1.0000 0.94227  0.51023  0.83483  Biso   1.000  H
  H64      1.0000 0.39107  0.23463  0.83183  Biso   1.000  H
  H65      1.0000 0.84357  0.60893  0.83183  Biso   1.000  H
  H66      1.0000 0.76537  0.15643  0.83183  Biso   1.000  H
  H67      1.0000 0.15643  0.76537  0.16817  Biso   1.000  H
  H68      1.0000 0.23463  0.39107  0.16817  Biso   1.000  H
  H69      1.0000 0.60893  0.84357  0.16817  Biso   1.000  H
  H70      1.0000 0.05773  0.56797  0.16517  Biso   1.000  H
  H71      1.0000 0.51023  0.94227  0.16517  Biso   1.000  H
  H72      1.0000 0.43203  0.48977  0.16517  Biso   1.000  H
  C109     1.0000 0.79500  0.96960  0.53380  Biso   1.000  C
  C110     1.0000 0.03040  0.82540  0.53380  Biso   1.000  C
  C111     1.0000 0.17460  0.20500  0.53380  Biso   1.000  C
  C112     1.0000 0.82540  0.03040  0.46620  Biso   1.000  C
  C113     1.0000 0.20500  0.17460  0.46620  Biso   1.000  C
  C114     1.0000 0.96960  0.79500  0.46620  Biso   1.000  C
  C115     1.0000 0.46167  0.30293  0.86713  Biso   1.000  C
  C116     1.0000 0.69707  0.15873  0.86713  Biso   1.000  C
  C117     1.0000 0.84127  0.53833  0.86713  Biso   1.000  C
  C118     1.0000 0.49207  0.36373  0.79953  Biso   1.000  C
  C119     1.0000 0.87167  0.50793  0.79953  Biso   1.000  C
  C120     1.0000 0.63627  0.12833  0.79953  Biso   1.000  C
  C121     1.0000 0.12833  0.63627  0.20047  Biso   1.000  C
  C122     1.0000 0.36373  0.49207  0.20047  Biso   1.000  C
  C123     1.0000 0.50793  0.87167  0.20047  Biso   1.000  C
  C124     1.0000 0.15873  0.69707  0.13287  Biso   1.000  C
  C125     1.0000 0.53833  0.84127  0.13287  Biso   1.000  C
  C126     1.0000 0.30293  0.46167  0.13287  Biso   1.000  C
  C127     1.0000 0.77680  0.85720  0.51860  Biso   1.000  C
  C128     1.0000 0.14280  0.91960  0.51860  Biso   1.000  C
  C129     1.0000 0.08040  0.22320  0.51860  Biso   1.000  C
  C130     1.0000 0.91960  0.14280  0.48140  Biso   1.000  C
  C131     1.0000 0.22320  0.08040  0.48140  Biso   1.000  C
  C132     1.0000 0.85720  0.77680  0.48140  Biso   1.000  C
  C133     1.0000 0.44347  0.19053  0.85193  Biso   1.000  C
  C134     1.0000 0.80947  0.25293  0.85193  Biso   1.000  C
  C135     1.0000 0.74707  0.55653  0.85193  Biso   1.000  C
  C136     1.0000 0.58627  0.47613  0.81473  Biso   1.000  C
  C137     1.0000 0.88987  0.41373  0.81473  Biso   1.000  C
  C138     1.0000 0.52387  0.11013  0.81473  Biso   1.000  C
  C139     1.0000 0.11013  0.52387  0.18527  Biso   1.000  C
  C140     1.0000 0.47613  0.58627  0.18527  Biso   1.000  C
  C141     1.0000 0.41373  0.88987  0.18527  Biso   1.000  C
  C142     1.0000 0.25293  0.80947  0.14807  Biso   1.000  C
  C143     1.0000 0.55653  0.74707  0.14807  Biso   1.000  C
  C144     1.0000 0.19053  0.44347  0.14807  Biso   1.000  C
  O217     1.0000 0.59170  0.28740  0.35400  Biso   1.000  O
  O218     1.0000 0.71260  0.30430  0.35400  Biso   1.000  O
  O219     1.0000 0.69570  0.40830  0.35400  Biso   1.000  O
  O220     1.0000 0.30430  0.71260  0.64600  Biso   1.000  O
  O221     1.0000 0.40830  0.69570  0.64600  Biso   1.000  O
  O222     1.0000 0.28740  0.59170  0.64600  Biso   1.000  O
  O223     1.0000 0.25837  0.62073  0.68733  Biso   1.000  O
  O224     1.0000 0.37927  0.63763  0.68733  Biso   1.000  O
  O225     1.0000 0.36237  0.74163  0.68733  Biso   1.000  O
  O226     1.0000 0.97097  0.04593  0.97933  Biso   1.000  O
  O227     1.0000 0.07497  0.02903  0.97933  Biso   1.000  O
  O228     1.0000 0.95407  0.92503  0.97933  Biso   1.000  O
  O229     1.0000 0.92503  0.95407  0.02067  Biso   1.000  O
  O230     1.0000 0.04593  0.97097  0.02067  Biso   1.000  O
  O231     1.0000 0.02903  0.07497  0.02067  Biso   1.000  O
  O232     1.0000 0.63763  0.37927  0.31267  Biso   1.000  O
  O233     1.0000 0.74163  0.36237  0.31267  Biso   1.000  O
  O234     1.0000 0.62073  0.25837  0.31267  Biso   1.000  O
  O235     1.0000 0.37860  0.20360  0.39880  Biso   1.000  O
  O236     1.0000 0.79640  0.17500  0.39880  Biso   1.000  O
  O237     1.0000 0.82500  0.62140  0.39880  Biso   1.000  O
  O238     1.0000 0.17500  0.79640  0.60120  Biso   1.000  O
  O239     1.0000 0.62140  0.82500  0.60120  Biso   1.000  O
  O240     1.0000 0.20360  0.37860  0.60120  Biso   1.000  O
  O241     1.0000 0.04527  0.53693  0.73213  Biso   1.000  O
  O242     1.0000 0.46307  0.50833  0.73213  Biso   1.000  O
  O243     1.0000 0.49167  0.95473  0.73213  Biso   1.000  O
  O244     1.0000 0.84167  0.12973  0.93453  Biso   1.000  O
  O245     1.0000 0.28807  0.15833  0.93453  Biso   1.000  O
  O246     1.0000 0.87027  0.71193  0.93453  Biso   1.000  O
  O247     1.0000 0.71193  0.87027  0.06547  Biso   1.000  O
  O248     1.0000 0.12973  0.84167  0.06547  Biso   1.000  O
  O249     1.0000 0.15833  0.28807  0.06547  Biso   1.000  O
  O250     1.0000 0.50833  0.46307  0.26787  Biso   1.000  O
  O251     1.0000 0.95473  0.49167  0.26787  Biso   1.000  O
  O252     1.0000 0.53693  0.04527  0.26787  Biso   1.000  O
  C145     1.0000 0.60870  0.05890  0.47200  Biso   1.000  C
  C146     1.0000 0.94110  0.54980  0.47200  Biso   1.000  C
  C147     1.0000 0.45020  0.39130  0.47200  Biso   1.000  C
  C148     1.0000 0.54980  0.94110  0.52800  Biso   1.000  C
  C149     1.0000 0.39130  0.45020  0.52800  Biso   1.000  C
  C150     1.0000 0.05890  0.60870  0.52800  Biso   1.000  C
  C151     1.0000 0.27537  0.39223  0.80533  Biso   1.000  C
  C152     1.0000 0.60777  0.88313  0.80533  Biso   1.000  C
  C153     1.0000 0.11687  0.72463  0.80533  Biso   1.000  C
  C154     1.0000 0.21647  0.27443  0.86133  Biso   1.000  C
  C155     1.0000 0.05797  0.78353  0.86133  Biso   1.000  C
  C156     1.0000 0.72557  0.94203  0.86133  Biso   1.000  C
  C157     1.0000 0.94203  0.72557  0.13867  Biso   1.000  C
  C158     1.0000 0.27443  0.21647  0.13867  Biso   1.000  C
  C159     1.0000 0.78353  0.05797  0.13867  Biso   1.000  C
  C160     1.0000 0.88313  0.60777  0.19467  Biso   1.000  C
  C161     1.0000 0.72463  0.11687  0.19467  Biso   1.000  C
  C162     1.0000 0.39223  0.27537  0.19467  Biso   1.000  C
  H73      1.0000 0.57450  0.04870  0.47120  Biso   1.000  H
  H74      1.0000 0.95130  0.52580  0.47120  Biso   1.000  H
  H75      1.0000 0.47420  0.42550  0.47120  Biso   1.000  H
  H76      1.0000 0.52580  0.95130  0.52880  Biso   1.000  H
  H77      1.0000 0.42550  0.47420  0.52880  Biso   1.000  H
  H78      1.0000 0.04870  0.57450  0.52880  Biso   1.000  H
  H79      1.0000 0.24117  0.38203  0.80453  Biso   1.000  H
  H80      1.0000 0.61797  0.85913  0.80453  Biso   1.000  H
  H81      1.0000 0.14087  0.75883  0.80453  Biso   1.000  H
  H82      1.0000 0.19247  0.28463  0.86213  Biso   1.000  H
  H83      1.0000 0.09217  0.80753  0.86213  Biso   1.000  H
  H84      1.0000 0.71537  0.90783  0.86213  Biso   1.000  H
  H85      1.0000 0.90783  0.71537  0.13787  Biso   1.000  H
  H86      1.0000 0.28463  0.19247  0.13787  Biso   1.000  H
  H87      1.0000 0.80753  0.09217  0.13787  Biso   1.000  H
  H88      1.0000 0.85913  0.61797  0.19547  Biso   1.000  H
  H89      1.0000 0.75883  0.14087  0.19547  Biso   1.000  H
  H90      1.0000 0.38203  0.24117  0.19547  Biso   1.000  H
  H91      1.0000 0.61090  0.03480  0.47890  Biso   1.000  H
  H92      1.0000 0.96520  0.57610  0.47890  Biso   1.000  H
  H93      1.0000 0.42390  0.38910  0.47890  Biso   1.000  H
  H94      1.0000 0.57610  0.96520  0.52110  Biso   1.000  H
  H95      1.0000 0.38910  0.42390  0.52110  Biso   1.000  H
  H96      1.0000 0.03480  0.61090  0.52110  Biso   1.000  H
  H97      1.0000 0.27757  0.36813  0.81223  Biso   1.000  H
  H98      1.0000 0.63187  0.90943  0.81223  Biso   1.000  H
  H99      1.0000 0.09057  0.72243  0.81223  Biso   1.000  H
  H100     1.0000 0.24277  0.29853  0.85443  Biso   1.000  H
  H101     1.0000 0.05577  0.75723  0.85443  Biso   1.000  H
  H102     1.0000 0.70147  0.94423  0.85443  Biso   1.000  H
  H103     1.0000 0.94423  0.70147  0.14557  Biso   1.000  H
  H104     1.0000 0.29853  0.24277  0.14557  Biso   1.000  H
  H105     1.0000 0.75723  0.05577  0.14557  Biso   1.000  H
  H106     1.0000 0.90943  0.63187  0.18777  Biso   1.000  H
  H107     1.0000 0.72243  0.09057  0.18777  Biso   1.000  H
  H108     1.0000 0.36813  0.27757  0.18777  Biso   1.000  H
  C163     1.0000 0.61230  0.21890  0.44170  Biso   1.000  C
  C164     1.0000 0.78110  0.39340  0.44170  Biso   1.000  C
  C165     1.0000 0.60660  0.38770  0.44170  Biso   1.000  C
  C166     1.0000 0.39340  0.78110  0.55830  Biso   1.000  C
  C167     1.0000 0.38770  0.60660  0.55830  Biso   1.000  C
  C168     1.0000 0.21890  0.61230  0.55830  Biso   1.000  C
  C169     1.0000 0.27897  0.55223  0.77503  Biso   1.000  C
  C170     1.0000 0.44777  0.72673  0.77503  Biso   1.000  C
  C171     1.0000 0.27327  0.72103  0.77503  Biso   1.000  C
  C172     1.0000 0.06007  0.11443  0.89163  Biso   1.000  C
  C173     1.0000 0.05437  0.93993  0.89163  Biso   1.000  C
  C174     1.0000 0.88557  0.94563  0.89163  Biso   1.000  C
  C175     1.0000 0.94563  0.88557  0.10837  Biso   1.000  C
  C176     1.0000 0.11443  0.06007  0.10837  Biso   1.000  C
  C177     1.0000 0.93993  0.05437  0.10837  Biso   1.000  C
  C178     1.0000 0.72673  0.44777  0.22497  Biso   1.000  C
  C179     1.0000 0.72103  0.27327  0.22497  Biso   1.000  C
  C180     1.0000 0.55223  0.27897  0.22497  Biso   1.000  C
  C181     1.0000 0.63420  0.24640  0.42820  Biso   1.000  C
  C182     1.0000 0.75360  0.38780  0.42820  Biso   1.000  C
  C183     1.0000 0.61220  0.36580  0.42820  Biso   1.000  C
  C184     1.0000 0.38780  0.75360  0.57180  Biso   1.000  C
  C185     1.0000 0.36580  0.61220  0.57180  Biso   1.000  C
  C186     1.0000 0.24640  0.63420  0.57180  Biso   1.000  C
  C187     1.0000 0.30087  0.57973  0.76153  Biso   1.000  C
  C188     1.0000 0.42027  0.72113  0.76153  Biso   1.000  C
  C189     1.0000 0.27887  0.69913  0.76153  Biso   1.000  C
  C190     1.0000 0.05447  0.08693  0.90513  Biso   1.000  C
  C191     1.0000 0.03247  0.94553  0.90513  Biso   1.000  C
  C192     1.0000 0.91307  0.96753  0.90513  Biso   1.000  C
  C193     1.0000 0.96753  0.91307  0.09487  Biso   1.000  C
  C194     1.0000 0.08693  0.05447  0.09487  Biso   1.000  C
  C195     1.0000 0.94553  0.03247  0.09487  Biso   1.000  C
  C196     1.0000 0.72113  0.42027  0.23847  Biso   1.000  C
  C197     1.0000 0.69913  0.27887  0.23847  Biso   1.000  C
  C198     1.0000 0.57973  0.30087  0.23847  Biso   1.000  C
  H109     1.0000 0.66780  0.26550  0.42760  Biso   1.000  H
  H110     1.0000 0.73450  0.40230  0.42760  Biso   1.000  H
  H111     1.0000 0.59770  0.33220  0.42760  Biso   1.000  H
  H112     1.0000 0.40230  0.73450  0.57240  Biso   1.000  H
  H113     1.0000 0.33220  0.59770  0.57240  Biso   1.000  H
  H114     1.0000 0.26550  0.66780  0.57240  Biso   1.000  H
  H115     1.0000 0.33447  0.59883  0.76093  Biso   1.000  H
  H116     1.0000 0.40117  0.73563  0.76093  Biso   1.000  H
  H117     1.0000 0.26437  0.66553  0.76093  Biso   1.000  H
  H118     1.0000 0.06897  0.06783  0.90573  Biso   1.000  H
  H119     1.0000 0.99887  0.93103  0.90573  Biso   1.000  H
  H120     1.0000 0.93217  0.00113  0.90573  Biso   1.000  H
  H121     1.0000 0.00113  0.93217  0.09427  Biso   1.000  H
  H122     1.0000 0.06783  0.06897  0.09427  Biso   1.000  H
  H123     1.0000 0.93103  0.99887  0.09427  Biso   1.000  H
  H124     1.0000 0.73563  0.40117  0.23907  Biso   1.000  H
  H125     1.0000 0.66553  0.26437  0.23907  Biso   1.000  H
  H126     1.0000 0.59883  0.33447  0.23907  Biso   1.000  H
  C199     1.0000 0.18260  0.52060  0.22050  Biso   1.000  C
  C200     1.0000 0.47940  0.66200  0.22050  Biso   1.000  C
  C201     1.0000 0.33800  0.81740  0.22050  Biso   1.000  C
  C202     1.0000 0.66200  0.47940  0.77950  Biso   1.000  C
  C203     1.0000 0.81740  0.33800  0.77950  Biso   1.000  C
  C204     1.0000 0.52060  0.18260  0.77950  Biso   1.000  C
  C205     1.0000 0.84927  0.85393  0.55383  Biso   1.000  C
  C206     1.0000 0.14607  0.99533  0.55383  Biso   1.000  C
  C207     1.0000 0.00467  0.15073  0.55383  Biso   1.000  C
  C208     1.0000 0.32867  0.81273  0.11283  Biso   1.000  C
  C209     1.0000 0.48407  0.67133  0.11283  Biso   1.000  C
  C210     1.0000 0.18727  0.51593  0.11283  Biso   1.000  C
  C211     1.0000 0.51593  0.18727  0.88717  Biso   1.000  C
  C212     1.0000 0.81273  0.32867  0.88717  Biso   1.000  C
  C213     1.0000 0.67133  0.48407  0.88717  Biso   1.000  C
  C214     1.0000 0.99533  0.14607  0.44617  Biso   1.000  C
  C215     1.0000 0.15073  0.00467  0.44617  Biso   1.000  C
  C216     1.0000 0.85393  0.84927  0.44617  Biso   1.000  C
  C217     1.0000 0.55750  0.22610  0.41540  Biso   1.000  C
  C218     1.0000 0.77390  0.33140  0.41540  Biso   1.000  C
  C219     1.0000 0.66860  0.44250  0.41540  Biso   1.000  C
  C220     1.0000 0.33140  0.77390  0.58460  Biso   1.000  C
  C221     1.0000 0.44250  0.66860  0.58460  Biso   1.000  C
  C222     1.0000 0.22610  0.55750  0.58460  Biso   1.000  C
  C223     1.0000 0.22417  0.55943  0.74873  Biso   1.000  C
  C224     1.0000 0.44057  0.66473  0.74873  Biso   1.000  C
  C225     1.0000 0.33527  0.77583  0.74873  Biso   1.000  C
  C226     1.0000 0.99807  0.10723  0.91793  Biso   1.000  C
  C227     1.0000 0.10917  0.00193  0.91793  Biso   1.000  C
  C228     1.0000 0.89277  0.89083  0.91793  Biso   1.000  C
  C229     1.0000 0.89083  0.89277  0.08207  Biso   1.000  C
  C230     1.0000 0.10723  0.99807  0.08207  Biso   1.000  C
  C231     1.0000 0.00193  0.10917  0.08207  Biso   1.000  C
  C232     1.0000 0.66473  0.44057  0.25127  Biso   1.000  C
  C233     1.0000 0.77583  0.33527  0.25127  Biso   1.000  C
  C234     1.0000 0.55943  0.22417  0.25127  Biso   1.000  C
  C235     1.0000 0.56060  0.19680  0.44370  Biso   1.000  C
  C236     1.0000 0.80320  0.36380  0.44370  Biso   1.000  C
  C237     1.0000 0.63620  0.43940  0.44370  Biso   1.000  C
  C238     1.0000 0.36380  0.80320  0.55630  Biso   1.000  C
  C239     1.0000 0.43940  0.63620  0.55630  Biso   1.000  C
  C240     1.0000 0.19680  0.56060  0.55630  Biso   1.000  C
  C241     1.0000 0.22727  0.53013  0.77703  Biso   1.000  C
  C242     1.0000 0.46987  0.69713  0.77703  Biso   1.000  C
  C243     1.0000 0.30287  0.77273  0.77703  Biso   1.000  C
  C244     1.0000 0.03047  0.13653  0.88963  Biso   1.000  C
  C245     1.0000 0.10607  0.96953  0.88963  Biso   1.000  C
  C246     1.0000 0.86347  0.89393  0.88963  Biso   1.000  C
  C247     1.0000 0.89393  0.86347  0.11037  Biso   1.000  C
  C248     1.0000 0.13653  0.03047  0.11037  Biso   1.000  C
  C249     1.0000 0.96953  0.10607  0.11037  Biso   1.000  C
  C250     1.0000 0.69713  0.46987  0.22297  Biso   1.000  C
  C251     1.0000 0.77273  0.30287  0.22297  Biso   1.000  C
  C252     1.0000 0.53013  0.22727  0.22297  Biso   1.000  C
  H127     1.0000 0.54520  0.18070  0.45350  Biso   1.000  H
  H128     1.0000 0.81930  0.36450  0.45350  Biso   1.000  H
  H129     1.0000 0.63550  0.45480  0.45350  Biso   1.000  H
  H130     1.0000 0.36450  0.81930  0.54650  Biso   1.000  H
  H131     1.0000 0.45480  0.63550  0.54650  Biso   1.000  H
  H132     1.0000 0.18070  0.54520  0.54650  Biso   1.000  H
  H133     1.0000 0.21187  0.51403  0.78683  Biso   1.000  H
  H134     1.0000 0.48597  0.69783  0.78683  Biso   1.000  H
  H135     1.0000 0.30217  0.78813  0.78683  Biso   1.000  H
  H136     1.0000 0.03117  0.15263  0.87983  Biso   1.000  H
  H137     1.0000 0.12147  0.96883  0.87983  Biso   1.000  H
  H138     1.0000 0.84737  0.87853  0.87983  Biso   1.000  H
  H139     1.0000 0.87853  0.84737  0.12017  Biso   1.000  H
  H140     1.0000 0.15263  0.03117  0.12017  Biso   1.000  H
  H141     1.0000 0.96883  0.12147  0.12017  Biso   1.000  H
  H142     1.0000 0.69783  0.48597  0.21317  Biso   1.000  H
  H143     1.0000 0.78813  0.30217  0.21317  Biso   1.000  H
  H144     1.0000 0.51403  0.21187  0.21317  Biso   1.000  H
  C253     1.0000 0.51150  0.32640  0.38670  Biso   1.000  C
  C254     1.0000 0.67360  0.18510  0.38670  Biso   1.000  C
  C255     1.0000 0.81490  0.48850  0.38670  Biso   1.000  C
  C256     1.0000 0.18510  0.67360  0.61330  Biso   1.000  C
  C257     1.0000 0.48850  0.81490  0.61330  Biso   1.000  C
  C258     1.0000 0.32640  0.51150  0.61330  Biso   1.000  C
  C259     1.0000 0.17817  0.65973  0.72003  Biso   1.000  C
  C260     1.0000 0.34027  0.51843  0.72003  Biso   1.000  C
  C261     1.0000 0.48157  0.82183  0.72003  Biso   1.000  C
  C262     1.0000 0.85177  0.00693  0.94663  Biso   1.000  C
  C263     1.0000 0.15517  0.14823  0.94663  Biso   1.000  C
  C264     1.0000 0.99307  0.84483  0.94663  Biso   1.000  C
  C265     1.0000 0.84483  0.99307  0.05337  Biso   1.000  C
  C266     1.0000 0.00693  0.85177  0.05337  Biso   1.000  C
  C267     1.0000 0.14823  0.15517  0.05337  Biso   1.000  C
  C268     1.0000 0.51843  0.34027  0.27997  Biso   1.000  C
  C269     1.0000 0.82183  0.48157  0.27997  Biso   1.000  C
  C270     1.0000 0.65973  0.17817  0.27997  Biso   1.000  C
  C271     1.0000 0.63250  0.10600  0.48210  Biso   1.000  C
  C272     1.0000 0.89400  0.52650  0.48210  Biso   1.000  C
  C273     1.0000 0.47350  0.36750  0.48210  Biso   1.000  C
  C274     1.0000 0.52650  0.89400  0.51790  Biso   1.000  C
  C275     1.0000 0.36750  0.47350  0.51790  Biso   1.000  C
  C276     1.0000 0.10600  0.63250  0.51790  Biso   1.000  C
  C277     1.0000 0.29917  0.43933  0.81543  Biso   1.000  C
  C278     1.0000 0.56067  0.85983  0.81543  Biso   1.000  C
  C279     1.0000 0.14017  0.70083  0.81543  Biso   1.000  C
  C280     1.0000 0.19317  0.22733  0.85123  Biso   1.000  C
  C281     1.0000 0.03417  0.80683  0.85123  Biso   1.000  C
  C282     1.0000 0.77267  0.96583  0.85123  Biso   1.000  C
  C283     1.0000 0.96583  0.77267  0.14877  Biso   1.000  C
  C284     1.0000 0.22733  0.19317  0.14877  Biso   1.000  C
  C285     1.0000 0.80683  0.03417  0.14877  Biso   1.000  C
  C286     1.0000 0.85983  0.56067  0.18457  Biso   1.000  C
  C287     1.0000 0.70083  0.14017  0.18457  Biso   1.000  C
  C288     1.0000 0.43933  0.29917  0.18457  Biso   1.000  C
  C289     1.0000 0.53370  0.20060  0.43000  Biso   1.000  C
  C290     1.0000 0.79940  0.33310  0.43000  Biso   1.000  C
  C291     1.0000 0.66690  0.46630  0.43000  Biso   1.000  C
  C292     1.0000 0.33310  0.79940  0.57000  Biso   1.000  C
  C293     1.0000 0.46630  0.66690  0.57000  Biso   1.000  C
  C294     1.0000 0.20060  0.53370  0.57000  Biso   1.000  C
  C295     1.0000 0.20037  0.53393  0.76333  Biso   1.000  C
  C296     1.0000 0.46607  0.66643  0.76333  Biso   1.000  C
  C297     1.0000 0.33357  0.79963  0.76333  Biso   1.000  C
  C298     1.0000 0.99977  0.13273  0.90333  Biso   1.000  C
  C299     1.0000 0.13297  0.00023  0.90333  Biso   1.000  C
  C300     1.0000 0.86727  0.86703  0.90333  Biso   1.000  C
  C301     1.0000 0.86703  0.86727  0.09667  Biso   1.000  C
  C302     1.0000 0.13273  0.99977  0.09667  Biso   1.000  C
  C303     1.0000 0.00023  0.13297  0.09667  Biso   1.000  C
  C304     1.0000 0.66643  0.46607  0.23667  Biso   1.000  C
  C305     1.0000 0.79963  0.33357  0.23667  Biso   1.000  C
  C306     1.0000 0.53393  0.20037  0.23667  Biso   1.000  C
  H145     1.0000 0.50010  0.18600  0.43080  Biso   1.000  H
  H146     1.0000 0.81400  0.31410  0.43080  Biso   1.000  H
  H147     1.0000 0.68590  0.49990  0.43080  Biso   1.000  H
  H148     1.0000 0.31410  0.81400  0.56920  Biso   1.000  H
  H149     1.0000 0.49990  0.68590  0.56920  Biso   1.000  H
  H150     1.0000 0.18600  0.50010  0.56920  Biso   1.000  H
  H151     1.0000 0.16677  0.51933  0.76413  Biso   1.000  H
  H152     1.0000 0.48067  0.64743  0.76413  Biso   1.000  H
  H153     1.0000 0.35257  0.83323  0.76413  Biso   1.000  H
  H154     1.0000 0.98077  0.14733  0.90253  Biso   1.000  H
  H155     1.0000 0.16657  0.01923  0.90253  Biso   1.000  H
  H156     1.0000 0.85267  0.83343  0.90253  Biso   1.000  H
  H157     1.0000 0.83343  0.85267  0.09747  Biso   1.000  H
  H158     1.0000 0.14733  0.98077  0.09747  Biso   1.000  H
  H159     1.0000 0.01923  0.16657  0.09747  Biso   1.000  H
  H160     1.0000 0.64743  0.48067  0.23587  Biso   1.000  H
  H161     1.0000 0.83323  0.35257  0.23587  Biso   1.000  H
  H162     1.0000 0.51933  0.16677  0.23587  Biso   1.000  H
  C307     1.0000 0.62480  0.05420  0.45430  Biso   1.000  C
  C308     1.0000 0.94580  0.57060  0.45430  Biso   1.000  C
  C309     1.0000 0.42940  0.37520  0.45430  Biso   1.000  C
  C310     1.0000 0.57060  0.94580  0.54570  Biso   1.000  C
  C311     1.0000 0.37520  0.42940  0.54570  Biso   1.000  C
  C312     1.0000 0.05420  0.62480  0.54570  Biso   1.000  C
  C313     1.0000 0.29147  0.38753  0.78763  Biso   1.000  C
  C314     1.0000 0.61247  0.90393  0.78763  Biso   1.000  C
  C315     1.0000 0.09607  0.70853  0.78763  Biso   1.000  C
  C316     1.0000 0.23727  0.27913  0.87903  Biso   1.000  C
  C317     1.0000 0.04187  0.76273  0.87903  Biso   1.000  C
  C318     1.0000 0.72087  0.95813  0.87903  Biso   1.000  C
  C319     1.0000 0.95813  0.72087  0.12097  Biso   1.000  C
  C320     1.0000 0.27913  0.23727  0.12097  Biso   1.000  C
  C321     1.0000 0.76273  0.04187  0.12097  Biso   1.000  C
  C322     1.0000 0.90393  0.61247  0.21237  Biso   1.000  C
  C323     1.0000 0.70853  0.09607  0.21237  Biso   1.000  C
  C324     1.0000 0.38753  0.29147  0.21237  Biso   1.000  C
  H163     1.0000 0.62000  0.07850  0.44830  Biso   1.000  H
  H164     1.0000 0.92150  0.54150  0.44830  Biso   1.000  H
  H165     1.0000 0.45850  0.38000  0.44830  Biso   1.000  H
  H166     1.0000 0.54150  0.92150  0.55170  Biso   1.000  H
  H167     1.0000 0.38000  0.45850  0.55170  Biso   1.000  H
  H168     1.0000 0.07850  0.62000  0.55170  Biso   1.000  H
  H169     1.0000 0.28667  0.41183  0.78163  Biso   1.000  H
  H170     1.0000 0.58817  0.87483  0.78163  Biso   1.000  H
  H171     1.0000 0.12517  0.71333  0.78163  Biso   1.000  H
  H172     1.0000 0.20817  0.25483  0.88503  Biso   1.000  H
  H173     1.0000 0.04667  0.79183  0.88503  Biso   1.000  H
  H174     1.0000 0.74517  0.95333  0.88503  Biso   1.000  H
  H175     1.0000 0.95333  0.74517  0.11497  Biso   1.000  H
  H176     1.0000 0.25483  0.20817  0.11497  Biso   1.000  H
  H177     1.0000 0.79183  0.04667  0.11497  Biso   1.000  H
  H178     1.0000 0.87483  0.58817  0.21837  Biso   1.000  H
  H179     1.0000 0.71333  0.12517  0.21837  Biso   1.000  H
  H180     1.0000 0.41183  0.28667  0.21837  Biso   1.000  H
  C325     1.0000 0.60420  0.24570  0.41450  Biso   1.000  C
  C326     1.0000 0.75430  0.35850  0.41450  Biso   1.000  C
  C327     1.0000 0.64150  0.39580  0.41450  Biso   1.000  C
  C328     1.0000 0.35850  0.75430  0.58550  Biso   1.000  C
  C329     1.0000 0.39580  0.64150  0.58550  Biso   1.000  C
  C330     1.0000 0.24570  0.60420  0.58550  Biso   1.000  C
  C331     1.0000 0.27087  0.57903  0.74783  Biso   1.000  C
  C332     1.0000 0.42097  0.69183  0.74783  Biso   1.000  C
  C333     1.0000 0.30817  0.72913  0.74783  Biso   1.000  C
  C334     1.0000 0.02517  0.08763  0.91883  Biso   1.000  C
  C335     1.0000 0.06247  0.97483  0.91883  Biso   1.000  C
  C336     1.0000 0.91237  0.93753  0.91883  Biso   1.000  C
  C337     1.0000 0.93753  0.91237  0.08117  Biso   1.000  C
  C338     1.0000 0.08763  0.02517  0.08117  Biso   1.000  C
  C339     1.0000 0.97483  0.06247  0.08117  Biso   1.000  C
  C340     1.0000 0.69183  0.42097  0.25217  Biso   1.000  C
  C341     1.0000 0.72913  0.30817  0.25217  Biso   1.000  C
  C342     1.0000 0.57903  0.27087  0.25217  Biso   1.000  C
  H181     1.0000 0.61940  0.26020  0.40450  Biso   1.000  H
  H182     1.0000 0.73980  0.35920  0.40450  Biso   1.000  H
  H183     1.0000 0.64080  0.38060  0.40450  Biso   1.000  H
  H184     1.0000 0.35920  0.73980  0.59550  Biso   1.000  H
  H185     1.0000 0.38060  0.64080  0.59550  Biso   1.000  H
  H186     1.0000 0.26020  0.61940  0.59550  Biso   1.000  H
  H187     1.0000 0.28607  0.59353  0.73783  Biso   1.000  H
  H188     1.0000 0.40647  0.69253  0.73783  Biso   1.000  H
  H189     1.0000 0.30747  0.71393  0.73783  Biso   1.000  H
  H190     1.0000 0.02587  0.07313  0.92883  Biso   1.000  H
  H191     1.0000 0.04727  0.97413  0.92883  Biso   1.000  H
  H192     1.0000 0.92687  0.95273  0.92883  Biso   1.000  H
  H193     1.0000 0.95273  0.92687  0.07117  Biso   1.000  H
  H194     1.0000 0.07313  0.02587  0.07117  Biso   1.000  H
  H195     1.0000 0.97413  0.04727  0.07117  Biso   1.000  H
  H196     1.0000 0.69253  0.40647  0.26217  Biso   1.000  H
  H197     1.0000 0.71393  0.30747  0.26217  Biso   1.000  H
  H198     1.0000 0.59353  0.28607  0.26217  Biso   1.000  H
  C343     1.0000 0.58320  0.00680  0.44640  Biso   1.000  C
  C344     1.0000 0.99320  0.57640  0.44640  Biso   1.000  C
  C345     1.0000 0.42360  0.41680  0.44640  Biso   1.000  C
  C346     1.0000 0.57640  0.99320  0.55360  Biso   1.000  C
  C347     1.0000 0.41680  0.42360  0.55360  Biso   1.000  C
  C348     1.0000 0.00680  0.58320  0.55360  Biso   1.000  C
  C349     1.0000 0.24987  0.34013  0.77973  Biso   1.000  C
  C350     1.0000 0.65987  0.90973  0.77973  Biso   1.000  C
  C351     1.0000 0.09027  0.75013  0.77973  Biso   1.000  C
  C352     1.0000 0.24307  0.32653  0.88693  Biso   1.000  C
  C353     1.0000 0.08347  0.75693  0.88693  Biso   1.000  C
  C354     1.0000 0.67347  0.91653  0.88693  Biso   1.000  C
  C355     1.0000 0.91653  0.67347  0.11307  Biso   1.000  C
  C356     1.0000 0.32653  0.24307  0.11307  Biso   1.000  C
  C357     1.0000 0.75693  0.08347  0.11307  Biso   1.000  C
  C358     1.0000 0.90973  0.65987  0.22027  Biso   1.000  C
  C359     1.0000 0.75013  0.09027  0.22027  Biso   1.000  C
  C360     1.0000 0.34013  0.24987  0.22027  Biso   1.000  C
  H199     1.0000 0.57920  0.97890  0.45270  Biso   1.000  H
  H200     1.0000 0.02110  0.60030  0.45270  Biso   1.000  H
  H201     1.0000 0.39970  0.42080  0.45270  Biso   1.000  H
  H202     1.0000 0.60030  0.02110  0.54730  Biso   1.000  H
  H203     1.0000 0.42080  0.39970  0.54730  Biso   1.000  H
  H204     1.0000 0.97890  0.57920  0.54730  Biso   1.000  H
  H205     1.0000 0.24587  0.31223  0.78603  Biso   1.000  H
  H206     1.0000 0.68777  0.93363  0.78603  Biso   1.000  H
  H207     1.0000 0.06637  0.75413  0.78603  Biso   1.000  H
  H208     1.0000 0.26697  0.35443  0.88063  Biso   1.000  H
  H209     1.0000 0.08747  0.73303  0.88063  Biso   1.000  H
  H210     1.0000 0.64557  0.91253  0.88063  Biso   1.000  H
  H211     1.0000 0.91253  0.64557  0.11937  Biso   1.000  H
  H212     1.0000 0.35443  0.26697  0.11937  Biso   1.000  H
  H213     1.0000 0.73303  0.08747  0.11937  Biso   1.000  H
  H214     1.0000 0.93363  0.68777  0.21397  Biso   1.000  H
  H215     1.0000 0.75413  0.06637  0.21397  Biso   1.000  H
  H216     1.0000 0.31223  0.24587  0.21397  Biso   1.000  H
  H217     1.0000 0.55300  0.00720  0.44690  Biso   1.000  H
  H218     1.0000 0.99280  0.54580  0.44690  Biso   1.000  H
  H219     1.0000 0.45420  0.44700  0.44690  Biso   1.000  H
  H220     1.0000 0.54580  0.99280  0.55310  Biso   1.000  H
  H221     1.0000 0.44700  0.45420  0.55310  Biso   1.000  H
  H222     1.0000 0.00720  0.55300  0.55310  Biso   1.000  H
  H223     1.0000 0.21967  0.34053  0.78023  Biso   1.000  H
  H224     1.0000 0.65947  0.87913  0.78023  Biso   1.000  H
  H225     1.0000 0.12087  0.78033  0.78023  Biso   1.000  H
  H226     1.0000 0.21247  0.32613  0.88643  Biso   1.000  H
  H227     1.0000 0.11367  0.78753  0.88643  Biso   1.000  H
  H228     1.0000 0.67387  0.88633  0.88643  Biso   1.000  H
  H229     1.0000 0.88633  0.67387  0.11357  Biso   1.000  H
  H230     1.0000 0.32613  0.21247  0.11357  Biso   1.000  H
  H231     1.0000 0.78753  0.11367  0.11357  Biso   1.000  H
  H232     1.0000 0.87913  0.65947  0.21977  Biso   1.000  H
  H233     1.0000 0.78033  0.12087  0.21977  Biso   1.000  H
  H234     1.0000 0.34053  0.21967  0.21977  Biso   1.000  H
  C361     1.0000 0.53400  0.23830  0.40130  Biso   1.000  C
  C362     1.0000 0.76170  0.29570  0.40130  Biso   1.000  C
  C363     1.0000 0.70430  0.46600  0.40130  Biso   1.000  C
  C364     1.0000 0.29570  0.76170  0.59870  Biso   1.000  C
  C365     1.0000 0.46600  0.70430  0.59870  Biso   1.000  C
  C366     1.0000 0.23830  0.53400  0.59870  Biso   1.000  C
  C367     1.0000 0.20067  0.57163  0.73463  Biso   1.000  C
  C368     1.0000 0.42837  0.62903  0.73463  Biso   1.000  C
  C369     1.0000 0.37097  0.79933  0.73463  Biso   1.000  C
  C370     1.0000 0.96237  0.09503  0.93203  Biso   1.000  C
  C371     1.0000 0.13267  0.03763  0.93203  Biso   1.000  C
  C372     1.0000 0.90497  0.86733  0.93203  Biso   1.000  C
  C373     1.0000 0.86733  0.90497  0.06797  Biso   1.000  C
  C374     1.0000 0.09503  0.96237  0.06797  Biso   1.000  C
  C375     1.0000 0.03763  0.13267  0.06797  Biso   1.000  C
  C376     1.0000 0.62903  0.42837  0.26537  Biso   1.000  C
  C377     1.0000 0.79933  0.37097  0.26537  Biso   1.000  C
  C378     1.0000 0.57163  0.20067  0.26537  Biso   1.000  C
  C379     1.0000 0.44250  0.25100  0.35240  Biso   1.000  C
  C380     1.0000 0.74900  0.19150  0.35240  Biso   1.000  C
  C381     1.0000 0.80850  0.55750  0.35240  Biso   1.000  C
  C382     1.0000 0.19150  0.74900  0.64760  Biso   1.000  C
  C383     1.0000 0.55750  0.80850  0.64760  Biso   1.000  C
  C384     1.0000 0.25100  0.44250  0.64760  Biso   1.000  C
  C385     1.0000 0.10917  0.58433  0.68573  Biso   1.000  C
  C386     1.0000 0.41567  0.52483  0.68573  Biso   1.000  C
  C387     1.0000 0.47517  0.89083  0.68573  Biso   1.000  C
  C388     1.0000 0.85817  0.08233  0.98093  Biso   1.000  C
  C389     1.0000 0.22417  0.14183  0.98093  Biso   1.000  C
  C390     1.0000 0.91767  0.77583  0.98093  Biso   1.000  C
  C391     1.0000 0.77583  0.91767  0.01907  Biso   1.000  C
  C392     1.0000 0.08233  0.85817  0.01907  Biso   1.000  C
  C393     1.0000 0.14183  0.22417  0.01907  Biso   1.000  C
  C394     1.0000 0.52483  0.41567  0.31427  Biso   1.000  C
  C395     1.0000 0.89083  0.47517  0.31427  Biso   1.000  C
  C396     1.0000 0.58433  0.10917  0.31427  Biso   1.000  C
  C397     1.0000 0.25600  0.32230  0.28280  Biso   1.000  C
  C398     1.0000 0.67770  0.93370  0.28280  Biso   1.000  C
  C399     1.0000 0.06630  0.74400  0.28280  Biso   1.000  C
  C400     1.0000 0.93370  0.67770  0.71720  Biso   1.000  C
  C401     1.0000 0.74400  0.06630  0.71720  Biso   1.000  C
  C402     1.0000 0.32230  0.25600  0.71720  Biso   1.000  C
  C403     1.0000 0.92267  0.65563  0.61613  Biso   1.000  C
  C404     1.0000 0.34437  0.26703  0.61613  Biso   1.000  C
  C405     1.0000 0.73297  0.07733  0.61613  Biso   1.000  C
  C406     1.0000 0.60037  0.01103  0.05053  Biso   1.000  C
  C407     1.0000 0.41067  0.39963  0.05053  Biso   1.000  C
  C408     1.0000 0.98897  0.58933  0.05053  Biso   1.000  C
  C409     1.0000 0.58933  0.98897  0.94947  Biso   1.000  C
  C410     1.0000 0.01103  0.60037  0.94947  Biso   1.000  C
  C411     1.0000 0.39963  0.41067  0.94947  Biso   1.000  C
  C412     1.0000 0.26703  0.34437  0.38387  Biso   1.000  C
  C413     1.0000 0.07733  0.73297  0.38387  Biso   1.000  C
  C414     1.0000 0.65563  0.92267  0.38387  Biso   1.000  C
  C415     1.0000 0.35770  0.30180  0.29750  Biso   1.000  C
  C416     1.0000 0.69820  0.05590  0.29750  Biso   1.000  C
  C417     1.0000 0.94410  0.64230  0.29750  Biso   1.000  C
  C418     1.0000 0.05590  0.69820  0.70250  Biso   1.000  C
  C419     1.0000 0.64230  0.94410  0.70250  Biso   1.000  C
  C420     1.0000 0.30180  0.35770  0.70250  Biso   1.000  C
  C421     1.0000 0.02437  0.63513  0.63083  Biso   1.000  C
  C422     1.0000 0.36487  0.38923  0.63083  Biso   1.000  C
  C423     1.0000 0.61077  0.97563  0.63083  Biso   1.000  C
  C424     1.0000 0.72257  0.03153  0.03583  Biso   1.000  C
  C425     1.0000 0.30897  0.27743  0.03583  Biso   1.000  C
  C426     1.0000 0.96847  0.69103  0.03583  Biso   1.000  C
  C427     1.0000 0.69103  0.96847  0.96417  Biso   1.000  C
  C428     1.0000 0.03153  0.72257  0.96417  Biso   1.000  C
  C429     1.0000 0.27743  0.30897  0.96417  Biso   1.000  C
  C430     1.0000 0.38923  0.36487  0.36917  Biso   1.000  C
  C431     1.0000 0.97563  0.61077  0.36917  Biso   1.000  C
  C432     1.0000 0.63513  0.02437  0.36917  Biso   1.000  C
  C433     1.0000 0.39450  0.33770  0.28320  Biso   1.000  C
  C434     1.0000 0.66230  0.05680  0.28320  Biso   1.000  C
  C435     1.0000 0.94320  0.60550  0.28320  Biso   1.000  C
  C436     1.0000 0.05680  0.66230  0.71680  Biso   1.000  C
  C437     1.0000 0.60550  0.94320  0.71680  Biso   1.000  C
  C438     1.0000 0.33770  0.39450  0.71680  Biso   1.000  C
  C439     1.0000 0.06117  0.67103  0.61653  Biso   1.000  C
  C440     1.0000 0.32897  0.39013  0.61653  Biso   1.000  C
  C441     1.0000 0.60987  0.93883  0.61653  Biso   1.000  C
  C442     1.0000 0.72347  0.99563  0.05013  Biso   1.000  C
  C443     1.0000 0.27217  0.27653  0.05013  Biso   1.000  C
  C444     1.0000 0.00437  0.72783  0.05013  Biso   1.000  C
  C445     1.0000 0.72783  0.00437  0.94987  Biso   1.000  C
  C446     1.0000 0.99563  0.72347  0.94987  Biso   1.000  C
  C447     1.0000 0.27653  0.27217  0.94987  Biso   1.000  C
  C448     1.0000 0.39013  0.32897  0.38347  Biso   1.000  C
  C449     1.0000 0.93883  0.60987  0.38347  Biso   1.000  C
  C450     1.0000 0.67103  0.06117  0.38347  Biso   1.000  C
  H235     1.0000 0.42500  0.34060  0.28300  Biso   1.000  H
  H236     1.0000 0.65940  0.08440  0.28300  Biso   1.000  H
  H237     1.0000 0.91560  0.57500  0.28300  Biso   1.000  H
  H238     1.0000 0.08440  0.65940  0.71700  Biso   1.000  H
  H239     1.0000 0.57500  0.91560  0.71700  Biso   1.000  H
  H240     1.0000 0.34060  0.42500  0.71700  Biso   1.000  H
  H241     1.0000 0.09167  0.67393  0.61633  Biso   1.000  H
  H242     1.0000 0.32607  0.41773  0.61633  Biso   1.000  H
  H243     1.0000 0.58227  0.90833  0.61633  Biso   1.000  H
  H244     1.0000 0.75107  0.99273  0.05033  Biso   1.000  H
  H245     1.0000 0.24167  0.24893  0.05033  Biso   1.000  H
  H246     1.0000 0.00727  0.75833  0.05033  Biso   1.000  H
  H247     1.0000 0.75833  0.00727  0.94967  Biso   1.000  H
  H248     1.0000 0.99273  0.75107  0.94967  Biso   1.000  H
  H249     1.0000 0.24893  0.24167  0.94967  Biso   1.000  H
  H250     1.0000 0.41773  0.32607  0.38367  Biso   1.000  H
  H251     1.0000 0.90833  0.58227  0.38367  Biso   1.000  H
  H252     1.0000 0.67393  0.09167  0.38367  Biso   1.000  H
  C451     1.0000 0.38820  0.36090  0.27290  Biso   1.000  C
  C452     1.0000 0.63910  0.02730  0.27290  Biso   1.000  C
  C453     1.0000 0.97270  0.61180  0.27290  Biso   1.000  C
  C454     1.0000 0.02730  0.63910  0.72710  Biso   1.000  C
  C455     1.0000 0.61180  0.97270  0.72710  Biso   1.000  C
  C456     1.0000 0.36090  0.38820  0.72710  Biso   1.000  C
  C457     1.0000 0.05487  0.69423  0.60623  Biso   1.000  C
  C458     1.0000 0.30577  0.36063  0.60623  Biso   1.000  C
  C459     1.0000 0.63937  0.94513  0.60623  Biso   1.000  C
  C460     1.0000 0.69397  0.97243  0.06043  Biso   1.000  C
  C461     1.0000 0.27847  0.30603  0.06043  Biso   1.000  C
  C462     1.0000 0.02757  0.72153  0.06043  Biso   1.000  C
  C463     1.0000 0.72153  0.02757  0.93957  Biso   1.000  C
  C464     1.0000 0.97243  0.69397  0.93957  Biso   1.000  C
  C465     1.0000 0.30603  0.27847  0.93957  Biso   1.000  C
  C466     1.0000 0.36063  0.30577  0.39377  Biso   1.000  C
  C467     1.0000 0.94513  0.63937  0.39377  Biso   1.000  C
  C468     1.0000 0.69423  0.05487  0.39377  Biso   1.000  C
  H253     1.0000 0.41250  0.38430  0.26610  Biso   1.000  H
  H254     1.0000 0.61570  0.02820  0.26610  Biso   1.000  H
  H255     1.0000 0.97180  0.58750  0.26610  Biso   1.000  H
  H256     1.0000 0.02820  0.61570  0.73390  Biso   1.000  H
  H257     1.0000 0.58750  0.97180  0.73390  Biso   1.000  H
  H258     1.0000 0.38430  0.41250  0.73390  Biso   1.000  H
  H259     1.0000 0.07917  0.71763  0.59943  Biso   1.000  H
  H260     1.0000 0.28237  0.36153  0.59943  Biso   1.000  H
  H261     1.0000 0.63847  0.92083  0.59943  Biso   1.000  H
  H262     1.0000 0.69487  0.94903  0.06723  Biso   1.000  H
  H263     1.0000 0.25417  0.30513  0.06723  Biso   1.000  H
  H264     1.0000 0.05097  0.74583  0.06723  Biso   1.000  H
  H265     1.0000 0.74583  0.05097  0.93277  Biso   1.000  H
  H266     1.0000 0.94903  0.69487  0.93277  Biso   1.000  H
  H267     1.0000 0.30513  0.25417  0.93277  Biso   1.000  H
  H268     1.0000 0.36153  0.28237  0.40057  Biso   1.000  H
  H269     1.0000 0.92083  0.63847  0.40057  Biso   1.000  H
  H270     1.0000 0.71763  0.07917  0.40057  Biso   1.000  H
  C469     1.0000 0.33230  0.34680  0.27200  Biso   1.000  C
  C470     1.0000 0.65320  0.98550  0.27200  Biso   1.000  C
  C471     1.0000 0.01450  0.66770  0.27200  Biso   1.000  C
  C472     1.0000 0.98550  0.65320  0.72800  Biso   1.000  C
  C473     1.0000 0.66770  0.01450  0.72800  Biso   1.000  C
  C474     1.0000 0.34680  0.33230  0.72800  Biso   1.000  C
  C475     1.0000 0.99897  0.68013  0.60533  Biso   1.000  C
  C476     1.0000 0.31987  0.31883  0.60533  Biso   1.000  C
  C477     1.0000 0.68117  0.00103  0.60533  Biso   1.000  C
  C478     1.0000 0.65217  0.98653  0.06133  Biso   1.000  C
  C479     1.0000 0.33437  0.34783  0.06133  Biso   1.000  C
  C480     1.0000 0.01347  0.66563  0.06133  Biso   1.000  C
  C481     1.0000 0.66563  0.01347  0.93867  Biso   1.000  C
  C482     1.0000 0.98653  0.65217  0.93867  Biso   1.000  C
  C483     1.0000 0.34783  0.33437  0.93867  Biso   1.000  C
  C484     1.0000 0.31883  0.31987  0.39467  Biso   1.000  C
  C485     1.0000 0.00103  0.68117  0.39467  Biso   1.000  C
  C486     1.0000 0.68013  0.99897  0.39467  Biso   1.000  C
  C487     1.0000 0.30030  0.31930  0.28450  Biso   1.000  C
  C488     1.0000 0.68070  0.98100  0.28450  Biso   1.000  C
  C489     1.0000 0.01900  0.69970  0.28450  Biso   1.000  C
  C490     1.0000 0.98100  0.68070  0.71550  Biso   1.000  C
  C491     1.0000 0.69970  0.01900  0.71550  Biso   1.000  C
  C492     1.0000 0.31930  0.30030  0.71550  Biso   1.000  C
  C493     1.0000 0.96697  0.65263  0.61783  Biso   1.000  C
  C494     1.0000 0.34737  0.31433  0.61783  Biso   1.000  C
  C495     1.0000 0.68567  0.03303  0.61783  Biso   1.000  C
  C496     1.0000 0.64767  0.01403  0.04883  Biso   1.000  C
  C497     1.0000 0.36637  0.35233  0.04883  Biso   1.000  C
  C498     1.0000 0.98597  0.63363  0.04883  Biso   1.000  C
  C499     1.0000 0.63363  0.98597  0.95117  Biso   1.000  C
  C500     1.0000 0.01403  0.64767  0.95117  Biso   1.000  C
  C501     1.0000 0.35233  0.36637  0.95117  Biso   1.000  C
  C502     1.0000 0.31433  0.34737  0.38217  Biso   1.000  C
  C503     1.0000 0.03303  0.68567  0.38217  Biso   1.000  C
  C504     1.0000 0.65263  0.96697  0.38217  Biso   1.000  C
  C505     1.0000 0.31280  0.29690  0.29700  Biso   1.000  C
  C506     1.0000 0.70310  0.01590  0.29700  Biso   1.000  C
  C507     1.0000 0.98410  0.68720  0.29700  Biso   1.000  C
  C508     1.0000 0.01590  0.70310  0.70300  Biso   1.000  C
  C509     1.0000 0.68720  0.98410  0.70300  Biso   1.000  C
  C510     1.0000 0.29690  0.31280  0.70300  Biso   1.000  C
  C511     1.0000 0.97947  0.63023  0.63033  Biso   1.000  C
  C512     1.0000 0.36977  0.34923  0.63033  Biso   1.000  C
  C513     1.0000 0.65077  0.02053  0.63033  Biso   1.000  C
  C514     1.0000 0.68257  0.03643  0.03633  Biso   1.000  C
  C515     1.0000 0.35387  0.31743  0.03633  Biso   1.000  C
  C516     1.0000 0.96357  0.64613  0.03633  Biso   1.000  C
  C517     1.0000 0.64613  0.96357  0.96367  Biso   1.000  C
  C518     1.0000 0.03643  0.68257  0.96367  Biso   1.000  C
  C519     1.0000 0.31743  0.35387  0.96367  Biso   1.000  C
  C520     1.0000 0.34923  0.36977  0.36967  Biso   1.000  C
  C521     1.0000 0.02053  0.65077  0.36967  Biso   1.000  C
  C522     1.0000 0.63023  0.97947  0.36967  Biso   1.000  C
  H271     1.0000 0.29000  0.27830  0.30510  Biso   1.000  H
  H272     1.0000 0.72170  0.01170  0.30510  Biso   1.000  H
  H273     1.0000 0.98830  0.71000  0.30510  Biso   1.000  H
  H274     1.0000 0.01170  0.72170  0.69490  Biso   1.000  H
  H275     1.0000 0.71000  0.98830  0.69490  Biso   1.000  H
  H276     1.0000 0.27830  0.29000  0.69490  Biso   1.000  H
  H277     1.0000 0.95667  0.61163  0.63843  Biso   1.000  H
  H278     1.0000 0.38837  0.34503  0.63843  Biso   1.000  H
  H279     1.0000 0.65497  0.04333  0.63843  Biso   1.000  H
  H280     1.0000 0.67837  0.05503  0.02823  Biso   1.000  H
  H281     1.0000 0.37667  0.32163  0.02823  Biso   1.000  H
  H282     1.0000 0.94497  0.62333  0.02823  Biso   1.000  H
  H283     1.0000 0.62333  0.94497  0.97177  Biso   1.000  H
  H284     1.0000 0.05503  0.67837  0.97177  Biso   1.000  H
  H285     1.0000 0.32163  0.37667  0.97177  Biso   1.000  H
  H286     1.0000 0.34503  0.38837  0.36157  Biso   1.000  H
  H287     1.0000 0.04333  0.65497  0.36157  Biso   1.000  H
  H288     1.0000 0.61163  0.95667  0.36157  Biso   1.000  H
  C523     1.0000 0.26290  0.41040  0.24833  Biso   1.000  C
  C524     1.0000 0.58960  0.85250  0.24833  Biso   1.000  C
  C525     1.0000 0.14750  0.73710  0.24833  Biso   1.000  C
  C526     1.0000 0.85250  0.58960  0.75167  Biso   1.000  C
  C527     1.0000 0.73710  0.14750  0.75167  Biso   1.000  C
  C528     1.0000 0.41040  0.26290  0.75167  Biso   1.000  C
  C529     1.0000 0.92957  0.74373  0.58166  Biso   1.000  C
  C530     1.0000 0.25627  0.18583  0.58166  Biso   1.000  C
  C531     1.0000 0.81417  0.07043  0.58166  Biso   1.000  C
  C532     1.0000 0.51917  0.92293  0.08500  Biso   1.000  C
  C533     1.0000 0.40377  0.48083  0.08500  Biso   1.000  C
  C534     1.0000 0.07707  0.59623  0.08500  Biso   1.000  C
  C535     1.0000 0.59623  0.07707  0.91500  Biso   1.000  C
  C536     1.0000 0.92293  0.51917  0.91500  Biso   1.000  C
  C537     1.0000 0.48083  0.40377  0.91500  Biso   1.000  C
  C538     1.0000 0.18583  0.25627  0.41834  Biso   1.000  C
  C539     1.0000 0.07043  0.81417  0.41834  Biso   1.000  C
  C540     1.0000 0.74373  0.92957  0.41834  Biso   1.000  C
  C541     1.0000 0.30960  0.42560  0.24252  Biso   1.000  C
  C542     1.0000 0.57440  0.88400  0.24252  Biso   1.000  C
  C543     1.0000 0.11600  0.69040  0.24252  Biso   1.000  C
  C544     1.0000 0.88400  0.57440  0.75748  Biso   1.000  C
  C545     1.0000 0.69040  0.11600  0.75748  Biso   1.000  C
  C546     1.0000 0.42560  0.30960  0.75748  Biso   1.000  C
  C547     1.0000 0.97627  0.75893  0.57585  Biso   1.000  C
  C548     1.0000 0.24107  0.21733  0.57585  Biso   1.000  C
  C549     1.0000 0.78267  0.02373  0.57585  Biso   1.000  C
  C550     1.0000 0.55067  0.90773  0.09081  Biso   1.000  C
  C551     1.0000 0.35707  0.44933  0.09081  Biso   1.000  C
  C552     1.0000 0.09227  0.64293  0.09081  Biso   1.000  C
  C553     1.0000 0.64293  0.09227  0.90919  Biso   1.000  C
  C554     1.0000 0.90773  0.55067  0.90919  Biso   1.000  C
  C555     1.0000 0.44933  0.35707  0.90919  Biso   1.000  C
  C556     1.0000 0.21733  0.24107  0.42415  Biso   1.000  C
  C557     1.0000 0.02373  0.78267  0.42415  Biso   1.000  C
  C558     1.0000 0.75893  0.97627  0.42415  Biso   1.000  C
  H289     1.0000 0.32280  0.44880  0.23400  Biso   1.000  H
  H290     1.0000 0.55120  0.87400  0.23400  Biso   1.000  H
  H291     1.0000 0.12600  0.67720  0.23400  Biso   1.000  H
  H292     1.0000 0.87400  0.55120  0.76600  Biso   1.000  H
  H293     1.0000 0.67720  0.12600  0.76600  Biso   1.000  H
  H294     1.0000 0.44880  0.32280  0.76600  Biso   1.000  H
  H295     1.0000 0.98947  0.78213  0.56733  Biso   1.000  H
  H296     1.0000 0.21787  0.20733  0.56733  Biso   1.000  H
  H297     1.0000 0.79267  0.01053  0.56733  Biso   1.000  H
  H298     1.0000 0.54067  0.88453  0.09933  Biso   1.000  H
  H299     1.0000 0.34387  0.45933  0.09933  Biso   1.000  H
  H300     1.0000 0.11547  0.65613  0.09933  Biso   1.000  H
  H301     1.0000 0.65613  0.11547  0.90067  Biso   1.000  H
  H302     1.0000 0.88453  0.54067  0.90067  Biso   1.000  H
  H303     1.0000 0.45933  0.34387  0.90067  Biso   1.000  H
  H304     1.0000 0.20733  0.21787  0.43267  Biso   1.000  H
  H305     1.0000 0.01053  0.79267  0.43267  Biso   1.000  H
  H306     1.0000 0.78213  0.98947  0.43267  Biso   1.000  H
  C559     1.0000 0.33640  0.40630  0.24941  Biso   1.000  C
  C560     1.0000 0.59370  0.93010  0.24941  Biso   1.000  C
  C561     1.0000 0.06990  0.66360  0.24941  Biso   1.000  C
  C562     1.0000 0.93010  0.59370  0.75059  Biso   1.000  C
  C563     1.0000 0.66360  0.06990  0.75059  Biso   1.000  C
  C564     1.0000 0.40630  0.33640  0.75059  Biso   1.000  C
  C565     1.0000 0.00307  0.73963  0.58274  Biso   1.000  C
  C566     1.0000 0.26037  0.26343  0.58274  Biso   1.000  C
  C567     1.0000 0.73657  0.99693  0.58274  Biso   1.000  C
  C568     1.0000 0.59677  0.92703  0.08392  Biso   1.000  C
  C569     1.0000 0.33027  0.40323  0.08392  Biso   1.000  C
  C570     1.0000 0.07297  0.66973  0.08392  Biso   1.000  C
  C571     1.0000 0.66973  0.07297  0.91608  Biso   1.000  C
  C572     1.0000 0.92703  0.59677  0.91608  Biso   1.000  C
  C573     1.0000 0.40323  0.33027  0.91608  Biso   1.000  C
  C574     1.0000 0.26343  0.26037  0.41726  Biso   1.000  C
  C575     1.0000 0.99693  0.73657  0.41726  Biso   1.000  C
  C576     1.0000 0.73963  0.00307  0.41726  Biso   1.000  C
  H307     1.0000 0.36770  0.41650  0.24550  Biso   1.000  H
  H308     1.0000 0.58350  0.95120  0.24550  Biso   1.000  H
  H309     1.0000 0.04880  0.63230  0.24550  Biso   1.000  H
  H310     1.0000 0.95120  0.58350  0.75450  Biso   1.000  H
  H311     1.0000 0.63230  0.04880  0.75450  Biso   1.000  H
  H312     1.0000 0.41650  0.36770  0.75450  Biso   1.000  H
  H313     1.0000 0.03437  0.74983  0.57883  Biso   1.000  H
  H314     1.0000 0.25017  0.28453  0.57883  Biso   1.000  H
  H315     1.0000 0.71547  0.96563  0.57883  Biso   1.000  H
  H316     1.0000 0.61787  0.91683  0.08783  Biso   1.000  H
  H317     1.0000 0.29897  0.38213  0.08783  Biso   1.000  H
  H318     1.0000 0.08317  0.70103  0.08783  Biso   1.000  H
  H319     1.0000 0.70103  0.08317  0.91217  Biso   1.000  H
  H320     1.0000 0.91683  0.61787  0.91217  Biso   1.000  H
  H321     1.0000 0.38213  0.29897  0.91217  Biso   1.000  H
  H322     1.0000 0.28453  0.25017  0.42117  Biso   1.000  H
  H323     1.0000 0.96563  0.71547  0.42117  Biso   1.000  H
  H324     1.0000 0.74983  0.03437  0.42117  Biso   1.000  H
  C577     1.0000 0.31660  0.37180  0.26210  Biso   1.000  C
  C578     1.0000 0.62820  0.94480  0.26210  Biso   1.000  C
  C579     1.0000 0.05520  0.68340  0.26210  Biso   1.000  C
  C580     1.0000 0.94480  0.62820  0.73790  Biso   1.000  C
  C581     1.0000 0.68340  0.05520  0.73790  Biso   1.000  C
  C582     1.0000 0.37180  0.31660  0.73790  Biso   1.000  C
  C583     1.0000 0.98327  0.70513  0.59543  Biso   1.000  C
  C584     1.0000 0.29487  0.27813  0.59543  Biso   1.000  C
  C585     1.0000 0.72187  0.01673  0.59543  Biso   1.000  C
  C586     1.0000 0.61147  0.96153  0.07123  Biso   1.000  C
  C587     1.0000 0.35007  0.38853  0.07123  Biso   1.000  C
  C588     1.0000 0.03847  0.64993  0.07123  Biso   1.000  C
  C589     1.0000 0.64993  0.03847  0.92877  Biso   1.000  C
  C590     1.0000 0.96153  0.61147  0.92877  Biso   1.000  C
  C591     1.0000 0.38853  0.35007  0.92877  Biso   1.000  C
  C592     1.0000 0.27813  0.29487  0.40457  Biso   1.000  C
  C593     1.0000 0.01673  0.72187  0.40457  Biso   1.000  C
  C594     1.0000 0.70513  0.98327  0.40457  Biso   1.000  C
  C595     1.0000 0.27000  0.35650  0.26791  Biso   1.000  C
  C596     1.0000 0.64350  0.91350  0.26791  Biso   1.000  C
  C597     1.0000 0.08650  0.73000  0.26791  Biso   1.000  C
  C598     1.0000 0.91350  0.64350  0.73209  Biso   1.000  C
  C599     1.0000 0.73000  0.08650  0.73209  Biso   1.000  C
  C600     1.0000 0.35650  0.27000  0.73209  Biso   1.000  C
  C601     1.0000 0.93667  0.68983  0.60124  Biso   1.000  C
  C602     1.0000 0.31017  0.24683  0.60124  Biso   1.000  C
  C603     1.0000 0.75317  0.06333  0.60124  Biso   1.000  C
  C604     1.0000 0.58017  0.97683  0.06542  Biso   1.000  C
  C605     1.0000 0.39667  0.41983  0.06542  Biso   1.000  C
  C606     1.0000 0.02317  0.60333  0.06542  Biso   1.000  C
  C607     1.0000 0.60333  0.02317  0.93458  Biso   1.000  C
  C608     1.0000 0.97683  0.58017  0.93458  Biso   1.000  C
  C609     1.0000 0.41983  0.39667  0.93458  Biso   1.000  C
  C610     1.0000 0.24683  0.31017  0.39876  Biso   1.000  C
  C611     1.0000 0.06333  0.75317  0.39876  Biso   1.000  C
  C612     1.0000 0.68983  0.93667  0.39876  Biso   1.000  C
  C613     1.0000 0.24310  0.37580  0.26103  Biso   1.000  C
  C614     1.0000 0.62420  0.86730  0.26103  Biso   1.000  C
  C615     1.0000 0.13270  0.75690  0.26103  Biso   1.000  C
  C616     1.0000 0.86730  0.62420  0.73897  Biso   1.000  C
  C617     1.0000 0.75690  0.13270  0.73897  Biso   1.000  C
  C618     1.0000 0.37580  0.24310  0.73897  Biso   1.000  C
  C619     1.0000 0.90977  0.70913  0.59436  Biso   1.000  C
  C620     1.0000 0.29087  0.20063  0.59436  Biso   1.000  C
  C621     1.0000 0.79937  0.09023  0.59436  Biso   1.000  C
  C622     1.0000 0.53397  0.95753  0.07230  Biso   1.000  C
  C623     1.0000 0.42357  0.46603  0.07230  Biso   1.000  C
  C624     1.0000 0.04247  0.57643  0.07230  Biso   1.000  C
  C625     1.0000 0.57643  0.04247  0.92770  Biso   1.000  C
  C626     1.0000 0.95753  0.53397  0.92770  Biso   1.000  C
  C627     1.0000 0.46603  0.42357  0.92770  Biso   1.000  C
  C628     1.0000 0.20063  0.29087  0.40564  Biso   1.000  C
  C629     1.0000 0.09023  0.79937  0.40564  Biso   1.000  C
  C630     1.0000 0.70913  0.90977  0.40564  Biso   1.000  C
  H325     1.0000 0.21190  0.36560  0.26490  Biso   1.000  H
  H326     1.0000 0.63440  0.84630  0.26490  Biso   1.000  H
  H327     1.0000 0.15370  0.78810  0.26490  Biso   1.000  H
  H328     1.0000 0.84630  0.63440  0.73510  Biso   1.000  H
  H329     1.0000 0.78810  0.15370  0.73510  Biso   1.000  H
  H330     1.0000 0.36560  0.21190  0.73510  Biso   1.000  H
  H331     1.0000 0.87857  0.69893  0.59823  Biso   1.000  H
  H332     1.0000 0.30107  0.17963  0.59823  Biso   1.000  H
  H333     1.0000 0.82037  0.12143  0.59823  Biso   1.000  H
  H334     1.0000 0.51297  0.96773  0.06843  Biso   1.000  H
  H335     1.0000 0.45477  0.48703  0.06843  Biso   1.000  H
  H336     1.0000 0.03227  0.54523  0.06843  Biso   1.000  H
  H337     1.0000 0.54523  0.03227  0.93157  Biso   1.000  H
  H338     1.0000 0.96773  0.51297  0.93157  Biso   1.000  H
  H339     1.0000 0.48703  0.45477  0.93157  Biso   1.000  H
  H340     1.0000 0.17963  0.30107  0.40177  Biso   1.000  H
  H341     1.0000 0.12143  0.82037  0.40177  Biso   1.000  H
  H342     1.0000 0.69893  0.87857  0.40177  Biso   1.000  H
  C631     1.0000 0.63100  0.64520  0.45320  Biso   1.000  C
  C632     1.0000 0.35480  0.98580  0.45320  Biso   1.000  C
  C633     1.0000 0.01420  0.36900  0.45320  Biso   1.000  C
  C634     1.0000 0.98580  0.35480  0.54680  Biso   1.000  C
  C635     1.0000 0.36900  0.01420  0.54680  Biso   1.000  C
  C636     1.0000 0.64520  0.63100  0.54680  Biso   1.000  C
  C637     1.0000 0.29767  0.97853  0.78653  Biso   1.000  C
  C638     1.0000 0.02147  0.31913  0.78653  Biso   1.000  C
  C639     1.0000 0.68087  0.70233  0.78653  Biso   1.000  C
  C640     1.0000 0.65247  0.68813  0.88013  Biso   1.000  C
  C641     1.0000 0.03567  0.34753  0.88013  Biso   1.000  C
  C642     1.0000 0.31187  0.96433  0.88013  Biso   1.000  C
  C643     1.0000 0.96433  0.31187  0.11987  Biso   1.000  C
  C644     1.0000 0.68813  0.65247  0.11987  Biso   1.000  C
  C645     1.0000 0.34753  0.03567  0.11987  Biso   1.000  C
  C646     1.0000 0.31913  0.02147  0.21347  Biso   1.000  C
  C647     1.0000 0.70233  0.68087  0.21347  Biso   1.000  C
  C648     1.0000 0.97853  0.29767  0.21347  Biso   1.000  C
  C649     1.0000 0.64610  0.67860  0.46628  Biso   1.000  C
  C650     1.0000 0.32140  0.96750  0.46628  Biso   1.000  C
  C651     1.0000 0.03250  0.35390  0.46628  Biso   1.000  C
  C652     1.0000 0.96750  0.32140  0.53372  Biso   1.000  C
  C653     1.0000 0.35390  0.03250  0.53372  Biso   1.000  C
  C654     1.0000 0.67860  0.64610  0.53372  Biso   1.000  C
  C655     1.0000 0.31277  0.01193  0.79961  Biso   1.000  C
  C656     1.0000 0.98807  0.30083  0.79961  Biso   1.000  C
  C657     1.0000 0.69917  0.68723  0.79961  Biso   1.000  C
  C658     1.0000 0.63417  0.65473  0.86705  Biso   1.000  C
  C659     1.0000 0.02057  0.36583  0.86705  Biso   1.000  C
  C660     1.0000 0.34527  0.97943  0.86705  Biso   1.000  C
  C661     1.0000 0.97943  0.34527  0.13295  Biso   1.000  C
  C662     1.0000 0.65473  0.63417  0.13295  Biso   1.000  C
  C663     1.0000 0.36583  0.02057  0.13295  Biso   1.000  C
  C664     1.0000 0.30083  0.98807  0.20039  Biso   1.000  C
  C665     1.0000 0.68723  0.69917  0.20039  Biso   1.000  C
  C666     1.0000 0.01193  0.31277  0.20039  Biso   1.000  C
  H343     1.0000 0.62870  0.67060  0.47630  Biso   1.000  H
  H344     1.0000 0.32940  0.95810  0.47630  Biso   1.000  H
  H345     1.0000 0.04190  0.37130  0.47630  Biso   1.000  H
  H346     1.0000 0.95810  0.32940  0.52370  Biso   1.000  H
  H347     1.0000 0.37130  0.04190  0.52370  Biso   1.000  H
  H348     1.0000 0.67060  0.62870  0.52370  Biso   1.000  H
  H349     1.0000 0.29537  0.00393  0.80963  Biso   1.000  H
  H350     1.0000 0.99607  0.29143  0.80963  Biso   1.000  H
  H351     1.0000 0.70857  0.70463  0.80963  Biso   1.000  H
  H352     1.0000 0.62477  0.66273  0.85703  Biso   1.000  H
  H353     1.0000 0.03797  0.37523  0.85703  Biso   1.000  H
  H354     1.0000 0.33727  0.96203  0.85703  Biso   1.000  H
  H355     1.0000 0.96203  0.33727  0.14297  Biso   1.000  H
  H356     1.0000 0.66273  0.62477  0.14297  Biso   1.000  H
  H357     1.0000 0.37523  0.03797  0.14297  Biso   1.000  H
  H358     1.0000 0.29143  0.99607  0.19037  Biso   1.000  H
  H359     1.0000 0.70463  0.70857  0.19037  Biso   1.000  H
  H360     1.0000 0.00393  0.29537  0.19037  Biso   1.000  H
  C667     1.0000 0.68730  0.72400  0.46439  Biso   1.000  C
  C668     1.0000 0.27600  0.96330  0.46439  Biso   1.000  C
  C669     1.0000 0.03670  0.31270  0.46439  Biso   1.000  C
  C670     1.0000 0.96330  0.27600  0.53561  Biso   1.000  C
  C671     1.0000 0.31270  0.03670  0.53561  Biso   1.000  C
  C672     1.0000 0.72400  0.68730  0.53561  Biso   1.000  C
  C673     1.0000 0.35397  0.05733  0.79772  Biso   1.000  C
  C674     1.0000 0.94267  0.29663  0.79772  Biso   1.000  C
  C675     1.0000 0.70337  0.64603  0.79772  Biso   1.000  C
  C676     1.0000 0.62997  0.60933  0.86894  Biso   1.000  C
  C677     1.0000 0.97937  0.37003  0.86894  Biso   1.000  C
  C678     1.0000 0.39067  0.02063  0.86894  Biso   1.000  C
  C679     1.0000 0.02063  0.39067  0.13106  Biso   1.000  C
  C680     1.0000 0.60933  0.62997  0.13106  Biso   1.000  C
  C681     1.0000 0.37003  0.97937  0.13106  Biso   1.000  C
  C682     1.0000 0.29663  0.94267  0.20228  Biso   1.000  C
  C683     1.0000 0.64603  0.70337  0.20228  Biso   1.000  C
  C684     1.0000 0.05733  0.35397  0.20228  Biso   1.000  C
  C685     1.0000 0.71330  0.73600  0.44944  Biso   1.000  C
  C686     1.0000 0.26400  0.97730  0.44944  Biso   1.000  C
  C687     1.0000 0.02270  0.28670  0.44944  Biso   1.000  C
  C688     1.0000 0.97730  0.26400  0.55056  Biso   1.000  C
  C689     1.0000 0.28670  0.02270  0.55056  Biso   1.000  C
  C690     1.0000 0.73600  0.71330  0.55056  Biso   1.000  C
  C691     1.0000 0.37997  0.06933  0.78277  Biso   1.000  C
  C692     1.0000 0.93067  0.31063  0.78277  Biso   1.000  C
  C693     1.0000 0.68937  0.62003  0.78277  Biso   1.000  C
  C694     1.0000 0.64397  0.59733  0.88389  Biso   1.000  C
  C695     1.0000 0.95337  0.35603  0.88389  Biso   1.000  C
  C696     1.0000 0.40267  0.04663  0.88389  Biso   1.000  C
  C697     1.0000 0.04663  0.40267  0.11611  Biso   1.000  C
  C698     1.0000 0.59733  0.64397  0.11611  Biso   1.000  C
  C699     1.0000 0.35603  0.95337  0.11611  Biso   1.000  C
  C700     1.0000 0.31063  0.93067  0.21723  Biso   1.000  C
  C701     1.0000 0.62003  0.68937  0.21723  Biso   1.000  C
  C702     1.0000 0.06933  0.37997  0.21723  Biso   1.000  C
  H361     1.0000 0.74090  0.76640  0.44820  Biso   1.000  H
  H362     1.0000 0.23360  0.97450  0.44820  Biso   1.000  H
  H363     1.0000 0.02550  0.25910  0.44820  Biso   1.000  H
  H364     1.0000 0.97450  0.23360  0.55180  Biso   1.000  H
  H365     1.0000 0.25910  0.02550  0.55180  Biso   1.000  H
  H366     1.0000 0.76640  0.74090  0.55180  Biso   1.000  H
  H367     1.0000 0.40757  0.09973  0.78153  Biso   1.000  H
  H368     1.0000 0.90027  0.30783  0.78153  Biso   1.000  H
  H369     1.0000 0.69217  0.59243  0.78153  Biso   1.000  H
  H370     1.0000 0.64117  0.56693  0.88513  Biso   1.000  H
  H371     1.0000 0.92577  0.35883  0.88513  Biso   1.000  H
  H372     1.0000 0.43307  0.07423  0.88513  Biso   1.000  H
  H373     1.0000 0.07423  0.43307  0.11487  Biso   1.000  H
  H374     1.0000 0.56693  0.64117  0.11487  Biso   1.000  H
  H375     1.0000 0.35883  0.92577  0.11487  Biso   1.000  H
  H376     1.0000 0.30783  0.90027  0.21847  Biso   1.000  H
  H377     1.0000 0.59243  0.69217  0.21847  Biso   1.000  H
  H378     1.0000 0.09973  0.40757  0.21847  Biso   1.000  H
  C703     1.0000 0.69830  0.70260  0.43637  Biso   1.000  C
  C704     1.0000 0.29740  0.99570  0.43637  Biso   1.000  C
  C705     1.0000 0.00430  0.30170  0.43637  Biso   1.000  C
  C706     1.0000 0.99570  0.29740  0.56363  Biso   1.000  C
  C707     1.0000 0.30170  0.00430  0.56363  Biso   1.000  C
  C708     1.0000 0.70260  0.69830  0.56363  Biso   1.000  C
  C709     1.0000 0.36497  0.03593  0.76970  Biso   1.000  C
  C710     1.0000 0.96407  0.32903  0.76970  Biso   1.000  C
  C711     1.0000 0.67097  0.63503  0.76970  Biso   1.000  C
  C712     1.0000 0.66237  0.63073  0.89696  Biso   1.000  C
  C713     1.0000 0.96837  0.33763  0.89696  Biso   1.000  C
  C714     1.0000 0.36927  0.03163  0.89696  Biso   1.000  C
  C715     1.0000 0.03163  0.36927  0.10304  Biso   1.000  C
  C716     1.0000 0.63073  0.66237  0.10304  Biso   1.000  C
  C717     1.0000 0.33763  0.96837  0.10304  Biso   1.000  C
  C718     1.0000 0.32903  0.96407  0.23030  Biso   1.000  C
  C719     1.0000 0.63503  0.67097  0.23030  Biso   1.000  C
  C720     1.0000 0.03593  0.36497  0.23030  Biso   1.000  C
  H379     1.0000 0.71570  0.71060  0.42640  Biso   1.000  H
  H380     1.0000 0.28940  0.00510  0.42640  Biso   1.000  H
  H381     1.0000 0.99490  0.28430  0.42640  Biso   1.000  H
  H382     1.0000 0.00510  0.28940  0.57360  Biso   1.000  H
  H383     1.0000 0.28430  0.99490  0.57360  Biso   1.000  H
  H384     1.0000 0.71060  0.71570  0.57360  Biso   1.000  H
  H385     1.0000 0.38237  0.04393  0.75973  Biso   1.000  H
  H386     1.0000 0.95607  0.33843  0.75973  Biso   1.000  H
  H387     1.0000 0.66157  0.61763  0.75973  Biso   1.000  H
  H388     1.0000 0.67177  0.62273  0.90693  Biso   1.000  H
  H389     1.0000 0.95097  0.32823  0.90693  Biso   1.000  H
  H390     1.0000 0.37727  0.04903  0.90693  Biso   1.000  H
  H391     1.0000 0.04903  0.37727  0.09307  Biso   1.000  H
  H392     1.0000 0.62273  0.67177  0.09307  Biso   1.000  H
  H393     1.0000 0.32823  0.95097  0.09307  Biso   1.000  H
  H394     1.0000 0.33843  0.95607  0.24027  Biso   1.000  H
  H395     1.0000 0.61763  0.66157  0.24027  Biso   1.000  H
  H396     1.0000 0.04393  0.38237  0.24027  Biso   1.000  H
  C721     1.0000 0.65710  0.65710  0.43825  Biso   1.000  C
  C722     1.0000 0.34290  0.00000  0.43825  Biso   1.000  C
  C723     1.0000 0.00000  0.34290  0.43825  Biso   1.000  C
  C724     1.0000 0.00000  0.34290  0.56175  Biso   1.000  C
  C725     1.0000 0.34290  0.00000  0.56175  Biso   1.000  C
  C726     1.0000 0.65710  0.65710  0.56175  Biso   1.000  C
  C727     1.0000 0.32377  0.99043  0.77158  Biso   1.000  C
  C728     1.0000 0.00957  0.33333  0.77158  Biso   1.000  C
  C729     1.0000 0.66667  0.67623  0.77158  Biso   1.000  C
  C730     1.0000 0.66667  0.67623  0.89508  Biso   1.000  C
  C731     1.0000 0.00957  0.33333  0.89508  Biso   1.000  C
  C732     1.0000 0.32377  0.99043  0.89508  Biso   1.000  C
  C733     1.0000 0.99043  0.32377  0.10492  Biso   1.000  C
  C734     1.0000 0.67623  0.66667  0.10492  Biso   1.000  C
  C735     1.0000 0.33333  0.00957  0.10492  Biso   1.000  C
  C736     1.0000 0.33333  0.00957  0.22842  Biso   1.000  C
  C737     1.0000 0.67623  0.66667  0.22842  Biso   1.000  C
  C738     1.0000 0.99043  0.32377  0.22842  Biso   1.000  C
  C739     1.0000 0.19740  0.48790  0.22722  Biso   1.000  C
  C740     1.0000 0.51210  0.70950  0.22722  Biso   1.000  C
  C741     1.0000 0.29050  0.80260  0.22722  Biso   1.000  C
  C742     1.0000 0.70950  0.51210  0.77278  Biso   1.000  C
  C743     1.0000 0.80260  0.29050  0.77278  Biso   1.000  C
  C744     1.0000 0.48790  0.19740  0.77278  Biso   1.000  C
  C745     1.0000 0.86407  0.82123  0.56055  Biso   1.000  C
  C746     1.0000 0.17877  0.04283  0.56055  Biso   1.000  C
  C747     1.0000 0.95717  0.13593  0.56055  Biso   1.000  C
  C748     1.0000 0.37617  0.84543  0.10611  Biso   1.000  C
  C749     1.0000 0.46927  0.62383  0.10611  Biso   1.000  C
  C750     1.0000 0.15457  0.53073  0.10611  Biso   1.000  C
  C751     1.0000 0.53073  0.15457  0.89389  Biso   1.000  C
  C752     1.0000 0.84543  0.37617  0.89389  Biso   1.000  C
  C753     1.0000 0.62383  0.46927  0.89389  Biso   1.000  C
  C754     1.0000 0.04283  0.17877  0.43945  Biso   1.000  C
  C755     1.0000 0.13593  0.95717  0.43945  Biso   1.000  C
  C756     1.0000 0.82123  0.86407  0.43945  Biso   1.000  C
  C757     1.0000 0.18010  0.46360  0.24241  Biso   1.000  C
  C758     1.0000 0.53640  0.71650  0.24241  Biso   1.000  C
  C759     1.0000 0.28350  0.81990  0.24241  Biso   1.000  C
  C760     1.0000 0.71650  0.53640  0.75759  Biso   1.000  C
  C761     1.0000 0.81990  0.28350  0.75759  Biso   1.000  C
  C762     1.0000 0.46360  0.18010  0.75759  Biso   1.000  C
  C763     1.0000 0.84677  0.79693  0.57574  Biso   1.000  C
  C764     1.0000 0.20307  0.04983  0.57574  Biso   1.000  C
  C765     1.0000 0.95017  0.15323  0.57574  Biso   1.000  C
  C766     1.0000 0.38317  0.86973  0.09092  Biso   1.000  C
  C767     1.0000 0.48657  0.61683  0.09092  Biso   1.000  C
  C768     1.0000 0.13027  0.51343  0.09092  Biso   1.000  C
  C769     1.0000 0.51343  0.13027  0.90908  Biso   1.000  C
  C770     1.0000 0.86973  0.38317  0.90908  Biso   1.000  C
  C771     1.0000 0.61683  0.48657  0.90908  Biso   1.000  C
  C772     1.0000 0.04983  0.20307  0.42426  Biso   1.000  C
  C773     1.0000 0.15323  0.95017  0.42426  Biso   1.000  C
  C774     1.0000 0.79693  0.84677  0.42426  Biso   1.000  C
  H397     1.0000 0.15580  0.46570  0.24820  Biso   1.000  H
  H398     1.0000 0.53430  0.69010  0.24820  Biso   1.000  H
  H399     1.0000 0.30990  0.84420  0.24820  Biso   1.000  H
  H400     1.0000 0.69010  0.53430  0.75180  Biso   1.000  H
  H401     1.0000 0.84420  0.30990  0.75180  Biso   1.000  H
  H402     1.0000 0.46570  0.15580  0.75180  Biso   1.000  H
  H403     1.0000 0.82247  0.79903  0.58153  Biso   1.000  H
  H404     1.0000 0.20097  0.02343  0.58153  Biso   1.000  H
  H405     1.0000 0.97657  0.17753  0.58153  Biso   1.000  H
  H406     1.0000 0.35677  0.86763  0.08513  Biso   1.000  H
  H407     1.0000 0.51087  0.64323  0.08513  Biso   1.000  H
  H408     1.0000 0.13237  0.48913  0.08513  Biso   1.000  H
  H409     1.0000 0.48913  0.13237  0.91487  Biso   1.000  H
  H410     1.0000 0.86763  0.35677  0.91487  Biso   1.000  H
  H411     1.0000 0.64323  0.51087  0.91487  Biso   1.000  H
  H412     1.0000 0.02343  0.20097  0.41847  Biso   1.000  H
  H413     1.0000 0.17753  0.97657  0.41847  Biso   1.000  H
  H414     1.0000 0.79903  0.82247  0.41847  Biso   1.000  H
  C775     1.0000 0.19930  0.43630  0.24901  Biso   1.000  C
  C776     1.0000 0.56370  0.76300  0.24901  Biso   1.000  C
  C777     1.0000 0.23700  0.80070  0.24901  Biso   1.000  C
  C778     1.0000 0.76300  0.56370  0.75099  Biso   1.000  C
  C779     1.0000 0.80070  0.23700  0.75099  Biso   1.000  C
  C780     1.0000 0.43630  0.19930  0.75099  Biso   1.000  C
  C781     1.0000 0.86597  0.76963  0.58234  Biso   1.000  C
  C782     1.0000 0.23037  0.09633  0.58234  Biso   1.000  C
  C783     1.0000 0.90367  0.13403  0.58234  Biso   1.000  C
  C784     1.0000 0.42967  0.89703  0.08432  Biso   1.000  C
  C785     1.0000 0.46737  0.57033  0.08432  Biso   1.000  C
  C786     1.0000 0.10297  0.53263  0.08432  Biso   1.000  C
  C787     1.0000 0.53263  0.10297  0.91568  Biso   1.000  C
  C788     1.0000 0.89703  0.42967  0.91568  Biso   1.000  C
  C789     1.0000 0.57033  0.46737  0.91568  Biso   1.000  C
  C790     1.0000 0.09633  0.23037  0.41766  Biso   1.000  C
  C791     1.0000 0.13403  0.90367  0.41766  Biso   1.000  C
  C792     1.0000 0.76963  0.86597  0.41766  Biso   1.000  C
  H415     1.0000 0.18770  0.42000  0.25920  Biso   1.000  H
  H416     1.0000 0.58000  0.76770  0.25920  Biso   1.000  H
  H417     1.0000 0.23230  0.81230  0.25920  Biso   1.000  H
  H418     1.0000 0.76770  0.58000  0.74080  Biso   1.000  H
  H419     1.0000 0.81230  0.23230  0.74080  Biso   1.000  H
  H420     1.0000 0.42000  0.18770  0.74080  Biso   1.000  H
  H421     1.0000 0.85437  0.75333  0.59253  Biso   1.000  H
  H422     1.0000 0.24667  0.10103  0.59253  Biso   1.000  H
  H423     1.0000 0.89897  0.14563  0.59253  Biso   1.000  H
  H424     1.0000 0.43437  0.91333  0.07413  Biso   1.000  H
  H425     1.0000 0.47897  0.56563  0.07413  Biso   1.000  H
  H426     1.0000 0.08667  0.52103  0.07413  Biso   1.000  H
  H427     1.0000 0.52103  0.08667  0.92587  Biso   1.000  H
  H428     1.0000 0.91333  0.43437  0.92587  Biso   1.000  H
  H429     1.0000 0.56563  0.47897  0.92587  Biso   1.000  H
  H430     1.0000 0.10103  0.24667  0.40747  Biso   1.000  H
  H431     1.0000 0.14563  0.89897  0.40747  Biso   1.000  H
  H432     1.0000 0.75333  0.85437  0.40747  Biso   1.000  H
  C793     1.0000 0.23570  0.43320  0.24041  Biso   1.000  C
  C794     1.0000 0.56680  0.80250  0.24041  Biso   1.000  C
  C795     1.0000 0.19750  0.76430  0.24041  Biso   1.000  C
  C796     1.0000 0.80250  0.56680  0.75959  Biso   1.000  C
  C797     1.0000 0.76430  0.19750  0.75959  Biso   1.000  C
  C798     1.0000 0.43320  0.23570  0.75959  Biso   1.000  C
  C799     1.0000 0.90237  0.76653  0.57374  Biso   1.000  C
  C800     1.0000 0.23347  0.13583  0.57374  Biso   1.000  C
  C801     1.0000 0.86417  0.09763  0.57374  Biso   1.000  C
  C802     1.0000 0.46917  0.90013  0.09292  Biso   1.000  C
  C803     1.0000 0.43097  0.53083  0.09292  Biso   1.000  C
  C804     1.0000 0.09987  0.56903  0.09292  Biso   1.000  C
  C805     1.0000 0.56903  0.09987  0.90708  Biso   1.000  C
  C806     1.0000 0.90013  0.46917  0.90708  Biso   1.000  C
  C807     1.0000 0.53083  0.43097  0.90708  Biso   1.000  C
  C808     1.0000 0.13583  0.23347  0.42626  Biso   1.000  C
  C809     1.0000 0.09763  0.86417  0.42626  Biso   1.000  C
  C810     1.0000 0.76653  0.90237  0.42626  Biso   1.000  C
  C811     1.0000 0.25290  0.45740  0.22522  Biso   1.000  C
  C812     1.0000 0.54260  0.79550  0.22522  Biso   1.000  C
  C813     1.0000 0.20450  0.74710  0.22522  Biso   1.000  C
  C814     1.0000 0.79550  0.54260  0.77478  Biso   1.000  C
  C815     1.0000 0.74710  0.20450  0.77478  Biso   1.000  C
  C816     1.0000 0.45740  0.25290  0.77478  Biso   1.000  C
  C817     1.0000 0.91957  0.79073  0.55855  Biso   1.000  C
  C818     1.0000 0.20927  0.12883  0.55855  Biso   1.000  C
  C819     1.0000 0.87117  0.08043  0.55855  Biso   1.000  C
  C820     1.0000 0.46217  0.87593  0.10811  Biso   1.000  C
  C821     1.0000 0.41377  0.53783  0.10811  Biso   1.000  C
  C822     1.0000 0.12407  0.58623  0.10811  Biso   1.000  C
  C823     1.0000 0.58623  0.12407  0.89189  Biso   1.000  C
  C824     1.0000 0.87593  0.46217  0.89189  Biso   1.000  C
  C825     1.0000 0.53783  0.41377  0.89189  Biso   1.000  C
  C826     1.0000 0.12883  0.20927  0.44145  Biso   1.000  C
  C827     1.0000 0.08043  0.87117  0.44145  Biso   1.000  C
  C828     1.0000 0.79073  0.91957  0.44145  Biso   1.000  C
  H433     1.0000 0.27730  0.45530  0.21950  Biso   1.000  H
  H434     1.0000 0.54470  0.82200  0.21950  Biso   1.000  H
  H435     1.0000 0.17800  0.72270  0.21950  Biso   1.000  H
  H436     1.0000 0.82200  0.54470  0.78050  Biso   1.000  H
  H437     1.0000 0.72270  0.17800  0.78050  Biso   1.000  H
  H438     1.0000 0.45530  0.27730  0.78050  Biso   1.000  H
  H439     1.0000 0.94397  0.78863  0.55283  Biso   1.000  H
  H440     1.0000 0.21137  0.15533  0.55283  Biso   1.000  H
  H441     1.0000 0.84467  0.05603  0.55283  Biso   1.000  H
  H442     1.0000 0.48867  0.87803  0.11383  Biso   1.000  H
  H443     1.0000 0.38937  0.51133  0.11383  Biso   1.000  H
  H444     1.0000 0.12197  0.61063  0.11383  Biso   1.000  H
  H445     1.0000 0.61063  0.12197  0.88617  Biso   1.000  H
  H446     1.0000 0.87803  0.48867  0.88617  Biso   1.000  H
  H447     1.0000 0.51133  0.38937  0.88617  Biso   1.000  H
  H448     1.0000 0.15533  0.21137  0.44717  Biso   1.000  H
  H449     1.0000 0.05603  0.84467  0.44717  Biso   1.000  H
  H450     1.0000 0.78863  0.94397  0.44717  Biso   1.000  H
  C829     1.0000 0.23380  0.48470  0.21863  Biso   1.000  C
  C830     1.0000 0.51530  0.74910  0.21863  Biso   1.000  C
  C831     1.0000 0.25090  0.76620  0.21863  Biso   1.000  C
  C832     1.0000 0.74910  0.51530  0.78137  Biso   1.000  C
  C833     1.0000 0.76620  0.25090  0.78137  Biso   1.000  C
  C834     1.0000 0.48470  0.23380  0.78137  Biso   1.000  C
  C835     1.0000 0.90047  0.81803  0.55196  Biso   1.000  C
  C836     1.0000 0.18197  0.08243  0.55196  Biso   1.000  C
  C837     1.0000 0.91757  0.09953  0.55196  Biso   1.000  C
  C838     1.0000 0.41577  0.84863  0.11470  Biso   1.000  C
  C839     1.0000 0.43287  0.58423  0.11470  Biso   1.000  C
  C840     1.0000 0.15137  0.56713  0.11470  Biso   1.000  C
  C841     1.0000 0.56713  0.15137  0.88530  Biso   1.000  C
  C842     1.0000 0.84863  0.41577  0.88530  Biso   1.000  C
  C843     1.0000 0.58423  0.43287  0.88530  Biso   1.000  C
  C844     1.0000 0.08243  0.18197  0.44804  Biso   1.000  C
  C845     1.0000 0.09953  0.91757  0.44804  Biso   1.000  C
  C846     1.0000 0.81803  0.90047  0.44804  Biso   1.000  C
  H451     1.0000 0.24540  0.50100  0.20850  Biso   1.000  H
  H452     1.0000 0.49900  0.74440  0.20850  Biso   1.000  H
  H453     1.0000 0.25560  0.75460  0.20850  Biso   1.000  H
  H454     1.0000 0.74440  0.49900  0.79150  Biso   1.000  H
  H455     1.0000 0.75460  0.25560  0.79150  Biso   1.000  H
  H456     1.0000 0.50100  0.24540  0.79150  Biso   1.000  H
  H457     1.0000 0.91207  0.83433  0.54183  Biso   1.000  H
  H458     1.0000 0.16567  0.07773  0.54183  Biso   1.000  H
  H459     1.0000 0.92227  0.08793  0.54183  Biso   1.000  H
  H460     1.0000 0.41107  0.83233  0.12483  Biso   1.000  H
  H461     1.0000 0.42127  0.58893  0.12483  Biso   1.000  H
  H462     1.0000 0.16767  0.57873  0.12483  Biso   1.000  H
  H463     1.0000 0.57873  0.16767  0.87517  Biso   1.000  H
  H464     1.0000 0.83233  0.41107  0.87517  Biso   1.000  H
  H465     1.0000 0.58893  0.42127  0.87517  Biso   1.000  H
  H466     1.0000 0.07773  0.16567  0.45817  Biso   1.000  H
  H467     1.0000 0.08793  0.92227  0.45817  Biso   1.000  H
  H468     1.0000 0.83433  0.91207  0.45817  Biso   1.000  H
  C847     1.0000 0.75060  0.82640  0.50392  Biso   1.000  C
  C848     1.0000 0.17360  0.92420  0.50392  Biso   1.000  C
  C849     1.0000 0.07580  0.24940  0.50392  Biso   1.000  C
  C850     1.0000 0.92420  0.17360  0.49608  Biso   1.000  C
  C851     1.0000 0.24940  0.07580  0.49608  Biso   1.000  C
  C852     1.0000 0.82640  0.75060  0.49608  Biso   1.000  C
  C853     1.0000 0.41727  0.15973  0.83725  Biso   1.000  C
  C854     1.0000 0.84027  0.25753  0.83725  Biso   1.000  C
  C855     1.0000 0.74247  0.58273  0.83725  Biso   1.000  C
  C856     1.0000 0.59087  0.50693  0.82941  Biso   1.000  C
  C857     1.0000 0.91607  0.40913  0.82941  Biso   1.000  C
  C858     1.0000 0.49307  0.08393  0.82941  Biso   1.000  C
  C859     1.0000 0.08393  0.49307  0.17059  Biso   1.000  C
  C860     1.0000 0.50693  0.59087  0.17059  Biso   1.000  C
  C861     1.0000 0.40913  0.91607  0.17059  Biso   1.000  C
  C862     1.0000 0.25753  0.84027  0.16275  Biso   1.000  C
  C863     1.0000 0.58273  0.74247  0.16275  Biso   1.000  C
  C864     1.0000 0.15973  0.41727  0.16275  Biso   1.000  C
  C865     1.0000 0.71310  0.77990  0.50759  Biso   1.000  C
  C866     1.0000 0.22010  0.93320  0.50759  Biso   1.000  C
  C867     1.0000 0.06680  0.28690  0.50759  Biso   1.000  C
  C868     1.0000 0.93320  0.22010  0.49241  Biso   1.000  C
  C869     1.0000 0.28690  0.06680  0.49241  Biso   1.000  C
  C870     1.0000 0.77990  0.71310  0.49241  Biso   1.000  C
  C871     1.0000 0.37977  0.11323  0.84092  Biso   1.000  C
  C872     1.0000 0.88677  0.26653  0.84092  Biso   1.000  C
  C873     1.0000 0.73347  0.62023  0.84092  Biso   1.000  C
  C874     1.0000 0.59987  0.55343  0.82574  Biso   1.000  C
  C875     1.0000 0.95357  0.40013  0.82574  Biso   1.000  C
  C876     1.0000 0.44657  0.04643  0.82574  Biso   1.000  C
  C877     1.0000 0.04643  0.44657  0.17426  Biso   1.000  C
  C878     1.0000 0.55343  0.59987  0.17426  Biso   1.000  C
  C879     1.0000 0.40013  0.95357  0.17426  Biso   1.000  C
  C880     1.0000 0.26653  0.88677  0.15908  Biso   1.000  C
  C881     1.0000 0.62023  0.73347  0.15908  Biso   1.000  C
  C882     1.0000 0.11323  0.37977  0.15908  Biso   1.000  C
  H469     1.0000 0.70280  0.77130  0.51860  Biso   1.000  H
  H470     1.0000 0.22870  0.93150  0.51860  Biso   1.000  H
  H471     1.0000 0.06850  0.29720  0.51860  Biso   1.000  H
  H472     1.0000 0.93150  0.22870  0.48140  Biso   1.000  H
  H473     1.0000 0.29720  0.06850  0.48140  Biso   1.000  H
  H474     1.0000 0.77130  0.70280  0.48140  Biso   1.000  H
  H475     1.0000 0.36947  0.10463  0.85193  Biso   1.000  H
  H476     1.0000 0.89537  0.26483  0.85193  Biso   1.000  H
  H477     1.0000 0.73517  0.63053  0.85193  Biso   1.000  H
  H478     1.0000 0.59817  0.56203  0.81473  Biso   1.000  H
  H479     1.0000 0.96387  0.40183  0.81473  Biso   1.000  H
  H480     1.0000 0.43797  0.03613  0.81473  Biso   1.000  H
  H481     1.0000 0.03613  0.43797  0.18527  Biso   1.000  H
  H482     1.0000 0.56203  0.59817  0.18527  Biso   1.000  H
  H483     1.0000 0.40183  0.96387  0.18527  Biso   1.000  H
  H484     1.0000 0.26483  0.89537  0.14807  Biso   1.000  H
  H485     1.0000 0.63053  0.73517  0.14807  Biso   1.000  H
  H486     1.0000 0.10463  0.36947  0.14807  Biso   1.000  H
  C883     1.0000 0.69090  0.74620  0.49475  Biso   1.000  C
  C884     1.0000 0.25380  0.94470  0.49475  Biso   1.000  C
  C885     1.0000 0.05530  0.30910  0.49475  Biso   1.000  C
  C886     1.0000 0.94470  0.25380  0.50525  Biso   1.000  C
  C887     1.0000 0.30910  0.05530  0.50525  Biso   1.000  C
  C888     1.0000 0.74620  0.69090  0.50525  Biso   1.000  C
  C889     1.0000 0.35757  0.07953  0.82808  Biso   1.000  C
  C890     1.0000 0.92047  0.27803  0.82808  Biso   1.000  C
  C891     1.0000 0.72197  0.64243  0.82808  Biso   1.000  C
  C892     1.0000 0.61137  0.58713  0.83858  Biso   1.000  C
  C893     1.0000 0.97577  0.38863  0.83858  Biso   1.000  C
  C894     1.0000 0.41287  0.02423  0.83858  Biso   1.000  C
  C895     1.0000 0.02423  0.41287  0.16142  Biso   1.000  C
  C896     1.0000 0.58713  0.61137  0.16142  Biso   1.000  C
  C897     1.0000 0.38863  0.97577  0.16142  Biso   1.000  C
  C898     1.0000 0.27803  0.92047  0.17192  Biso   1.000  C
  C899     1.0000 0.64243  0.72197  0.17192  Biso   1.000  C
  C900     1.0000 0.07953  0.35757  0.17192  Biso   1.000  C
  H487     1.0000 0.66580  0.71510  0.49720  Biso   1.000  H
  H488     1.0000 0.28490  0.95070  0.49720  Biso   1.000  H
  H489     1.0000 0.04930  0.33420  0.49720  Biso   1.000  H
  H490     1.0000 0.95070  0.28490  0.50280  Biso   1.000  H
  H491     1.0000 0.33420  0.04930  0.50280  Biso   1.000  H
  H492     1.0000 0.71510  0.66580  0.50280  Biso   1.000  H
  H493     1.0000 0.33247  0.04843  0.83053  Biso   1.000  H
  H494     1.0000 0.95157  0.28403  0.83053  Biso   1.000  H
  H495     1.0000 0.71597  0.66753  0.83053  Biso   1.000  H
  H496     1.0000 0.61737  0.61823  0.83613  Biso   1.000  H
  H497     1.0000 0.00087  0.38263  0.83613  Biso   1.000  H
  H498     1.0000 0.38177  0.99913  0.83613  Biso   1.000  H
  H499     1.0000 0.99913  0.38177  0.16387  Biso   1.000  H
  H500     1.0000 0.61823  0.61737  0.16387  Biso   1.000  H
  H501     1.0000 0.38263  0.00087  0.16387  Biso   1.000  H
  H502     1.0000 0.28403  0.95157  0.16947  Biso   1.000  H
  H503     1.0000 0.66753  0.71597  0.16947  Biso   1.000  H
  H504     1.0000 0.04843  0.33247  0.16947  Biso   1.000  H
  C901     1.0000 0.70630  0.75910  0.47823  Biso   1.000  C
  C902     1.0000 0.24090  0.94720  0.47823  Biso   1.000  C
  C903     1.0000 0.05280  0.29370  0.47823  Biso   1.000  C
  C904     1.0000 0.94720  0.24090  0.52177  Biso   1.000  C
  C905     1.0000 0.29370  0.05280  0.52177  Biso   1.000  C
  C906     1.0000 0.75910  0.70630  0.52177  Biso   1.000  C
  C907     1.0000 0.37297  0.09243  0.81156  Biso   1.000  C
  C908     1.0000 0.90757  0.28053  0.81156  Biso   1.000  C
  C909     1.0000 0.71947  0.62703  0.81156  Biso   1.000  C
  C910     1.0000 0.61387  0.57423  0.85510  Biso   1.000  C
  C911     1.0000 0.96037  0.38613  0.85510  Biso   1.000  C
  C912     1.0000 0.42577  0.03963  0.85510  Biso   1.000  C
  C913     1.0000 0.03963  0.42577  0.14490  Biso   1.000  C
  C914     1.0000 0.57423  0.61387  0.14490  Biso   1.000  C
  C915     1.0000 0.38613  0.96037  0.14490  Biso   1.000  C
  C916     1.0000 0.28053  0.90757  0.18844  Biso   1.000  C
  C917     1.0000 0.62703  0.71947  0.18844  Biso   1.000  C
  C918     1.0000 0.09243  0.37297  0.18844  Biso   1.000  C
  C919     1.0000 0.74380  0.80550  0.47455  Biso   1.000  C
  C920     1.0000 0.19450  0.93830  0.47455  Biso   1.000  C
  C921     1.0000 0.06170  0.25620  0.47455  Biso   1.000  C
  C922     1.0000 0.93830  0.19450  0.52545  Biso   1.000  C
  C923     1.0000 0.25620  0.06170  0.52545  Biso   1.000  C
  C924     1.0000 0.80550  0.74380  0.52545  Biso   1.000  C
  C925     1.0000 0.41047  0.13883  0.80788  Biso   1.000  C
  C926     1.0000 0.86117  0.27163  0.80788  Biso   1.000  C
  C927     1.0000 0.72837  0.58953  0.80788  Biso   1.000  C
  C928     1.0000 0.60497  0.52783  0.85878  Biso   1.000  C
  C929     1.0000 0.92287  0.39503  0.85878  Biso   1.000  C
  C930     1.0000 0.47217  0.07713  0.85878  Biso   1.000  C
  C931     1.0000 0.07713  0.47217  0.14122  Biso   1.000  C
  C932     1.0000 0.52783  0.60497  0.14122  Biso   1.000  C
  C933     1.0000 0.39503  0.92287  0.14122  Biso   1.000  C
  C934     1.0000 0.27163  0.86117  0.19212  Biso   1.000  C
  C935     1.0000 0.58953  0.72837  0.19212  Biso   1.000  C
  C936     1.0000 0.13883  0.41047  0.19212  Biso   1.000  C
  H505     1.0000 0.75410  0.81410  0.46350  Biso   1.000  H
  H506     1.0000 0.18590  0.94000  0.46350  Biso   1.000  H
  H507     1.0000 0.06000  0.24590  0.46350  Biso   1.000  H
  H508     1.0000 0.94000  0.18590  0.53650  Biso   1.000  H
  H509     1.0000 0.24590  0.06000  0.53650  Biso   1.000  H
  H510     1.0000 0.81410  0.75410  0.53650  Biso   1.000  H
  H511     1.0000 0.42077  0.14743  0.79683  Biso   1.000  H
  H512     1.0000 0.85257  0.27333  0.79683  Biso   1.000  H
  H513     1.0000 0.72667  0.57923  0.79683  Biso   1.000  H
  H514     1.0000 0.60667  0.51923  0.86983  Biso   1.000  H
  H515     1.0000 0.91257  0.39333  0.86983  Biso   1.000  H
  H516     1.0000 0.48077  0.08743  0.86983  Biso   1.000  H
  H517     1.0000 0.08743  0.48077  0.13017  Biso   1.000  H
  H518     1.0000 0.51923  0.60667  0.13017  Biso   1.000  H
  H519     1.0000 0.39333  0.91257  0.13017  Biso   1.000  H
  H520     1.0000 0.27333  0.85257  0.20317  Biso   1.000  H
  H521     1.0000 0.57923  0.72667  0.20317  Biso   1.000  H
  H522     1.0000 0.14743  0.42077  0.20317  Biso   1.000  H
  C937     1.0000 0.76600  0.83930  0.48740  Biso   1.000  C
  C938     1.0000 0.16070  0.92670  0.48740  Biso   1.000  C
  C939     1.0000 0.07330  0.23400  0.48740  Biso   1.000  C
  C940     1.0000 0.92670  0.16070  0.51260  Biso   1.000  C
  C941     1.0000 0.23400  0.07330  0.51260  Biso   1.000  C
  C942     1.0000 0.83930  0.76600  0.51260  Biso   1.000  C
  C943     1.0000 0.43267  0.17263  0.82073  Biso   1.000  C
  C944     1.0000 0.82737  0.26003  0.82073  Biso   1.000  C
  C945     1.0000 0.73997  0.56733  0.82073  Biso   1.000  C
  C946     1.0000 0.59337  0.49403  0.84593  Biso   1.000  C
  C947     1.0000 0.90067  0.40663  0.84593  Biso   1.000  C
  C948     1.0000 0.50597  0.09933  0.84593  Biso   1.000  C
  C949     1.0000 0.09933  0.50597  0.15407  Biso   1.000  C
  C950     1.0000 0.49403  0.59337  0.15407  Biso   1.000  C
  C951     1.0000 0.40663  0.90067  0.15407  Biso   1.000  C
  C952     1.0000 0.26003  0.82737  0.17927  Biso   1.000  C
  C953     1.0000 0.56733  0.73997  0.17927  Biso   1.000  C
  C954     1.0000 0.17263  0.43267  0.17927  Biso   1.000  C
  H523     1.0000 0.79110  0.87040  0.48490  Biso   1.000  H
  H524     1.0000 0.12960  0.92070  0.48490  Biso   1.000  H
  H525     1.0000 0.07930  0.20890  0.48490  Biso   1.000  H
  H526     1.0000 0.92070  0.12960  0.51510  Biso   1.000  H
  H527     1.0000 0.20890  0.07930  0.51510  Biso   1.000  H
  H528     1.0000 0.87040  0.79110  0.51510  Biso   1.000  H
  H529     1.0000 0.45777  0.20373  0.81823  Biso   1.000  H
  H530     1.0000 0.79627  0.25403  0.81823  Biso   1.000  H
  H531     1.0000 0.74597  0.54223  0.81823  Biso   1.000  H
  H532     1.0000 0.58737  0.46293  0.84843  Biso   1.000  H
  H533     1.0000 0.87557  0.41263  0.84843  Biso   1.000  H
  H534     1.0000 0.53707  0.12443  0.84843  Biso   1.000  H
  H535     1.0000 0.12443  0.53707  0.15157  Biso   1.000  H
  H536     1.0000 0.46293  0.58737  0.15157  Biso   1.000  H
  H537     1.0000 0.41263  0.87557  0.15157  Biso   1.000  H
  H538     1.0000 0.25403  0.79627  0.18177  Biso   1.000  H
  H539     1.0000 0.54223  0.74597  0.18177  Biso   1.000  H
  H540     1.0000 0.20373  0.45777  0.18177  Biso   1.000  H
  C955     1.0000 0.37580  0.28160  0.31159  Biso   1.000  C
  C956     1.0000 0.71840  0.09420  0.31159  Biso   1.000  C
  C957     1.0000 0.90580  0.62420  0.31159  Biso   1.000  C
  C958     1.0000 0.09420  0.71840  0.68841  Biso   1.000  C
  C959     1.0000 0.62420  0.90580  0.68841  Biso   1.000  C
  C960     1.0000 0.28160  0.37580  0.68841  Biso   1.000  C
  C961     1.0000 0.04247  0.61493  0.64492  Biso   1.000  C
  C962     1.0000 0.38507  0.42753  0.64492  Biso   1.000  C
  C963     1.0000 0.57247  0.95753  0.64492  Biso   1.000  C
  C964     1.0000 0.76087  0.05173  0.02174  Biso   1.000  C
  C965     1.0000 0.29087  0.23913  0.02174  Biso   1.000  C
  C966     1.0000 0.94827  0.70913  0.02174  Biso   1.000  C
  C967     1.0000 0.70913  0.94827  0.97826  Biso   1.000  C
  C968     1.0000 0.05173  0.76087  0.97826  Biso   1.000  C
  C969     1.0000 0.23913  0.29087  0.97826  Biso   1.000  C
  C970     1.0000 0.42753  0.38507  0.35508  Biso   1.000  C
  C971     1.0000 0.95753  0.57247  0.35508  Biso   1.000  C
  C972     1.0000 0.61493  0.04247  0.35508  Biso   1.000  C
  C973     1.0000 0.34760  0.26280  0.32597  Biso   1.000  C
  C974     1.0000 0.73720  0.08480  0.32597  Biso   1.000  C
  C975     1.0000 0.91520  0.65240  0.32597  Biso   1.000  C
  C976     1.0000 0.08480  0.73720  0.67403  Biso   1.000  C
  C977     1.0000 0.65240  0.91520  0.67403  Biso   1.000  C
  C978     1.0000 0.26280  0.34760  0.67403  Biso   1.000  C
  C979     1.0000 0.01427  0.59613  0.65930  Biso   1.000  C
  C980     1.0000 0.40387  0.41813  0.65930  Biso   1.000  C
  C981     1.0000 0.58187  0.98573  0.65930  Biso   1.000  C
  C982     1.0000 0.75147  0.07053  0.00736  Biso   1.000  C
  C983     1.0000 0.31907  0.24853  0.00736  Biso   1.000  C
  C984     1.0000 0.92947  0.68093  0.00736  Biso   1.000  C
  C985     1.0000 0.68093  0.92947  0.99264  Biso   1.000  C
  C986     1.0000 0.07053  0.75147  0.99264  Biso   1.000  C
  C987     1.0000 0.24853  0.31907  0.99264  Biso   1.000  C
  C988     1.0000 0.41813  0.40387  0.34070  Biso   1.000  C
  C989     1.0000 0.98573  0.58187  0.34070  Biso   1.000  C
  C990     1.0000 0.59613  0.01427  0.34070  Biso   1.000  C
  H541     1.0000 0.31620  0.25760  0.32620  Biso   1.000  H
  H542     1.0000 0.74240  0.05860  0.32620  Biso   1.000  H
  H543     1.0000 0.94140  0.68380  0.32620  Biso   1.000  H
  H544     1.0000 0.05860  0.74240  0.67380  Biso   1.000  H
  H545     1.0000 0.68380  0.94140  0.67380  Biso   1.000  H
  H546     1.0000 0.25760  0.31620  0.67380  Biso   1.000  H
  H547     1.0000 0.98287  0.59093  0.65953  Biso   1.000  H
  H548     1.0000 0.40907  0.39193  0.65953  Biso   1.000  H
  H549     1.0000 0.60807  0.01713  0.65953  Biso   1.000  H
  H550     1.0000 0.72527  0.07573  0.00713  Biso   1.000  H
  H551     1.0000 0.35047  0.27473  0.00713  Biso   1.000  H
  H552     1.0000 0.92427  0.64953  0.00713  Biso   1.000  H
  H553     1.0000 0.64953  0.92427  0.99287  Biso   1.000  H
  H554     1.0000 0.07573  0.72527  0.99287  Biso   1.000  H
  H555     1.0000 0.27473  0.35047  0.99287  Biso   1.000  H
  H556     1.0000 0.39193  0.40907  0.34047  Biso   1.000  H
  H557     1.0000 0.01713  0.60807  0.34047  Biso   1.000  H
  H558     1.0000 0.59093  0.98287  0.34047  Biso   1.000  H
  C991     1.0000 0.36650  0.25180  0.33996  Biso   1.000  C
  C992     1.0000 0.74820  0.11470  0.33996  Biso   1.000  C
  C993     1.0000 0.88530  0.63350  0.33996  Biso   1.000  C
  C994     1.0000 0.11470  0.74820  0.66004  Biso   1.000  C
  C995     1.0000 0.63350  0.88530  0.66004  Biso   1.000  C
  C996     1.0000 0.25180  0.36650  0.66004  Biso   1.000  C
  C997     1.0000 0.03317  0.58513  0.67329  Biso   1.000  C
  C998     1.0000 0.41487  0.44803  0.67329  Biso   1.000  C
  C999     1.0000 0.55197  0.96683  0.67329  Biso   1.000  C
  C1000    1.0000 0.78137  0.08153  0.99337  Biso   1.000  C
  C1001    1.0000 0.30017  0.21863  0.99337  Biso   1.000  C
  C1002    1.0000 0.91847  0.69983  0.99337  Biso   1.000  C
  C1003    1.0000 0.69983  0.91847  0.00663  Biso   1.000  C
  C1004    1.0000 0.08153  0.78137  0.00663  Biso   1.000  C
  C1005    1.0000 0.21863  0.30017  0.00663  Biso   1.000  C
  C1006    1.0000 0.44803  0.41487  0.32671  Biso   1.000  C
  C1007    1.0000 0.96683  0.55197  0.32671  Biso   1.000  C
  C1008    1.0000 0.58513  0.03317  0.32671  Biso   1.000  C
  H559     1.0000 0.34770  0.23920  0.34960  Biso   1.000  H
  H560     1.0000 0.76080  0.10850  0.34960  Biso   1.000  H
  H561     1.0000 0.89150  0.65230  0.34960  Biso   1.000  H
  H562     1.0000 0.10850  0.76080  0.65040  Biso   1.000  H
  H563     1.0000 0.65230  0.89150  0.65040  Biso   1.000  H
  H564     1.0000 0.23920  0.34770  0.65040  Biso   1.000  H
  H565     1.0000 0.01437  0.57253  0.68293  Biso   1.000  H
  H566     1.0000 0.42747  0.44183  0.68293  Biso   1.000  H
  H567     1.0000 0.55817  0.98563  0.68293  Biso   1.000  H
  H568     1.0000 0.77517  0.09413  0.98373  Biso   1.000  H
  H569     1.0000 0.31897  0.22483  0.98373  Biso   1.000  H
  H570     1.0000 0.90587  0.68103  0.98373  Biso   1.000  H
  H571     1.0000 0.68103  0.90587  0.01627  Biso   1.000  H
  H572     1.0000 0.09413  0.77517  0.01627  Biso   1.000  H
  H573     1.0000 0.22483  0.31897  0.01627  Biso   1.000  H
  H574     1.0000 0.44183  0.42747  0.31707  Biso   1.000  H
  H575     1.0000 0.98563  0.55817  0.31707  Biso   1.000  H
  H576     1.0000 0.57253  0.01437  0.31707  Biso   1.000  H
  C1009    1.0000 0.41360  0.25960  0.33958  Biso   1.000  C
  C1010    1.0000 0.74040  0.15400  0.33958  Biso   1.000  C
  C1011    1.0000 0.84600  0.58640  0.33958  Biso   1.000  C
  C1012    1.0000 0.15400  0.74040  0.66042  Biso   1.000  C
  C1013    1.0000 0.58640  0.84600  0.66042  Biso   1.000  C
  C1014    1.0000 0.25960  0.41360  0.66042  Biso   1.000  C
  C1015    1.0000 0.08027  0.59293  0.67291  Biso   1.000  C
  C1016    1.0000 0.40707  0.48733  0.67291  Biso   1.000  C
  C1017    1.0000 0.51267  0.91973  0.67291  Biso   1.000  C
  C1018    1.0000 0.82067  0.07373  0.99375  Biso   1.000  C
  C1019    1.0000 0.25307  0.17933  0.99375  Biso   1.000  C
  C1020    1.0000 0.92627  0.74693  0.99375  Biso   1.000  C
  C1021    1.0000 0.74693  0.92627  0.00625  Biso   1.000  C
  C1022    1.0000 0.07373  0.82067  0.00625  Biso   1.000  C
  C1023    1.0000 0.17933  0.25307  0.00625  Biso   1.000  C
  C1024    1.0000 0.48733  0.40707  0.32709  Biso   1.000  C
  C1025    1.0000 0.91973  0.51267  0.32709  Biso   1.000  C
  C1026    1.0000 0.59293  0.08027  0.32709  Biso   1.000  C
  C1027    1.0000 0.44180  0.27840  0.32520  Biso   1.000  C
  C1028    1.0000 0.72160  0.16340  0.32520  Biso   1.000  C
  C1029    1.0000 0.83660  0.55820  0.32520  Biso   1.000  C
  C1030    1.0000 0.16340  0.72160  0.67480  Biso   1.000  C
  C1031    1.0000 0.55820  0.83660  0.67480  Biso   1.000  C
  C1032    1.0000 0.27840  0.44180  0.67480  Biso   1.000  C
  C1033    1.0000 0.10847  0.61173  0.65853  Biso   1.000  C
  C1034    1.0000 0.38827  0.49673  0.65853  Biso   1.000  C
  C1035    1.0000 0.50327  0.89153  0.65853  Biso   1.000  C
  C1036    1.0000 0.83007  0.05493  0.00813  Biso   1.000  C
  C1037    1.0000 0.22487  0.16993  0.00813  Biso   1.000  C
  C1038    1.0000 0.94507  0.77513  0.00813  Biso   1.000  C
  C1039    1.0000 0.77513  0.94507  0.99187  Biso   1.000  C
  C1040    1.0000 0.05493  0.83007  0.99187  Biso   1.000  C
  C1041    1.0000 0.16993  0.22487  0.99187  Biso   1.000  C
  C1042    1.0000 0.49673  0.38827  0.34147  Biso   1.000  C
  C1043    1.0000 0.89153  0.50327  0.34147  Biso   1.000  C
  C1044    1.0000 0.61173  0.10847  0.34147  Biso   1.000  C
  H577     1.0000 0.47320  0.28370  0.32490  Biso   1.000  H
  H578     1.0000 0.71630  0.18950  0.32490  Biso   1.000  H
  H579     1.0000 0.81050  0.52680  0.32490  Biso   1.000  H
  H580     1.0000 0.18950  0.71630  0.67510  Biso   1.000  H
  H581     1.0000 0.52680  0.81050  0.67510  Biso   1.000  H
  H582     1.0000 0.28370  0.47320  0.67510  Biso   1.000  H
  H583     1.0000 0.13987  0.61703  0.65823  Biso   1.000  H
  H584     1.0000 0.38297  0.52283  0.65823  Biso   1.000  H
  H585     1.0000 0.47717  0.86013  0.65823  Biso   1.000  H
  H586     1.0000 0.85617  0.04963  0.00843  Biso   1.000  H
  H587     1.0000 0.19347  0.14383  0.00843  Biso   1.000  H
  H588     1.0000 0.95037  0.80653  0.00843  Biso   1.000  H
  H589     1.0000 0.80653  0.95037  0.99157  Biso   1.000  H
  H590     1.0000 0.04963  0.85617  0.99157  Biso   1.000  H
  H591     1.0000 0.14383  0.19347  0.99157  Biso   1.000  H
  H592     1.0000 0.52283  0.38297  0.34177  Biso   1.000  H
  H593     1.0000 0.86013  0.47717  0.34177  Biso   1.000  H
  H594     1.0000 0.61703  0.13987  0.34177  Biso   1.000  H
  C1045    1.0000 0.42290  0.28940  0.31120  Biso   1.000  C
  C1046    1.0000 0.71060  0.13350  0.31120  Biso   1.000  C
  C1047    1.0000 0.86650  0.57710  0.31120  Biso   1.000  C
  C1048    1.0000 0.13350  0.71060  0.68880  Biso   1.000  C
  C1049    1.0000 0.57710  0.86650  0.68880  Biso   1.000  C
  C1050    1.0000 0.28940  0.42290  0.68880  Biso   1.000  C
  C1051    1.0000 0.08957  0.62273  0.64453  Biso   1.000  C
  C1052    1.0000 0.37727  0.46683  0.64453  Biso   1.000  C
  C1053    1.0000 0.53317  0.91043  0.64453  Biso   1.000  C
  C1054    1.0000 0.80017  0.04393  0.02213  Biso   1.000  C
  C1055    1.0000 0.24377  0.19983  0.02213  Biso   1.000  C
  C1056    1.0000 0.95607  0.75623  0.02213  Biso   1.000  C
  C1057    1.0000 0.75623  0.95607  0.97787  Biso   1.000  C
  C1058    1.0000 0.04393  0.80017  0.97787  Biso   1.000  C
  C1059    1.0000 0.19983  0.24377  0.97787  Biso   1.000  C
  C1060    1.0000 0.46683  0.37727  0.35547  Biso   1.000  C
  C1061    1.0000 0.91043  0.53317  0.35547  Biso   1.000  C
  C1062    1.0000 0.62273  0.08957  0.35547  Biso   1.000  C
  H595     1.0000 0.44170  0.30200  0.30160  Biso   1.000  H
  H596     1.0000 0.69800  0.13970  0.30160  Biso   1.000  H
  H597     1.0000 0.86030  0.55830  0.30160  Biso   1.000  H
  H598     1.0000 0.13970  0.69800  0.69840  Biso   1.000  H
  H599     1.0000 0.55830  0.86030  0.69840  Biso   1.000  H
  H600     1.0000 0.30200  0.44170  0.69840  Biso   1.000  H
  H601     1.0000 0.10837  0.63533  0.63493  Biso   1.000  H
  H602     1.0000 0.36467  0.47303  0.63493  Biso   1.000  H
  H603     1.0000 0.52697  0.89163  0.63493  Biso   1.000  H
  H604     1.0000 0.80637  0.03133  0.03173  Biso   1.000  H
  H605     1.0000 0.22497  0.19363  0.03173  Biso   1.000  H
  H606     1.0000 0.96867  0.77503  0.03173  Biso   1.000  H
  H607     1.0000 0.77503  0.96867  0.96827  Biso   1.000  H
  H608     1.0000 0.03133  0.80637  0.96827  Biso   1.000  H
  H609     1.0000 0.19363  0.22497  0.96827  Biso   1.000  H
  H610     1.0000 0.47303  0.36467  0.36507  Biso   1.000  H
  H611     1.0000 0.89163  0.52697  0.36507  Biso   1.000  H
  H612     1.0000 0.63533  0.10837  0.36507  Biso   1.000  H
  C1063    1.0000 0.71980  0.16420  0.48549  Biso   1.000  C
  C1064    1.0000 0.83580  0.55560  0.48549  Biso   1.000  C
  C1065    1.0000 0.44440  0.28020  0.48549  Biso   1.000  C
  C1066    1.0000 0.55560  0.83580  0.51451  Biso   1.000  C
  C1067    1.0000 0.28020  0.44440  0.51451  Biso   1.000  C
  C1068    1.0000 0.16420  0.71980  0.51451  Biso   1.000  C
  C1069    1.0000 0.38647  0.49753  0.81882  Biso   1.000  C
  C1070    1.0000 0.50247  0.88893  0.81882  Biso   1.000  C
  C1071    1.0000 0.11107  0.61353  0.81882  Biso   1.000  C
  C1072    1.0000 0.22227  0.16913  0.84784  Biso   1.000  C
  C1073    1.0000 0.94687  0.77773  0.84784  Biso   1.000  C
  C1074    1.0000 0.83087  0.05313  0.84784  Biso   1.000  C
  C1075    1.0000 0.05313  0.83087  0.15216  Biso   1.000  C
  C1076    1.0000 0.16913  0.22227  0.15216  Biso   1.000  C
  C1077    1.0000 0.77773  0.94687  0.15216  Biso   1.000  C
  C1078    1.0000 0.88893  0.50247  0.18118  Biso   1.000  C
  C1079    1.0000 0.61353  0.11107  0.18118  Biso   1.000  C
  C1080    1.0000 0.49753  0.38647  0.18118  Biso   1.000  C
  C1081    1.0000 0.76780  0.18070  0.49000  Biso   1.000  C
  C1082    1.0000 0.81930  0.58710  0.49000  Biso   1.000  C
  C1083    1.0000 0.41290  0.23220  0.49000  Biso   1.000  C
  C1084    1.0000 0.58710  0.81930  0.51000  Biso   1.000  C
  C1085    1.0000 0.23220  0.41290  0.51000  Biso   1.000  C
  C1086    1.0000 0.18070  0.76780  0.51000  Biso   1.000  C
  C1087    1.0000 0.43447  0.51403  0.82333  Biso   1.000  C
  C1088    1.0000 0.48597  0.92043  0.82333  Biso   1.000  C
  C1089    1.0000 0.07957  0.56553  0.82333  Biso   1.000  C
  C1090    1.0000 0.25377  0.15263  0.84333  Biso   1.000  C
  C1091    1.0000 0.89887  0.74623  0.84333  Biso   1.000  C
  C1092    1.0000 0.84737  0.10113  0.84333  Biso   1.000  C
  C1093    1.0000 0.10113  0.84737  0.15667  Biso   1.000  C
  C1094    1.0000 0.15263  0.25377  0.15667  Biso   1.000  C
  C1095    1.0000 0.74623  0.89887  0.15667  Biso   1.000  C
  C1096    1.0000 0.92043  0.48597  0.17667  Biso   1.000  C
  C1097    1.0000 0.56553  0.07957  0.17667  Biso   1.000  C
  C1098    1.0000 0.51403  0.43447  0.17667  Biso   1.000  C
  H613     1.0000 0.79170  0.21210  0.48730  Biso   1.000  H
  H614     1.0000 0.78790  0.57960  0.48730  Biso   1.000  H
  H615     1.0000 0.42040  0.20830  0.48730  Biso   1.000  H
  H616     1.0000 0.57960  0.78790  0.51270  Biso   1.000  H
  H617     1.0000 0.20830  0.42040  0.51270  Biso   1.000  H
  H618     1.0000 0.21210  0.79170  0.51270  Biso   1.000  H
  H619     1.0000 0.45837  0.54543  0.82063  Biso   1.000  H
  H620     1.0000 0.45457  0.91293  0.82063  Biso   1.000  H
  H621     1.0000 0.08707  0.54163  0.82063  Biso   1.000  H
  H622     1.0000 0.24627  0.12123  0.84603  Biso   1.000  H
  H623     1.0000 0.87497  0.75373  0.84603  Biso   1.000  H
  H624     1.0000 0.87877  0.12503  0.84603  Biso   1.000  H
  H625     1.0000 0.12503  0.87877  0.15397  Biso   1.000  H
  H626     1.0000 0.12123  0.24627  0.15397  Biso   1.000  H
  H627     1.0000 0.75373  0.87497  0.15397  Biso   1.000  H
  H628     1.0000 0.91293  0.45457  0.17937  Biso   1.000  H
  H629     1.0000 0.54163  0.08707  0.17937  Biso   1.000  H
  H630     1.0000 0.54543  0.45837  0.17937  Biso   1.000  H
  C1099    1.0000 0.78000  0.15020  0.49857  Biso   1.000  C
  C1100    1.0000 0.84980  0.62980  0.49857  Biso   1.000  C
  C1101    1.0000 0.37020  0.22000  0.49857  Biso   1.000  C
  C1102    1.0000 0.62980  0.84980  0.50143  Biso   1.000  C
  C1103    1.0000 0.22000  0.37020  0.50143  Biso   1.000  C
  C1104    1.0000 0.15020  0.78000  0.50143  Biso   1.000  C
  C1105    1.0000 0.44667  0.48353  0.83190  Biso   1.000  C
  C1106    1.0000 0.51647  0.96313  0.83190  Biso   1.000  C
  C1107    1.0000 0.03687  0.55333  0.83190  Biso   1.000  C
  C1108    1.0000 0.29647  0.18313  0.83476  Biso   1.000  C
  C1109    1.0000 0.88667  0.70353  0.83476  Biso   1.000  C
  C1110    1.0000 0.81687  0.11333  0.83476  Biso   1.000  C
  C1111    1.0000 0.11333  0.81687  0.16524  Biso   1.000  C
  C1112    1.0000 0.18313  0.29647  0.16524  Biso   1.000  C
  C1113    1.0000 0.70353  0.88667  0.16524  Biso   1.000  C
  C1114    1.0000 0.96313  0.51647  0.16810  Biso   1.000  C
  C1115    1.0000 0.55333  0.03687  0.16810  Biso   1.000  C
  C1116    1.0000 0.48353  0.44667  0.16810  Biso   1.000  C
  H631     1.0000 0.81210  0.16120  0.50160  Biso   1.000  H
  H632     1.0000 0.83880  0.65090  0.50160  Biso   1.000  H
  H633     1.0000 0.34910  0.18790  0.50160  Biso   1.000  H
  H634     1.0000 0.65090  0.83880  0.49840  Biso   1.000  H
  H635     1.0000 0.18790  0.34910  0.49840  Biso   1.000  H
  H636     1.0000 0.16120  0.81210  0.49840  Biso   1.000  H
  H637     1.0000 0.47877  0.49453  0.83493  Biso   1.000  H
  H638     1.0000 0.50547  0.98423  0.83493  Biso   1.000  H
  H639     1.0000 0.01577  0.52123  0.83493  Biso   1.000  H
  H640     1.0000 0.31757  0.17213  0.83173  Biso   1.000  H
  H641     1.0000 0.85457  0.68243  0.83173  Biso   1.000  H
  H642     1.0000 0.82787  0.14543  0.83173  Biso   1.000  H
  H643     1.0000 0.14543  0.82787  0.16827  Biso   1.000  H
  H644     1.0000 0.17213  0.31757  0.16827  Biso   1.000  H
  H645     1.0000 0.68243  0.85457  0.16827  Biso   1.000  H
  H646     1.0000 0.98423  0.50547  0.16507  Biso   1.000  H
  H647     1.0000 0.52123  0.01577  0.16507  Biso   1.000  H
  H648     1.0000 0.49453  0.47877  0.16507  Biso   1.000  H
  C1117    1.0000 0.74420  0.10320  0.50263  Biso   1.000  C
  C1118    1.0000 0.89680  0.64100  0.50263  Biso   1.000  C
  C1119    1.0000 0.35900  0.25580  0.50263  Biso   1.000  C
  C1120    1.0000 0.64100  0.89680  0.49737  Biso   1.000  C
  C1121    1.0000 0.25580  0.35900  0.49737  Biso   1.000  C
  C1122    1.0000 0.10320  0.74420  0.49737  Biso   1.000  C
  C1123    1.0000 0.41087  0.43653  0.83596  Biso   1.000  C
  C1124    1.0000 0.56347  0.97433  0.83596  Biso   1.000  C
  C1125    1.0000 0.02567  0.58913  0.83596  Biso   1.000  C
  C1126    1.0000 0.30767  0.23013  0.83070  Biso   1.000  C
  C1127    1.0000 0.92247  0.69233  0.83070  Biso   1.000  C
  C1128    1.0000 0.76987  0.07753  0.83070  Biso   1.000  C
  C1129    1.0000 0.07753  0.76987  0.16930  Biso   1.000  C
  C1130    1.0000 0.23013  0.30767  0.16930  Biso   1.000  C
  C1131    1.0000 0.69233  0.92247  0.16930  Biso   1.000  C
  C1132    1.0000 0.97433  0.56347  0.16404  Biso   1.000  C
  C1133    1.0000 0.58913  0.02567  0.16404  Biso   1.000  C
  C1134    1.0000 0.43653  0.41087  0.16404  Biso   1.000  C
  C1135    1.0000 0.69620  0.08680  0.49812  Biso   1.000  C
  C1136    1.0000 0.91320  0.60940  0.49812  Biso   1.000  C
  C1137    1.0000 0.39060  0.30380  0.49812  Biso   1.000  C
  C1138    1.0000 0.60940  0.91320  0.50188  Biso   1.000  C
  C1139    1.0000 0.30380  0.39060  0.50188  Biso   1.000  C
  C1140    1.0000 0.08680  0.69620  0.50188  Biso   1.000  C
  C1141    1.0000 0.36287  0.42013  0.83145  Biso   1.000  C
  C1142    1.0000 0.57987  0.94273  0.83145  Biso   1.000  C
  C1143    1.0000 0.05727  0.63713  0.83145  Biso   1.000  C
  C1144    1.0000 0.27607  0.24653  0.83521  Biso   1.000  C
  C1145    1.0000 0.97047  0.72393  0.83521  Biso   1.000  C
  C1146    1.0000 0.75347  0.02953  0.83521  Biso   1.000  C
  C1147    1.0000 0.02953  0.75347  0.16479  Biso   1.000  C
  C1148    1.0000 0.24653  0.27607  0.16479  Biso   1.000  C
  C1149    1.0000 0.72393  0.97047  0.16479  Biso   1.000  C
  C1150    1.0000 0.94273  0.57987  0.16855  Biso   1.000  C
  C1151    1.0000 0.63713  0.05727  0.16855  Biso   1.000  C
  C1152    1.0000 0.42013  0.36287  0.16855  Biso   1.000  C
  H649     1.0000 0.67230  0.05530  0.50080  Biso   1.000  H
  H650     1.0000 0.94470  0.61700  0.50080  Biso   1.000  H
  H651     1.0000 0.38300  0.32770  0.50080  Biso   1.000  H
  H652     1.0000 0.61700  0.94470  0.49920  Biso   1.000  H
  H653     1.0000 0.32770  0.38300  0.49920  Biso   1.000  H
  H654     1.0000 0.05530  0.67230  0.49920  Biso   1.000  H
  H655     1.0000 0.33897  0.38863  0.83413  Biso   1.000  H
  H656     1.0000 0.61137  0.95033  0.83413  Biso   1.000  H
  H657     1.0000 0.04967  0.66103  0.83413  Biso   1.000  H
  H658     1.0000 0.28367  0.27803  0.83253  Biso   1.000  H
  H659     1.0000 0.99437  0.71633  0.83253  Biso   1.000  H
  H660     1.0000 0.72197  0.00563  0.83253  Biso   1.000  H
  H661     1.0000 0.00563  0.72197  0.16747  Biso   1.000  H
  H662     1.0000 0.27803  0.28367  0.16747  Biso   1.000  H
  H663     1.0000 0.71633  0.99437  0.16747  Biso   1.000  H
  H664     1.0000 0.95033  0.61137  0.16587  Biso   1.000  H
  H665     1.0000 0.66103  0.04967  0.16587  Biso   1.000  H
  H666     1.0000 0.38863  0.33897  0.16587  Biso   1.000  H
  C1153    1.0000 0.68400  0.11730  0.48956  Biso   1.000  C
  C1154    1.0000 0.88270  0.56670  0.48956  Biso   1.000  C
  C1155    1.0000 0.43330  0.31600  0.48956  Biso   1.000  C
  C1156    1.0000 0.56670  0.88270  0.51044  Biso   1.000  C
  C1157    1.0000 0.31600  0.43330  0.51044  Biso   1.000  C
  C1158    1.0000 0.11730  0.68400  0.51044  Biso   1.000  C
  C1159    1.0000 0.35067  0.45063  0.82289  Biso   1.000  C
  C1160    1.0000 0.54937  0.90003  0.82289  Biso   1.000  C
  C1161    1.0000 0.09997  0.64933  0.82289  Biso   1.000  C
  C1162    1.0000 0.23337  0.21603  0.84377  Biso   1.000  C
  C1163    1.0000 0.98267  0.76663  0.84377  Biso   1.000  C
  C1164    1.0000 0.78397  0.01733  0.84377  Biso   1.000  C
  C1165    1.0000 0.01733  0.78397  0.15623  Biso   1.000  C
  C1166    1.0000 0.21603  0.23337  0.15623  Biso   1.000  C
  C1167    1.0000 0.76663  0.98267  0.15623  Biso   1.000  C
  C1168    1.0000 0.90003  0.54937  0.17711  Biso   1.000  C
  C1169    1.0000 0.64933  0.09997  0.17711  Biso   1.000  C
  C1170    1.0000 0.45063  0.35067  0.17711  Biso   1.000  C
  C1171    1.0000 0.69620  0.18450  0.47523  Biso   1.000  C
  C1172    1.0000 0.81550  0.51170  0.47523  Biso   1.000  C
  C1173    1.0000 0.48830  0.30380  0.47523  Biso   1.000  C
  C1174    1.0000 0.51170  0.81550  0.52477  Biso   1.000  C
  C1175    1.0000 0.30380  0.48830  0.52477  Biso   1.000  C
  C1176    1.0000 0.18450  0.69620  0.52477  Biso   1.000  C
  C1177    1.0000 0.36287  0.51783  0.80856  Biso   1.000  C
  C1178    1.0000 0.48217  0.84503  0.80856  Biso   1.000  C
  C1179    1.0000 0.15497  0.63713  0.80856  Biso   1.000  C
  C1180    1.0000 0.17837  0.14883  0.85810  Biso   1.000  C
  C1181    1.0000 0.97047  0.82163  0.85810  Biso   1.000  C
  C1182    1.0000 0.85117  0.02953  0.85810  Biso   1.000  C
  C1183    1.0000 0.02953  0.85117  0.14190  Biso   1.000  C
  C1184    1.0000 0.14883  0.17837  0.14190  Biso   1.000  C
  C1185    1.0000 0.82163  0.97047  0.14190  Biso   1.000  C
  C1186    1.0000 0.84503  0.48217  0.19144  Biso   1.000  C
  C1187    1.0000 0.63713  0.15497  0.19144  Biso   1.000  C
  C1188    1.0000 0.51783  0.36287  0.19144  Biso   1.000  C
  C1189    1.0000 0.64770  0.15070  0.47242  Biso   1.000  C
  C1190    1.0000 0.84930  0.49700  0.47242  Biso   1.000  C
  C1191    1.0000 0.50300  0.35230  0.47242  Biso   1.000  C
  C1192    1.0000 0.49700  0.84930  0.52758  Biso   1.000  C
  C1193    1.0000 0.35230  0.50300  0.52758  Biso   1.000  C
  C1194    1.0000 0.15070  0.64770  0.52758  Biso   1.000  C
  C1195    1.0000 0.31437  0.48403  0.80575  Biso   1.000  C
  C1196    1.0000 0.51597  0.83033  0.80575  Biso   1.000  C
  C1197    1.0000 0.16967  0.68563  0.80575  Biso   1.000  C
  C1198    1.0000 0.16367  0.18263  0.86091  Biso   1.000  C
  C1199    1.0000 0.01897  0.83633  0.86091  Biso   1.000  C
  C1200    1.0000 0.81737  0.98103  0.86091  Biso   1.000  C
  C1201    1.0000 0.98103  0.81737  0.13909  Biso   1.000  C
  C1202    1.0000 0.18263  0.16367  0.13909  Biso   1.000  C
  C1203    1.0000 0.83633  0.01897  0.13909  Biso   1.000  C
  C1204    1.0000 0.83033  0.51597  0.19425  Biso   1.000  C
  C1205    1.0000 0.68563  0.16967  0.19425  Biso   1.000  C
  C1206    1.0000 0.48403  0.31437  0.19425  Biso   1.000  C
  C1207    1.0000 0.61950  0.16280  0.46240  Biso   1.000  C
  C1208    1.0000 0.83720  0.45670  0.46240  Biso   1.000  C
  C1209    1.0000 0.54330  0.38050  0.46240  Biso   1.000  C
  C1210    1.0000 0.45670  0.83720  0.53760  Biso   1.000  C
  C1211    1.0000 0.38050  0.54330  0.53760  Biso   1.000  C
  C1212    1.0000 0.16280  0.61950  0.53760  Biso   1.000  C
  C1213    1.0000 0.28617  0.49613  0.79573  Biso   1.000  C
  C1214    1.0000 0.50387  0.79003  0.79573  Biso   1.000  C
  C1215    1.0000 0.20997  0.71383  0.79573  Biso   1.000  C
  C1216    1.0000 0.12337  0.17053  0.87093  Biso   1.000  C
  C1217    1.0000 0.04717  0.87663  0.87093  Biso   1.000  C
  C1218    1.0000 0.82947  0.95283  0.87093  Biso   1.000  C
  C1219    1.0000 0.95283  0.82947  0.12907  Biso   1.000  C
  C1220    1.0000 0.17053  0.12337  0.12907  Biso   1.000  C
  C1221    1.0000 0.87663  0.04717  0.12907  Biso   1.000  C
  C1222    1.0000 0.79003  0.50387  0.20427  Biso   1.000  C
  C1223    1.0000 0.71383  0.20997  0.20427  Biso   1.000  C
  C1224    1.0000 0.49613  0.28617  0.20427  Biso   1.000  C
  H667     1.0000 0.58700  0.14020  0.46050  Biso   1.000  H
  H668     1.0000 0.85980  0.44680  0.46050  Biso   1.000  H
  H669     1.0000 0.55320  0.41300  0.46050  Biso   1.000  H
  H670     1.0000 0.44680  0.85980  0.53950  Biso   1.000  H
  H671     1.0000 0.41300  0.55320  0.53950  Biso   1.000  H
  H672     1.0000 0.14020  0.58700  0.53950  Biso   1.000  H
  H673     1.0000 0.25367  0.47353  0.79383  Biso   1.000  H
  H674     1.0000 0.52647  0.78013  0.79383  Biso   1.000  H
  H675     1.0000 0.21987  0.74633  0.79383  Biso   1.000  H
  H676     1.0000 0.11347  0.19313  0.87283  Biso   1.000  H
  H677     1.0000 0.07967  0.88653  0.87283  Biso   1.000  H
  H678     1.0000 0.80687  0.92033  0.87283  Biso   1.000  H
  H679     1.0000 0.92033  0.80687  0.12717  Biso   1.000  H
  H680     1.0000 0.19313  0.11347  0.12717  Biso   1.000  H
  H681     1.0000 0.88653  0.07967  0.12717  Biso   1.000  H
  H682     1.0000 0.78013  0.52647  0.20617  Biso   1.000  H
  H683     1.0000 0.74633  0.21987  0.20617  Biso   1.000  H
  H684     1.0000 0.47353  0.25367  0.20617  Biso   1.000  H
  C1225    1.0000 0.63990  0.20870  0.45518  Biso   1.000  C
  C1226    1.0000 0.79130  0.43120  0.45518  Biso   1.000  C
  C1227    1.0000 0.56880  0.36010  0.45518  Biso   1.000  C
  C1228    1.0000 0.43120  0.79130  0.54482  Biso   1.000  C
  C1229    1.0000 0.36010  0.56880  0.54482  Biso   1.000  C
  C1230    1.0000 0.20870  0.63990  0.54482  Biso   1.000  C
  C1231    1.0000 0.30657  0.54203  0.78851  Biso   1.000  C
  C1232    1.0000 0.45797  0.76453  0.78851  Biso   1.000  C
  C1233    1.0000 0.23547  0.69343  0.78851  Biso   1.000  C
  C1234    1.0000 0.09787  0.12463  0.87815  Biso   1.000  C
  C1235    1.0000 0.02677  0.90213  0.87815  Biso   1.000  C
  C1236    1.0000 0.87537  0.97323  0.87815  Biso   1.000  C
  C1237    1.0000 0.97323  0.87537  0.12185  Biso   1.000  C
  C1238    1.0000 0.12463  0.09787  0.12185  Biso   1.000  C
  C1239    1.0000 0.90213  0.02677  0.12185  Biso   1.000  C
  C1240    1.0000 0.76453  0.45797  0.21149  Biso   1.000  C
  C1241    1.0000 0.69343  0.23547  0.21149  Biso   1.000  C
  C1242    1.0000 0.54203  0.30657  0.21149  Biso   1.000  C
  C1243    1.0000 0.68850  0.24240  0.45800  Biso   1.000  C
  C1244    1.0000 0.75760  0.44610  0.45800  Biso   1.000  C
  C1245    1.0000 0.55390  0.31150  0.45800  Biso   1.000  C
  C1246    1.0000 0.44610  0.75760  0.54200  Biso   1.000  C
  C1247    1.0000 0.31150  0.55390  0.54200  Biso   1.000  C
  C1248    1.0000 0.24240  0.68850  0.54200  Biso   1.000  C
  C1249    1.0000 0.35517  0.57573  0.79133  Biso   1.000  C
  C1250    1.0000 0.42427  0.77943  0.79133  Biso   1.000  C
  C1251    1.0000 0.22057  0.64483  0.79133  Biso   1.000  C
  C1252    1.0000 0.11277  0.09093  0.87533  Biso   1.000  C
  C1253    1.0000 0.97817  0.88723  0.87533  Biso   1.000  C
  C1254    1.0000 0.90907  0.02183  0.87533  Biso   1.000  C
  C1255    1.0000 0.02183  0.90907  0.12467  Biso   1.000  C
  C1256    1.0000 0.09093  0.11277  0.12467  Biso   1.000  C
  C1257    1.0000 0.88723  0.97817  0.12467  Biso   1.000  C
  C1258    1.0000 0.77943  0.42427  0.20867  Biso   1.000  C
  C1259    1.0000 0.64483  0.22057  0.20867  Biso   1.000  C
  C1260    1.0000 0.57573  0.35517  0.20867  Biso   1.000  C
  H685     1.0000 0.70210  0.27310  0.45320  Biso   1.000  H
  H686     1.0000 0.72690  0.42900  0.45320  Biso   1.000  H
  H687     1.0000 0.57100  0.29790  0.45320  Biso   1.000  H
  H688     1.0000 0.42900  0.72690  0.54680  Biso   1.000  H
  H689     1.0000 0.29790  0.57100  0.54680  Biso   1.000  H
  H690     1.0000 0.27310  0.70210  0.54680  Biso   1.000  H
  H691     1.0000 0.36877  0.60643  0.78653  Biso   1.000  H
  H692     1.0000 0.39357  0.76233  0.78653  Biso   1.000  H
  H693     1.0000 0.23767  0.63123  0.78653  Biso   1.000  H
  H694     1.0000 0.09567  0.06023  0.88013  Biso   1.000  H
  H695     1.0000 0.96457  0.90433  0.88013  Biso   1.000  H
  H696     1.0000 0.93977  0.03543  0.88013  Biso   1.000  H
  H697     1.0000 0.03543  0.93977  0.11987  Biso   1.000  H
  H698     1.0000 0.06023  0.09567  0.11987  Biso   1.000  H
  H699     1.0000 0.90433  0.96457  0.11987  Biso   1.000  H
  H700     1.0000 0.76233  0.39357  0.21347  Biso   1.000  H
  H701     1.0000 0.63123  0.23767  0.21347  Biso   1.000  H
  H702     1.0000 0.60643  0.36877  0.21347  Biso   1.000  H
  C1261    1.0000 0.71660  0.23030  0.46802  Biso   1.000  C
  C1262    1.0000 0.76970  0.48630  0.46802  Biso   1.000  C
  C1263    1.0000 0.51370  0.28340  0.46802  Biso   1.000  C
  C1264    1.0000 0.48630  0.76970  0.53198  Biso   1.000  C
  C1265    1.0000 0.28340  0.51370  0.53198  Biso   1.000  C
  C1266    1.0000 0.23030  0.71660  0.53198  Biso   1.000  C
  C1267    1.0000 0.38327  0.56363  0.80135  Biso   1.000  C
  C1268    1.0000 0.43637  0.81963  0.80135  Biso   1.000  C
  C1269    1.0000 0.18037  0.61673  0.80135  Biso   1.000  C
  C1270    1.0000 0.15297  0.10303  0.86531  Biso   1.000  C
  C1271    1.0000 0.95007  0.84703  0.86531  Biso   1.000  C
  C1272    1.0000 0.89697  0.04993  0.86531  Biso   1.000  C
  C1273    1.0000 0.04993  0.89697  0.13469  Biso   1.000  C
  C1274    1.0000 0.10303  0.15297  0.13469  Biso   1.000  C
  C1275    1.0000 0.84703  0.95007  0.13469  Biso   1.000  C
  C1276    1.0000 0.81963  0.43637  0.19865  Biso   1.000  C
  C1277    1.0000 0.61673  0.18037  0.19865  Biso   1.000  C
  C1278    1.0000 0.56363  0.38327  0.19865  Biso   1.000  C
  H703     1.0000 0.74910  0.25290  0.46990  Biso   1.000  H
  H704     1.0000 0.74710  0.49620  0.46990  Biso   1.000  H
  H705     1.0000 0.50380  0.25090  0.46990  Biso   1.000  H
  H706     1.0000 0.49620  0.74710  0.53010  Biso   1.000  H
  H707     1.0000 0.25090  0.50380  0.53010  Biso   1.000  H
  H708     1.0000 0.25290  0.74910  0.53010  Biso   1.000  H
  H709     1.0000 0.41577  0.58623  0.80323  Biso   1.000  H
  H710     1.0000 0.41377  0.82953  0.80323  Biso   1.000  H
  H711     1.0000 0.17047  0.58423  0.80323  Biso   1.000  H
  H712     1.0000 0.16287  0.08043  0.86343  Biso   1.000  H
  H713     1.0000 0.91757  0.83713  0.86343  Biso   1.000  H
  H714     1.0000 0.91957  0.08243  0.86343  Biso   1.000  H
  H715     1.0000 0.08243  0.91957  0.13657  Biso   1.000  H
  H716     1.0000 0.08043  0.16287  0.13657  Biso   1.000  H
  H717     1.0000 0.83713  0.91757  0.13657  Biso   1.000  H
  H718     1.0000 0.82953  0.41377  0.19677  Biso   1.000  H
  H719     1.0000 0.58423  0.17047  0.19677  Biso   1.000  H
  H720     1.0000 0.58623  0.41577  0.19677  Biso   1.000  H
  C1279    1.0000 0.59720  0.57190  0.43682  Biso   1.000  C
  C1280    1.0000 0.42810  0.02530  0.43682  Biso   1.000  C
  C1281    1.0000 0.97470  0.40280  0.43682  Biso   1.000  C
  C1282    1.0000 0.02530  0.42810  0.56318  Biso   1.000  C
  C1283    1.0000 0.40280  0.97470  0.56318  Biso   1.000  C
  C1284    1.0000 0.57190  0.59720  0.56318  Biso   1.000  C
  C1285    1.0000 0.26387  0.90523  0.77015  Biso   1.000  C
  C1286    1.0000 0.09477  0.35863  0.77015  Biso   1.000  C
  C1287    1.0000 0.64137  0.73613  0.77015  Biso   1.000  C
  C1288    1.0000 0.69197  0.76143  0.89651  Biso   1.000  C
  C1289    1.0000 0.06947  0.30803  0.89651  Biso   1.000  C
  C1290    1.0000 0.23857  0.93053  0.89651  Biso   1.000  C
  C1291    1.0000 0.93053  0.23857  0.10349  Biso   1.000  C
  C1292    1.0000 0.76143  0.69197  0.10349  Biso   1.000  C
  C1293    1.0000 0.30803  0.06947  0.10349  Biso   1.000  C
  C1294    1.0000 0.35863  0.09477  0.22985  Biso   1.000  C
  C1295    1.0000 0.73613  0.64137  0.22985  Biso   1.000  C
  C1296    1.0000 0.90523  0.26387  0.22985  Biso   1.000  C
  C1297    1.0000 0.63360  0.61100  0.42809  Biso   1.000  C
  C1298    1.0000 0.38900  0.02260  0.42809  Biso   1.000  C
  C1299    1.0000 0.97740  0.36640  0.42809  Biso   1.000  C
  C1300    1.0000 0.02260  0.38900  0.57191  Biso   1.000  C
  C1301    1.0000 0.36640  0.97740  0.57191  Biso   1.000  C
  C1302    1.0000 0.61100  0.63360  0.57191  Biso   1.000  C
  C1303    1.0000 0.30027  0.94433  0.76142  Biso   1.000  C
  C1304    1.0000 0.05567  0.35593  0.76142  Biso   1.000  C
  C1305    1.0000 0.64407  0.69973  0.76142  Biso   1.000  C
  C1306    1.0000 0.68927  0.72233  0.90524  Biso   1.000  C
  C1307    1.0000 0.03307  0.31073  0.90524  Biso   1.000  C
  C1308    1.0000 0.27767  0.96693  0.90524  Biso   1.000  C
  C1309    1.0000 0.96693  0.27767  0.09476  Biso   1.000  C
  C1310    1.0000 0.72233  0.68927  0.09476  Biso   1.000  C
  C1311    1.0000 0.31073  0.03307  0.09476  Biso   1.000  C
  C1312    1.0000 0.35593  0.05567  0.23858  Biso   1.000  C
  C1313    1.0000 0.69973  0.64407  0.23858  Biso   1.000  C
  C1314    1.0000 0.94433  0.30027  0.23858  Biso   1.000  C
  C1315    1.0000 0.64790  0.60400  0.41231  Biso   1.000  C
  C1316    1.0000 0.39600  0.04390  0.41231  Biso   1.000  C
  C1317    1.0000 0.95610  0.35210  0.41231  Biso   1.000  C
  C1318    1.0000 0.04390  0.39600  0.58769  Biso   1.000  C
  C1319    1.0000 0.35210  0.95610  0.58769  Biso   1.000  C
  C1320    1.0000 0.60400  0.64790  0.58769  Biso   1.000  C
  C1321    1.0000 0.31457  0.93733  0.74564  Biso   1.000  C
  C1322    1.0000 0.06267  0.37723  0.74564  Biso   1.000  C
  C1323    1.0000 0.62277  0.68543  0.74564  Biso   1.000  C
  C1324    1.0000 0.71057  0.72933  0.92102  Biso   1.000  C
  C1325    1.0000 0.01877  0.28943  0.92102  Biso   1.000  C
  C1326    1.0000 0.27067  0.98123  0.92102  Biso   1.000  C
  C1327    1.0000 0.98123  0.27067  0.07898  Biso   1.000  C
  C1328    1.0000 0.72933  0.71057  0.07898  Biso   1.000  C
  C1329    1.0000 0.28943  0.01877  0.07898  Biso   1.000  C
  C1330    1.0000 0.37723  0.06267  0.25436  Biso   1.000  C
  C1331    1.0000 0.68543  0.62277  0.25436  Biso   1.000  C
  C1332    1.0000 0.93733  0.31457  0.25436  Biso   1.000  C
  H721     1.0000 0.67230  0.63010  0.40650  Biso   1.000  H
  H722     1.0000 0.36990  0.04220  0.40650  Biso   1.000  H
  H723     1.0000 0.95780  0.32770  0.40650  Biso   1.000  H
  H724     1.0000 0.04220  0.36990  0.59350  Biso   1.000  H
  H725     1.0000 0.32770  0.95780  0.59350  Biso   1.000  H
  H726     1.0000 0.63010  0.67230  0.59350  Biso   1.000  H
  H727     1.0000 0.33897  0.96343  0.73983  Biso   1.000  H
  H728     1.0000 0.03657  0.37553  0.73983  Biso   1.000  H
  H729     1.0000 0.62447  0.66103  0.73983  Biso   1.000  H
  H730     1.0000 0.70887  0.70323  0.92683  Biso   1.000  H
  H731     1.0000 0.99437  0.29113  0.92683  Biso   1.000  H
  H732     1.0000 0.29677  0.00563  0.92683  Biso   1.000  H
  H733     1.0000 0.00563  0.29677  0.07317  Biso   1.000  H
  H734     1.0000 0.70323  0.70887  0.07317  Biso   1.000  H
  H735     1.0000 0.29113  0.99437  0.07317  Biso   1.000  H
  H736     1.0000 0.37553  0.03657  0.26017  Biso   1.000  H
  H737     1.0000 0.66103  0.62447  0.26017  Biso   1.000  H
  H738     1.0000 0.96343  0.33897  0.26017  Biso   1.000  H
  C1333    1.0000 0.62570  0.55780  0.40525  Biso   1.000  C
  C1334    1.0000 0.44220  0.06790  0.40525  Biso   1.000  C
  C1335    1.0000 0.93210  0.37430  0.40525  Biso   1.000  C
  C1336    1.0000 0.06790  0.44220  0.59475  Biso   1.000  C
  C1337    1.0000 0.37430  0.93210  0.59475  Biso   1.000  C
  C1338    1.0000 0.55780  0.62570  0.59475  Biso   1.000  C
  C1339    1.0000 0.29237  0.89113  0.73858  Biso   1.000  C
  C1340    1.0000 0.10887  0.40123  0.73858  Biso   1.000  C
  C1341    1.0000 0.59877  0.70763  0.73858  Biso   1.000  C
  C1342    1.0000 0.73457  0.77553  0.92808  Biso   1.000  C
  C1343    1.0000 0.04097  0.26543  0.92808  Biso   1.000  C
  C1344    1.0000 0.22447  0.95903  0.92808  Biso   1.000  C
  C1345    1.0000 0.95903  0.22447  0.07192  Biso   1.000  C
  C1346    1.0000 0.77553  0.73457  0.07192  Biso   1.000  C
  C1347    1.0000 0.26543  0.04097  0.07192  Biso   1.000  C
  C1348    1.0000 0.40123  0.10887  0.26142  Biso   1.000  C
  C1349    1.0000 0.70763  0.59877  0.26142  Biso   1.000  C
  C1350    1.0000 0.89113  0.29237  0.26142  Biso   1.000  C
  H739     1.0000 0.63520  0.55310  0.39470  Biso   1.000  H
  H740     1.0000 0.44690  0.08210  0.39470  Biso   1.000  H
  H741     1.0000 0.91790  0.36480  0.39470  Biso   1.000  H
  H742     1.0000 0.08210  0.44690  0.60530  Biso   1.000  H
  H743     1.0000 0.36480  0.91790  0.60530  Biso   1.000  H
  H744     1.0000 0.55310  0.63520  0.60530  Biso   1.000  H
  H745     1.0000 0.30187  0.88643  0.72803  Biso   1.000  H
  H746     1.0000 0.11357  0.41543  0.72803  Biso   1.000  H
  H747     1.0000 0.58457  0.69813  0.72803  Biso   1.000  H
  H748     1.0000 0.74877  0.78023  0.93863  Biso   1.000  H
  H749     1.0000 0.03147  0.25123  0.93863  Biso   1.000  H
  H750     1.0000 0.21977  0.96853  0.93863  Biso   1.000  H
  H751     1.0000 0.96853  0.21977  0.06137  Biso   1.000  H
  H752     1.0000 0.78023  0.74877  0.06137  Biso   1.000  H
  H753     1.0000 0.25123  0.03147  0.06137  Biso   1.000  H
  H754     1.0000 0.41543  0.11357  0.27197  Biso   1.000  H
  H755     1.0000 0.69813  0.58457  0.27197  Biso   1.000  H
  H756     1.0000 0.88643  0.30187  0.27197  Biso   1.000  H
  C1351    1.0000 0.58920  0.51870  0.41397  Biso   1.000  C
  C1352    1.0000 0.48130  0.07050  0.41397  Biso   1.000  C
  C1353    1.0000 0.92950  0.41080  0.41397  Biso   1.000  C
  C1354    1.0000 0.07050  0.48130  0.58603  Biso   1.000  C
  C1355    1.0000 0.41080  0.92950  0.58603  Biso   1.000  C
  C1356    1.0000 0.51870  0.58920  0.58603  Biso   1.000  C
  C1357    1.0000 0.25587  0.85203  0.74730  Biso   1.000  C
  C1358    1.0000 0.14797  0.40383  0.74730  Biso   1.000  C
  C1359    1.0000 0.59617  0.74413  0.74730  Biso   1.000  C
  C1360    1.0000 0.73717  0.81463  0.91936  Biso   1.000  C
  C1361    1.0000 0.07747  0.26283  0.91936  Biso   1.000  C
  C1362    1.0000 0.18537  0.92253  0.91936  Biso   1.000  C
  C1363    1.0000 0.92253  0.18537  0.08064  Biso   1.000  C
  C1364    1.0000 0.81463  0.73717  0.08064  Biso   1.000  C
  C1365    1.0000 0.26283  0.07747  0.08064  Biso   1.000  C
  C1366    1.0000 0.40383  0.14797  0.25270  Biso   1.000  C
  C1367    1.0000 0.74413  0.59617  0.25270  Biso   1.000  C
  C1368    1.0000 0.85203  0.25587  0.25270  Biso   1.000  C
  C1369    1.0000 0.57500  0.52570  0.42976  Biso   1.000  C
  C1370    1.0000 0.47430  0.04930  0.42976  Biso   1.000  C
  C1371    1.0000 0.95070  0.42500  0.42976  Biso   1.000  C
  C1372    1.0000 0.04930  0.47430  0.57024  Biso   1.000  C
  C1373    1.0000 0.42500  0.95070  0.57024  Biso   1.000  C
  C1374    1.0000 0.52570  0.57500  0.57024  Biso   1.000  C
  C1375    1.0000 0.24167  0.85903  0.76309  Biso   1.000  C
  C1376    1.0000 0.14097  0.38263  0.76309  Biso   1.000  C
  C1377    1.0000 0.61737  0.75833  0.76309  Biso   1.000  C
  C1378    1.0000 0.71597  0.80763  0.90357  Biso   1.000  C
  C1379    1.0000 0.09167  0.28403  0.90357  Biso   1.000  C
  C1380    1.0000 0.19237  0.90833  0.90357  Biso   1.000  C
  C1381    1.0000 0.90833  0.19237  0.09643  Biso   1.000  C
  C1382    1.0000 0.80763  0.71597  0.09643  Biso   1.000  C
  C1383    1.0000 0.28403  0.09167  0.09643  Biso   1.000  C
  C1384    1.0000 0.38263  0.14097  0.23691  Biso   1.000  C
  C1385    1.0000 0.75833  0.61737  0.23691  Biso   1.000  C
  C1386    1.0000 0.85903  0.24167  0.23691  Biso   1.000  C
  H757     1.0000 0.55060  0.49950  0.43560  Biso   1.000  H
  H758     1.0000 0.50050  0.05110  0.43560  Biso   1.000  H
  H759     1.0000 0.94890  0.44940  0.43560  Biso   1.000  H
  H760     1.0000 0.05110  0.50050  0.56440  Biso   1.000  H
  H761     1.0000 0.44940  0.94890  0.56440  Biso   1.000  H
  H762     1.0000 0.49950  0.55060  0.56440  Biso   1.000  H
  H763     1.0000 0.21727  0.83283  0.76893  Biso   1.000  H
  H764     1.0000 0.16717  0.38443  0.76893  Biso   1.000  H
  H765     1.0000 0.61557  0.78273  0.76893  Biso   1.000  H
  H766     1.0000 0.71777  0.83383  0.89773  Biso   1.000  H
  H767     1.0000 0.11607  0.28223  0.89773  Biso   1.000  H
  H768     1.0000 0.16617  0.88393  0.89773  Biso   1.000  H
  H769     1.0000 0.88393  0.16617  0.10227  Biso   1.000  H
  H770     1.0000 0.83383  0.71777  0.10227  Biso   1.000  H
  H771     1.0000 0.28223  0.11607  0.10227  Biso   1.000  H
  H772     1.0000 0.38443  0.16717  0.23107  Biso   1.000  H
  H773     1.0000 0.78273  0.61557  0.23107  Biso   1.000  H
  H774     1.0000 0.83283  0.21727  0.23107  Biso   1.000  H
  C1387    1.0000 0.53260  0.37770  0.39371  Biso   1.000  C
  C1388    1.0000 0.62230  0.15490  0.39371  Biso   1.000  C
  C1389    1.0000 0.84510  0.46740  0.39371  Biso   1.000  C
  C1390    1.0000 0.15490  0.62230  0.60629  Biso   1.000  C
  C1391    1.0000 0.46740  0.84510  0.60629  Biso   1.000  C
  C1392    1.0000 0.37770  0.53260  0.60629  Biso   1.000  C
  C1393    1.0000 0.19927  0.71103  0.72704  Biso   1.000  C
  C1394    1.0000 0.28897  0.48823  0.72704  Biso   1.000  C
  C1395    1.0000 0.51177  0.80073  0.72704  Biso   1.000  C
  C1396    1.0000 0.82157  0.95563  0.93962  Biso   1.000  C
  C1397    1.0000 0.13407  0.17843  0.93962  Biso   1.000  C
  C1398    1.0000 0.04437  0.86593  0.93962  Biso   1.000  C
  C1399    1.0000 0.86593  0.04437  0.06038  Biso   1.000  C
  C1400    1.0000 0.95563  0.82157  0.06038  Biso   1.000  C
  C1401    1.0000 0.17843  0.13407  0.06038  Biso   1.000  C
  C1402    1.0000 0.48823  0.28897  0.27296  Biso   1.000  C
  C1403    1.0000 0.80073  0.51177  0.27296  Biso   1.000  C
  C1404    1.0000 0.71103  0.19927  0.27296  Biso   1.000  C
  C1405    1.0000 0.51480  0.38380  0.40892  Biso   1.000  C
  C1406    1.0000 0.61620  0.13100  0.40892  Biso   1.000  C
  C1407    1.0000 0.86900  0.48520  0.40892  Biso   1.000  C
  C1408    1.0000 0.13100  0.61620  0.59108  Biso   1.000  C
  C1409    1.0000 0.48520  0.86900  0.59108  Biso   1.000  C
  C1410    1.0000 0.38380  0.51480  0.59108  Biso   1.000  C
  C1411    1.0000 0.18147  0.71713  0.74225  Biso   1.000  C
  C1412    1.0000 0.28287  0.46433  0.74225  Biso   1.000  C
  C1413    1.0000 0.53567  0.81853  0.74225  Biso   1.000  C
  C1414    1.0000 0.79767  0.94953  0.92441  Biso   1.000  C
  C1415    1.0000 0.15187  0.20233  0.92441  Biso   1.000  C
  C1416    1.0000 0.05047  0.84813  0.92441  Biso   1.000  C
  C1417    1.0000 0.84813  0.05047  0.07559  Biso   1.000  C
  C1418    1.0000 0.94953  0.79767  0.07559  Biso   1.000  C
  C1419    1.0000 0.20233  0.15187  0.07559  Biso   1.000  C
  C1420    1.0000 0.46433  0.28287  0.25775  Biso   1.000  C
  C1421    1.0000 0.81853  0.53567  0.25775  Biso   1.000  C
  C1422    1.0000 0.71713  0.18147  0.25775  Biso   1.000  C
  H775     1.0000 0.48990  0.35710  0.41440  Biso   1.000  H
  H776     1.0000 0.64290  0.13280  0.41440  Biso   1.000  H
  H777     1.0000 0.86720  0.51010  0.41440  Biso   1.000  H
  H778     1.0000 0.13280  0.64290  0.58560  Biso   1.000  H
  H779     1.0000 0.51010  0.86720  0.58560  Biso   1.000  H
  H780     1.0000 0.35710  0.48990  0.58560  Biso   1.000  H
  H781     1.0000 0.15657  0.69043  0.74773  Biso   1.000  H
  H782     1.0000 0.30957  0.46613  0.74773  Biso   1.000  H
  H783     1.0000 0.53387  0.84343  0.74773  Biso   1.000  H
  H784     1.0000 0.79947  0.97623  0.91893  Biso   1.000  H
  H785     1.0000 0.17677  0.20053  0.91893  Biso   1.000  H
  H786     1.0000 0.02377  0.82323  0.91893  Biso   1.000  H
  H787     1.0000 0.82323  0.02377  0.08107  Biso   1.000  H
  H788     1.0000 0.97623  0.79947  0.08107  Biso   1.000  H
  H789     1.0000 0.20053  0.17677  0.08107  Biso   1.000  H
  H790     1.0000 0.46613  0.30957  0.25227  Biso   1.000  H
  H791     1.0000 0.84343  0.53387  0.25227  Biso   1.000  H
  H792     1.0000 0.69043  0.15657  0.25227  Biso   1.000  H
  C1423    1.0000 0.53430  0.42980  0.41596  Biso   1.000  C
  C1424    1.0000 0.57020  0.10450  0.41596  Biso   1.000  C
  C1425    1.0000 0.89550  0.46570  0.41596  Biso   1.000  C
  C1426    1.0000 0.10450  0.57020  0.58404  Biso   1.000  C
  C1427    1.0000 0.46570  0.89550  0.58404  Biso   1.000  C
  C1428    1.0000 0.42980  0.53430  0.58404  Biso   1.000  C
  C1429    1.0000 0.20097  0.76313  0.74929  Biso   1.000  C
  C1430    1.0000 0.23687  0.43783  0.74929  Biso   1.000  C
  C1431    1.0000 0.56217  0.79903  0.74929  Biso   1.000  C
  C1432    1.0000 0.77117  0.90353  0.91737  Biso   1.000  C
  C1433    1.0000 0.13237  0.22883  0.91737  Biso   1.000  C
  C1434    1.0000 0.09647  0.86763  0.91737  Biso   1.000  C
  C1435    1.0000 0.86763  0.09647  0.08263  Biso   1.000  C
  C1436    1.0000 0.90353  0.77117  0.08263  Biso   1.000  C
  C1437    1.0000 0.22883  0.13237  0.08263  Biso   1.000  C
  C1438    1.0000 0.43783  0.23687  0.25071  Biso   1.000  C
  C1439    1.0000 0.79903  0.56217  0.25071  Biso   1.000  C
  C1440    1.0000 0.76313  0.20097  0.25071  Biso   1.000  C
  H793     1.0000 0.52230  0.43390  0.42610  Biso   1.000  H
  H794     1.0000 0.56610  0.08840  0.42610  Biso   1.000  H
  H795     1.0000 0.91160  0.47770  0.42610  Biso   1.000  H
  H796     1.0000 0.08840  0.56610  0.57390  Biso   1.000  H
  H797     1.0000 0.47770  0.91160  0.57390  Biso   1.000  H
  H798     1.0000 0.43390  0.52230  0.57390  Biso   1.000  H
  H799     1.0000 0.18897  0.76723  0.75943  Biso   1.000  H
  H800     1.0000 0.23277  0.42173  0.75943  Biso   1.000  H
  H801     1.0000 0.57827  0.81103  0.75943  Biso   1.000  H
  H802     1.0000 0.75507  0.89943  0.90723  Biso   1.000  H
  H803     1.0000 0.14437  0.24493  0.90723  Biso   1.000  H
  H804     1.0000 0.10057  0.85563  0.90723  Biso   1.000  H
  H805     1.0000 0.85563  0.10057  0.09277  Biso   1.000  H
  H806     1.0000 0.89943  0.75507  0.09277  Biso   1.000  H
  H807     1.0000 0.24493  0.14437  0.09277  Biso   1.000  H
  H808     1.0000 0.42173  0.23277  0.24057  Biso   1.000  H
  H809     1.0000 0.81103  0.57827  0.24057  Biso   1.000  H
  H810     1.0000 0.76723  0.18897  0.24057  Biso   1.000  H
  C1441    1.0000 0.57150  0.46970  0.40780  Biso   1.000  C
  C1442    1.0000 0.53030  0.10180  0.40780  Biso   1.000  C
  C1443    1.0000 0.89820  0.42850  0.40780  Biso   1.000  C
  C1444    1.0000 0.10180  0.53030  0.59220  Biso   1.000  C
  C1445    1.0000 0.42850  0.89820  0.59220  Biso   1.000  C
  C1446    1.0000 0.46970  0.57150  0.59220  Biso   1.000  C
  C1447    1.0000 0.23817  0.80303  0.74113  Biso   1.000  C
  C1448    1.0000 0.19697  0.43513  0.74113  Biso   1.000  C
  C1449    1.0000 0.56487  0.76183  0.74113  Biso   1.000  C
  C1450    1.0000 0.76847  0.86363  0.92553  Biso   1.000  C
  C1451    1.0000 0.09517  0.23153  0.92553  Biso   1.000  C
  C1452    1.0000 0.13637  0.90483  0.92553  Biso   1.000  C
  C1453    1.0000 0.90483  0.13637  0.07447  Biso   1.000  C
  C1454    1.0000 0.86363  0.76847  0.07447  Biso   1.000  C
  C1455    1.0000 0.23153  0.09517  0.07447  Biso   1.000  C
  C1456    1.0000 0.43513  0.19697  0.25887  Biso   1.000  C
  C1457    1.0000 0.76183  0.56487  0.25887  Biso   1.000  C
  C1458    1.0000 0.80303  0.23817  0.25887  Biso   1.000  C
  C1459    1.0000 0.58930  0.46360  0.39260  Biso   1.000  C
  C1460    1.0000 0.53640  0.12570  0.39260  Biso   1.000  C
  C1461    1.0000 0.87430  0.41070  0.39260  Biso   1.000  C
  C1462    1.0000 0.12570  0.53640  0.60740  Biso   1.000  C
  C1463    1.0000 0.41070  0.87430  0.60740  Biso   1.000  C
  C1464    1.0000 0.46360  0.58930  0.60740  Biso   1.000  C
  C1465    1.0000 0.25597  0.79693  0.72593  Biso   1.000  C
  C1466    1.0000 0.20307  0.45903  0.72593  Biso   1.000  C
  C1467    1.0000 0.54097  0.74403  0.72593  Biso   1.000  C
  C1468    1.0000 0.79237  0.86973  0.94073  Biso   1.000  C
  C1469    1.0000 0.07737  0.20763  0.94073  Biso   1.000  C
  C1470    1.0000 0.13027  0.92263  0.94073  Biso   1.000  C
  C1471    1.0000 0.92263  0.13027  0.05927  Biso   1.000  C
  C1472    1.0000 0.86973  0.79237  0.05927  Biso   1.000  C
  C1473    1.0000 0.20763  0.07737  0.05927  Biso   1.000  C
  C1474    1.0000 0.45903  0.20307  0.27407  Biso   1.000  C
  C1475    1.0000 0.74403  0.54097  0.27407  Biso   1.000  C
  C1476    1.0000 0.79693  0.25597  0.27407  Biso   1.000  C
  H811     1.0000 0.61420  0.49020  0.38710  Biso   1.000  H
  H812     1.0000 0.50980  0.12400  0.38710  Biso   1.000  H
  H813     1.0000 0.87600  0.38580  0.38710  Biso   1.000  H
  H814     1.0000 0.12400  0.50980  0.61290  Biso   1.000  H
  H815     1.0000 0.38580  0.87600  0.61290  Biso   1.000  H
  H816     1.0000 0.49020  0.61420  0.61290  Biso   1.000  H
  H817     1.0000 0.28087  0.82353  0.72043  Biso   1.000  H
  H818     1.0000 0.17647  0.45733  0.72043  Biso   1.000  H
  H819     1.0000 0.54267  0.71913  0.72043  Biso   1.000  H
  H820     1.0000 0.79067  0.84313  0.94623  Biso   1.000  H
  H821     1.0000 0.05247  0.20933  0.94623  Biso   1.000  H
  H822     1.0000 0.15687  0.94753  0.94623  Biso   1.000  H
  H823     1.0000 0.94753  0.15687  0.05377  Biso   1.000  H
  H824     1.0000 0.84313  0.79067  0.05377  Biso   1.000  H
  H825     1.0000 0.20933  0.05247  0.05377  Biso   1.000  H
  H826     1.0000 0.45733  0.17647  0.27957  Biso   1.000  H
  H827     1.0000 0.71913  0.54267  0.27957  Biso   1.000  H
  H828     1.0000 0.82353  0.28087  0.27957  Biso   1.000  H
  C1477    1.0000 0.56990  0.41760  0.38554  Biso   1.000  C
  C1478    1.0000 0.58240  0.15230  0.38554  Biso   1.000  C
  C1479    1.0000 0.84770  0.43010  0.38554  Biso   1.000  C
  C1480    1.0000 0.15230  0.58240  0.61446  Biso   1.000  C
  C1481    1.0000 0.43010  0.84770  0.61446  Biso   1.000  C
  C1482    1.0000 0.41760  0.56990  0.61446  Biso   1.000  C
  C1483    1.0000 0.23657  0.75093  0.71887  Biso   1.000  C
  C1484    1.0000 0.24907  0.48563  0.71887  Biso   1.000  C
  C1485    1.0000 0.51437  0.76343  0.71887  Biso   1.000  C
  C1486    1.0000 0.81897  0.91573  0.94779  Biso   1.000  C
  C1487    1.0000 0.09677  0.18103  0.94779  Biso   1.000  C
  C1488    1.0000 0.08427  0.90323  0.94779  Biso   1.000  C
  C1489    1.0000 0.90323  0.08427  0.05221  Biso   1.000  C
  C1490    1.0000 0.91573  0.81897  0.05221  Biso   1.000  C
  C1491    1.0000 0.18103  0.09677  0.05221  Biso   1.000  C
  C1492    1.0000 0.48563  0.24907  0.28113  Biso   1.000  C
  C1493    1.0000 0.76343  0.51437  0.28113  Biso   1.000  C
  C1494    1.0000 0.75093  0.23657  0.28113  Biso   1.000  C
  H829     1.0000 0.58180  0.41350  0.37540  Biso   1.000  H
  H830     1.0000 0.58650  0.16830  0.37540  Biso   1.000  H
  H831     1.0000 0.83170  0.41820  0.37540  Biso   1.000  H
  H832     1.0000 0.16830  0.58650  0.62460  Biso   1.000  H
  H833     1.0000 0.41820  0.83170  0.62460  Biso   1.000  H
  H834     1.0000 0.41350  0.58180  0.62460  Biso   1.000  H
  H835     1.0000 0.24847  0.74683  0.70873  Biso   1.000  H
  H836     1.0000 0.25317  0.50163  0.70873  Biso   1.000  H
  H837     1.0000 0.49837  0.75153  0.70873  Biso   1.000  H
  H838     1.0000 0.83497  0.91983  0.95793  Biso   1.000  H
  H839     1.0000 0.08487  0.16503  0.95793  Biso   1.000  H
  H840     1.0000 0.08017  0.91513  0.95793  Biso   1.000  H
  H841     1.0000 0.91513  0.08017  0.04207  Biso   1.000  H
  H842     1.0000 0.91983  0.83497  0.04207  Biso   1.000  H
  H843     1.0000 0.16503  0.08487  0.04207  Biso   1.000  H
  H844     1.0000 0.50163  0.25317  0.29127  Biso   1.000  H
  H845     1.0000 0.75153  0.49837  0.29127  Biso   1.000  H
  H846     1.0000 0.74683  0.24847  0.29127  Biso   1.000  H
  C1495    1.0000 0.67830  0.07220  0.44990  Biso   1.000  C
  C1496    1.0000 0.92780  0.60610  0.44990  Biso   1.000  C
  C1497    1.0000 0.39390  0.32170  0.44990  Biso   1.000  C
  C1498    1.0000 0.60610  0.92780  0.55010  Biso   1.000  C
  C1499    1.0000 0.32170  0.39390  0.55010  Biso   1.000  C
  C1500    1.0000 0.07220  0.67830  0.55010  Biso   1.000  C
  C1501    1.0000 0.34497  0.40553  0.78323  Biso   1.000  C
  C1502    1.0000 0.59447  0.93943  0.78323  Biso   1.000  C
  C1503    1.0000 0.06057  0.65503  0.78323  Biso   1.000  C
  C1504    1.0000 0.27277  0.26113  0.88343  Biso   1.000  C
  C1505    1.0000 0.98837  0.72723  0.88343  Biso   1.000  C
  C1506    1.0000 0.73887  0.01163  0.88343  Biso   1.000  C
  C1507    1.0000 0.01163  0.73887  0.11657  Biso   1.000  C
  C1508    1.0000 0.26113  0.27277  0.11657  Biso   1.000  C
  C1509    1.0000 0.72723  0.98837  0.11657  Biso   1.000  C
  C1510    1.0000 0.93943  0.59447  0.21677  Biso   1.000  C
  C1511    1.0000 0.65503  0.06057  0.21677  Biso   1.000  C
  C1512    1.0000 0.40553  0.34497  0.21677  Biso   1.000  C
  H847     1.0000 0.68080  0.06600  0.43820  Biso   1.000  H
  H848     1.0000 0.93400  0.61480  0.43820  Biso   1.000  H
  H849     1.0000 0.38520  0.31920  0.43820  Biso   1.000  H
  H850     1.0000 0.61480  0.93400  0.56180  Biso   1.000  H
  H851     1.0000 0.31920  0.38520  0.56180  Biso   1.000  H
  H852     1.0000 0.06600  0.68080  0.56180  Biso   1.000  H
  H853     1.0000 0.34747  0.39933  0.77153  Biso   1.000  H
  H854     1.0000 0.60067  0.94813  0.77153  Biso   1.000  H
  H855     1.0000 0.05187  0.65253  0.77153  Biso   1.000  H
  H856     1.0000 0.28147  0.26733  0.89513  Biso   1.000  H
  H857     1.0000 0.98587  0.71853  0.89513  Biso   1.000  H
  H858     1.0000 0.73267  0.01413  0.89513  Biso   1.000  H
  H859     1.0000 0.01413  0.73267  0.10487  Biso   1.000  H
  H860     1.0000 0.26733  0.28147  0.10487  Biso   1.000  H
  H861     1.0000 0.71853  0.98587  0.10487  Biso   1.000  H
  H862     1.0000 0.94813  0.60067  0.22847  Biso   1.000  H
  H863     1.0000 0.65253  0.05187  0.22847  Biso   1.000  H
  H864     1.0000 0.39933  0.34747  0.22847  Biso   1.000  H
  H865     1.0000 0.69730  0.10640  0.45200  Biso   1.000  H
  H866     1.0000 0.89360  0.59090  0.45200  Biso   1.000  H
  H867     1.0000 0.40910  0.30270  0.45200  Biso   1.000  H
  H868     1.0000 0.59090  0.89360  0.54800  Biso   1.000  H
  H869     1.0000 0.30270  0.40910  0.54800  Biso   1.000  H
  H870     1.0000 0.10640  0.69730  0.54800  Biso   1.000  H
  H871     1.0000 0.36397  0.43973  0.78533  Biso   1.000  H
  H872     1.0000 0.56027  0.92423  0.78533  Biso   1.000  H
  H873     1.0000 0.07577  0.63603  0.78533  Biso   1.000  H
  H874     1.0000 0.25757  0.22693  0.88133  Biso   1.000  H
  H875     1.0000 0.96937  0.74243  0.88133  Biso   1.000  H
  H876     1.0000 0.77307  0.03063  0.88133  Biso   1.000  H
  H877     1.0000 0.03063  0.77307  0.11867  Biso   1.000  H
  H878     1.0000 0.22693  0.25757  0.11867  Biso   1.000  H
  H879     1.0000 0.74243  0.96937  0.11867  Biso   1.000  H
  H880     1.0000 0.92423  0.56027  0.21467  Biso   1.000  H
  H881     1.0000 0.63603  0.07577  0.21467  Biso   1.000  H
  H882     1.0000 0.43973  0.36397  0.21467  Biso   1.000  H
  H883     1.0000 0.69010  0.05530  0.45670  Biso   1.000  H
  H884     1.0000 0.94470  0.63480  0.45670  Biso   1.000  H
  H885     1.0000 0.36520  0.30990  0.45670  Biso   1.000  H
  H886     1.0000 0.63480  0.94470  0.54330  Biso   1.000  H
  H887     1.0000 0.30990  0.36520  0.54330  Biso   1.000  H
  H888     1.0000 0.05530  0.69010  0.54330  Biso   1.000  H
  H889     1.0000 0.35677  0.38863  0.79003  Biso   1.000  H
  H890     1.0000 0.61137  0.96813  0.79003  Biso   1.000  H
  H891     1.0000 0.03187  0.64323  0.79003  Biso   1.000  H
  H892     1.0000 0.30147  0.27803  0.87663  Biso   1.000  H
  H893     1.0000 0.97657  0.69853  0.87663  Biso   1.000  H
  H894     1.0000 0.72197  0.02343  0.87663  Biso   1.000  H
  H895     1.0000 0.02343  0.72197  0.12337  Biso   1.000  H
  H896     1.0000 0.27803  0.30147  0.12337  Biso   1.000  H
  H897     1.0000 0.69853  0.97657  0.12337  Biso   1.000  H
  H898     1.0000 0.96813  0.61137  0.20997  Biso   1.000  H
  H899     1.0000 0.64323  0.03187  0.20997  Biso   1.000  H
  H900     1.0000 0.38863  0.35677  0.20997  Biso   1.000  H
  C1513    1.0000 0.59560  0.00310  0.42820  Biso   1.000  C
  C1514    1.0000 0.99690  0.59250  0.42820  Biso   1.000  C
  C1515    1.0000 0.40750  0.40440  0.42820  Biso   1.000  C
  C1516    1.0000 0.59250  0.99690  0.57180  Biso   1.000  C
  C1517    1.0000 0.40440  0.40750  0.57180  Biso   1.000  C
  C1518    1.0000 0.00310  0.59560  0.57180  Biso   1.000  C
  C1519    1.0000 0.26227  0.33643  0.76153  Biso   1.000  C
  C1520    1.0000 0.66357  0.92583  0.76153  Biso   1.000  C
  C1521    1.0000 0.07417  0.73773  0.76153  Biso   1.000  C
  C1522    1.0000 0.25917  0.33023  0.90513  Biso   1.000  C
  C1523    1.0000 0.07107  0.74083  0.90513  Biso   1.000  C
  C1524    1.0000 0.66977  0.92893  0.90513  Biso   1.000  C
  C1525    1.0000 0.92893  0.66977  0.09487  Biso   1.000  C
  C1526    1.0000 0.33023  0.25917  0.09487  Biso   1.000  C
  C1527    1.0000 0.74083  0.07107  0.09487  Biso   1.000  C
  C1528    1.0000 0.92583  0.66357  0.23847  Biso   1.000  C
  C1529    1.0000 0.73773  0.07417  0.23847  Biso   1.000  C
  C1530    1.0000 0.33643  0.26227  0.23847  Biso   1.000  C
  H901     1.0000 0.57000  0.97390  0.42330  Biso   1.000  H
  H902     1.0000 0.02610  0.59610  0.42330  Biso   1.000  H
  H903     1.0000 0.40390  0.43000  0.42330  Biso   1.000  H
  H904     1.0000 0.59610  0.02610  0.57670  Biso   1.000  H
  H905     1.0000 0.43000  0.40390  0.57670  Biso   1.000  H
  H906     1.0000 0.97390  0.57000  0.57670  Biso   1.000  H
  H907     1.0000 0.23667  0.30723  0.75663  Biso   1.000  H
  H908     1.0000 0.69277  0.92943  0.75663  Biso   1.000  H
  H909     1.0000 0.07057  0.76333  0.75663  Biso   1.000  H
  H910     1.0000 0.26277  0.35943  0.91003  Biso   1.000  H
  H911     1.0000 0.09667  0.73723  0.91003  Biso   1.000  H
  H912     1.0000 0.64057  0.90333  0.91003  Biso   1.000  H
  H913     1.0000 0.90333  0.64057  0.08997  Biso   1.000  H
  H914     1.0000 0.35943  0.26277  0.08997  Biso   1.000  H
  H915     1.0000 0.73723  0.09667  0.08997  Biso   1.000  H
  H916     1.0000 0.92943  0.69277  0.24337  Biso   1.000  H
  H917     1.0000 0.76333  0.07057  0.24337  Biso   1.000  H
  H918     1.0000 0.30723  0.23667  0.24337  Biso   1.000  H
  H919     1.0000 0.59920  0.03070  0.42210  Biso   1.000  H
  H920     1.0000 0.96930  0.56850  0.42210  Biso   1.000  H
  H921     1.0000 0.43150  0.40080  0.42210  Biso   1.000  H
  H922     1.0000 0.56850  0.96930  0.57790  Biso   1.000  H
  H923     1.0000 0.40080  0.43150  0.57790  Biso   1.000  H
  H924     1.0000 0.03070  0.59920  0.57790  Biso   1.000  H
  H925     1.0000 0.26587  0.36403  0.75543  Biso   1.000  H
  H926     1.0000 0.63597  0.90183  0.75543  Biso   1.000  H
  H927     1.0000 0.09817  0.73413  0.75543  Biso   1.000  H
  H928     1.0000 0.23517  0.30263  0.91123  Biso   1.000  H
  H929     1.0000 0.06747  0.76483  0.91123  Biso   1.000  H
  H930     1.0000 0.69737  0.93253  0.91123  Biso   1.000  H
  H931     1.0000 0.93253  0.69737  0.08877  Biso   1.000  H
  H932     1.0000 0.30263  0.23517  0.08877  Biso   1.000  H
  H933     1.0000 0.76483  0.06747  0.08877  Biso   1.000  H
  H934     1.0000 0.90183  0.63597  0.24457  Biso   1.000  H
  H935     1.0000 0.73413  0.09817  0.24457  Biso   1.000  H
  H936     1.0000 0.36403  0.26587  0.24457  Biso   1.000  H
  H937     1.0000 0.62540  0.00250  0.42780  Biso   1.000  H
  H938     1.0000 0.99750  0.62290  0.42780  Biso   1.000  H
  H939     1.0000 0.37710  0.37460  0.42780  Biso   1.000  H
  H940     1.0000 0.62290  0.99750  0.57220  Biso   1.000  H
  H941     1.0000 0.37460  0.37710  0.57220  Biso   1.000  H
  H942     1.0000 0.00250  0.62540  0.57220  Biso   1.000  H
  H943     1.0000 0.29207  0.33583  0.76113  Biso   1.000  H
  H944     1.0000 0.66417  0.95623  0.76113  Biso   1.000  H
  H945     1.0000 0.04377  0.70793  0.76113  Biso   1.000  H
  H946     1.0000 0.28957  0.33083  0.90553  Biso   1.000  H
  H947     1.0000 0.04127  0.71043  0.90553  Biso   1.000  H
  H948     1.0000 0.66917  0.95873  0.90553  Biso   1.000  H
  H949     1.0000 0.95873  0.66917  0.09447  Biso   1.000  H
  H950     1.0000 0.33083  0.28957  0.09447  Biso   1.000  H
  H951     1.0000 0.71043  0.04127  0.09447  Biso   1.000  H
  H952     1.0000 0.95623  0.66417  0.23887  Biso   1.000  H
  H953     1.0000 0.70793  0.04377  0.23887  Biso   1.000  H
  H954     1.0000 0.33583  0.29207  0.23887  Biso   1.000  H
  C1531    1.0000 0.59870  0.09600  0.49750  Biso   1.000  C
  C1532    1.0000 0.90400  0.50270  0.49750  Biso   1.000  C
  C1533    1.0000 0.49730  0.40130  0.49750  Biso   1.000  C
  C1534    1.0000 0.50270  0.90400  0.50250  Biso   1.000  C
  C1535    1.0000 0.40130  0.49730  0.50250  Biso   1.000  C
  C1536    1.0000 0.09600  0.59870  0.50250  Biso   1.000  C
  C1537    1.0000 0.26537  0.42933  0.83083  Biso   1.000  C
  C1538    1.0000 0.57067  0.83603  0.83083  Biso   1.000  C
  C1539    1.0000 0.16397  0.73463  0.83083  Biso   1.000  C
  C1540    1.0000 0.16937  0.23733  0.83583  Biso   1.000  C
  C1541    1.0000 0.06797  0.83063  0.83583  Biso   1.000  C
  C1542    1.0000 0.76267  0.93203  0.83583  Biso   1.000  C
  C1543    1.0000 0.93203  0.76267  0.16417  Biso   1.000  C
  C1544    1.0000 0.23733  0.16937  0.16417  Biso   1.000  C
  C1545    1.0000 0.83063  0.06797  0.16417  Biso   1.000  C
  C1546    1.0000 0.83603  0.57067  0.16917  Biso   1.000  C
  C1547    1.0000 0.73463  0.16397  0.16917  Biso   1.000  C
  C1548    1.0000 0.42933  0.26537  0.16917  Biso   1.000  C
  H955     1.0000 0.56690  0.08820  0.49340  Biso   1.000  H
  H956     1.0000 0.91180  0.47870  0.49340  Biso   1.000  H
  H957     1.0000 0.52130  0.43310  0.49340  Biso   1.000  H
  H958     1.0000 0.47870  0.91180  0.50660  Biso   1.000  H
  H959     1.0000 0.43310  0.52130  0.50660  Biso   1.000  H
  H960     1.0000 0.08820  0.56690  0.50660  Biso   1.000  H
  H961     1.0000 0.23357  0.42153  0.82673  Biso   1.000  H
  H962     1.0000 0.57847  0.81203  0.82673  Biso   1.000  H
  H963     1.0000 0.18797  0.76643  0.82673  Biso   1.000  H
  H964     1.0000 0.14537  0.24513  0.83993  Biso   1.000  H
  H965     1.0000 0.09977  0.85463  0.83993  Biso   1.000  H
  H966     1.0000 0.75487  0.90023  0.83993  Biso   1.000  H
  H967     1.0000 0.90023  0.75487  0.16007  Biso   1.000  H
  H968     1.0000 0.24513  0.14537  0.16007  Biso   1.000  H
  H969     1.0000 0.85463  0.09977  0.16007  Biso   1.000  H
  H970     1.0000 0.81203  0.57847  0.17327  Biso   1.000  H
  H971     1.0000 0.76643  0.18797  0.17327  Biso   1.000  H
  H972     1.0000 0.42153  0.23357  0.17327  Biso   1.000  H
  H973     1.0000 0.59510  0.06760  0.50330  Biso   1.000  H
  H974     1.0000 0.93240  0.52750  0.50330  Biso   1.000  H
  H975     1.0000 0.47250  0.40490  0.50330  Biso   1.000  H
  H976     1.0000 0.52750  0.93240  0.49670  Biso   1.000  H
  H977     1.0000 0.40490  0.47250  0.49670  Biso   1.000  H
  H978     1.0000 0.06760  0.59510  0.49670  Biso   1.000  H
  H979     1.0000 0.26177  0.40093  0.83663  Biso   1.000  H
  H980     1.0000 0.59907  0.86083  0.83663  Biso   1.000  H
  H981     1.0000 0.13917  0.73823  0.83663  Biso   1.000  H
  H982     1.0000 0.19417  0.26573  0.83003  Biso   1.000  H
  H983     1.0000 0.07157  0.80583  0.83003  Biso   1.000  H
  H984     1.0000 0.73427  0.92843  0.83003  Biso   1.000  H
  H985     1.0000 0.92843  0.73427  0.16997  Biso   1.000  H
  H986     1.0000 0.26573  0.19417  0.16997  Biso   1.000  H
  H987     1.0000 0.80583  0.07157  0.16997  Biso   1.000  H
  H988     1.0000 0.86083  0.59907  0.16337  Biso   1.000  H
  H989     1.0000 0.73823  0.13917  0.16337  Biso   1.000  H
  H990     1.0000 0.40093  0.26177  0.16337  Biso   1.000  H
  C1549    1.0000 0.61620  0.13820  0.51020  Biso   1.000  C
  C1550    1.0000 0.86180  0.47800  0.51020  Biso   1.000  C
  C1551    1.0000 0.52200  0.38380  0.51020  Biso   1.000  C
  C1552    1.0000 0.47800  0.86180  0.48980  Biso   1.000  C
  C1553    1.0000 0.38380  0.52200  0.48980  Biso   1.000  C
  C1554    1.0000 0.13820  0.61620  0.48980  Biso   1.000  C
  C1555    1.0000 0.28287  0.47153  0.84353  Biso   1.000  C
  C1556    1.0000 0.52847  0.81133  0.84353  Biso   1.000  C
  C1557    1.0000 0.18867  0.71713  0.84353  Biso   1.000  C
  C1558    1.0000 0.14467  0.19513  0.82313  Biso   1.000  C
  C1559    1.0000 0.05047  0.85533  0.82313  Biso   1.000  C
  C1560    1.0000 0.80487  0.94953  0.82313  Biso   1.000  C
  C1561    1.0000 0.94953  0.80487  0.17687  Biso   1.000  C
  C1562    1.0000 0.19513  0.14467  0.17687  Biso   1.000  C
  C1563    1.0000 0.85533  0.05047  0.17687  Biso   1.000  C
  C1564    1.0000 0.81133  0.52847  0.15647  Biso   1.000  C
  C1565    1.0000 0.71713  0.18867  0.15647  Biso   1.000  C
  C1566    1.0000 0.47153  0.28287  0.15647  Biso   1.000  C
  H991     1.0000 0.64930  0.14620  0.51320  Biso   1.000  H
  H992     1.0000 0.85380  0.50310  0.51320  Biso   1.000  H
  H993     1.0000 0.49690  0.35070  0.51320  Biso   1.000  H
  H994     1.0000 0.50310  0.85380  0.48680  Biso   1.000  H
  H995     1.0000 0.35070  0.49690  0.48680  Biso   1.000  H
  H996     1.0000 0.14620  0.64930  0.48680  Biso   1.000  H
  H997     1.0000 0.31597  0.47953  0.84653  Biso   1.000  H
  H998     1.0000 0.52047  0.83643  0.84653  Biso   1.000  H
  H999     1.0000 0.16357  0.68403  0.84653  Biso   1.000  H
  H1000    1.0000 0.16977  0.18713  0.82013  Biso   1.000  H
  H1001    1.0000 0.01737  0.83023  0.82013  Biso   1.000  H
  H1002    1.0000 0.81287  0.98263  0.82013  Biso   1.000  H
  H1003    1.0000 0.98263  0.81287  0.17987  Biso   1.000  H
  H1004    1.0000 0.18713  0.16977  0.17987  Biso   1.000  H
  H1005    1.0000 0.83023  0.01737  0.17987  Biso   1.000  H
  H1006    1.0000 0.83643  0.52047  0.15347  Biso   1.000  H
  H1007    1.0000 0.68403  0.16357  0.15347  Biso   1.000  H
  H1008    1.0000 0.47953  0.31597  0.15347  Biso   1.000  H
  C1567    1.0000 0.61830  0.18800  0.50860  Biso   1.000  C
  C1568    1.0000 0.81200  0.43030  0.50860  Biso   1.000  C
  C1569    1.0000 0.56970  0.38170  0.50860  Biso   1.000  C
  C1570    1.0000 0.43030  0.81200  0.49140  Biso   1.000  C
  C1571    1.0000 0.38170  0.56970  0.49140  Biso   1.000  C
  C1572    1.0000 0.18800  0.61830  0.49140  Biso   1.000  C
  C1573    1.0000 0.28497  0.52133  0.84193  Biso   1.000  C
  C1574    1.0000 0.47867  0.76363  0.84193  Biso   1.000  C
  C1575    1.0000 0.23637  0.71503  0.84193  Biso   1.000  C
  C1576    1.0000 0.09697  0.14533  0.82473  Biso   1.000  C
  C1577    1.0000 0.04837  0.90303  0.82473  Biso   1.000  C
  C1578    1.0000 0.85467  0.95163  0.82473  Biso   1.000  C
  C1579    1.0000 0.95163  0.85467  0.17527  Biso   1.000  C
  C1580    1.0000 0.14533  0.09697  0.17527  Biso   1.000  C
  C1581    1.0000 0.90303  0.04837  0.17527  Biso   1.000  C
  C1582    1.0000 0.76363  0.47867  0.15807  Biso   1.000  C
  C1583    1.0000 0.71503  0.23637  0.15807  Biso   1.000  C
  C1584    1.0000 0.52133  0.28497  0.15807  Biso   1.000  C
  H1009    1.0000 0.63120  0.20620  0.51870  Biso   1.000  H
  H1010    1.0000 0.79380  0.42500  0.51870  Biso   1.000  H
  H1011    1.0000 0.57500  0.36880  0.51870  Biso   1.000  H
  H1012    1.0000 0.42500  0.79380  0.48130  Biso   1.000  H
  H1013    1.0000 0.36880  0.57500  0.48130  Biso   1.000  H
  H1014    1.0000 0.20620  0.63120  0.48130  Biso   1.000  H
  H1015    1.0000 0.29787  0.53953  0.85203  Biso   1.000  H
  H1016    1.0000 0.46047  0.75833  0.85203  Biso   1.000  H
  H1017    1.0000 0.24167  0.70213  0.85203  Biso   1.000  H
  H1018    1.0000 0.09167  0.12713  0.81463  Biso   1.000  H
  H1019    1.0000 0.03547  0.90833  0.81463  Biso   1.000  H
  H1020    1.0000 0.87287  0.96453  0.81463  Biso   1.000  H
  H1021    1.0000 0.96453  0.87287  0.18537  Biso   1.000  H
  H1022    1.0000 0.12713  0.09167  0.18537  Biso   1.000  H
  H1023    1.0000 0.90833  0.03547  0.18537  Biso   1.000  H
  H1024    1.0000 0.75833  0.46047  0.14797  Biso   1.000  H
  H1025    1.0000 0.70213  0.24167  0.14797  Biso   1.000  H
  H1026    1.0000 0.53953  0.29787  0.14797  Biso   1.000  H
  H1027    1.0000 0.63890  0.20580  0.49930  Biso   1.000  H
  H1028    1.0000 0.79420  0.43310  0.49930  Biso   1.000  H
  H1029    1.0000 0.56690  0.36110  0.49930  Biso   1.000  H
  H1030    1.0000 0.43310  0.79420  0.50070  Biso   1.000  H
  H1031    1.0000 0.36110  0.56690  0.50070  Biso   1.000  H
  H1032    1.0000 0.20580  0.63890  0.50070  Biso   1.000  H
  H1033    1.0000 0.30557  0.53913  0.83263  Biso   1.000  H
  H1034    1.0000 0.46087  0.76643  0.83263  Biso   1.000  H
  H1035    1.0000 0.23357  0.69443  0.83263  Biso   1.000  H
  H1036    1.0000 0.09977  0.12753  0.83403  Biso   1.000  H
  H1037    1.0000 0.02777  0.90023  0.83403  Biso   1.000  H
  H1038    1.0000 0.87247  0.97223  0.83403  Biso   1.000  H
  H1039    1.0000 0.97223  0.87247  0.16597  Biso   1.000  H
  H1040    1.0000 0.12753  0.09977  0.16597  Biso   1.000  H
  H1041    1.0000 0.90023  0.02777  0.16597  Biso   1.000  H
  H1042    1.0000 0.76643  0.46087  0.16737  Biso   1.000  H
  H1043    1.0000 0.69443  0.23357  0.16737  Biso   1.000  H
  H1044    1.0000 0.53913  0.30557  0.16737  Biso   1.000  H
  H1045    1.0000 0.58620  0.18270  0.50670  Biso   1.000  H
  H1046    1.0000 0.81730  0.40350  0.50670  Biso   1.000  H
  H1047    1.0000 0.59650  0.41380  0.50670  Biso   1.000  H
  H1048    1.0000 0.40350  0.81730  0.49330  Biso   1.000  H
  H1049    1.0000 0.41380  0.59650  0.49330  Biso   1.000  H
  H1050    1.0000 0.18270  0.58620  0.49330  Biso   1.000  H
  H1051    1.0000 0.25287  0.51603  0.84003  Biso   1.000  H
  H1052    1.0000 0.48397  0.73683  0.84003  Biso   1.000  H
  H1053    1.0000 0.26317  0.74713  0.84003  Biso   1.000  H
  H1054    1.0000 0.07017  0.15063  0.82663  Biso   1.000  H
  H1055    1.0000 0.08047  0.92983  0.82663  Biso   1.000  H
  H1056    1.0000 0.84937  0.91953  0.82663  Biso   1.000  H
  H1057    1.0000 0.91953  0.84937  0.17337  Biso   1.000  H
  H1058    1.0000 0.15063  0.07017  0.17337  Biso   1.000  H
  H1059    1.0000 0.92983  0.08047  0.17337  Biso   1.000  H
  H1060    1.0000 0.73683  0.48397  0.15997  Biso   1.000  H
  H1061    1.0000 0.74713  0.26317  0.15997  Biso   1.000  H
  H1062    1.0000 0.51603  0.25287  0.15997  Biso   1.000  H
  C1585    1.0000 0.58360  0.10550  0.52470  Biso   1.000  C
  C1586    1.0000 0.89450  0.47810  0.52470  Biso   1.000  C
  C1587    1.0000 0.52190  0.41640  0.52470  Biso   1.000  C
  C1588    1.0000 0.47810  0.89450  0.47530  Biso   1.000  C
  C1589    1.0000 0.41640  0.52190  0.47530  Biso   1.000  C
  C1590    1.0000 0.10550  0.58360  0.47530  Biso   1.000  C
  C1591    1.0000 0.25027  0.43883  0.85803  Biso   1.000  C
  C1592    1.0000 0.56117  0.81143  0.85803  Biso   1.000  C
  C1593    1.0000 0.18857  0.74973  0.85803  Biso   1.000  C
  C1594    1.0000 0.14477  0.22783  0.80863  Biso   1.000  C
  C1595    1.0000 0.08307  0.85523  0.80863  Biso   1.000  C
  C1596    1.0000 0.77217  0.91693  0.80863  Biso   1.000  C
  C1597    1.0000 0.91693  0.77217  0.19137  Biso   1.000  C
  C1598    1.0000 0.22783  0.14477  0.19137  Biso   1.000  C
  C1599    1.0000 0.85523  0.08307  0.19137  Biso   1.000  C
  C1600    1.0000 0.81143  0.56117  0.14197  Biso   1.000  C
  C1601    1.0000 0.74973  0.18857  0.14197  Biso   1.000  C
  C1602    1.0000 0.43883  0.25027  0.14197  Biso   1.000  C
  H1063    1.0000 0.55020  0.09160  0.52110  Biso   1.000  H
  H1064    1.0000 0.90840  0.45860  0.52110  Biso   1.000  H
  H1065    1.0000 0.54140  0.44980  0.52110  Biso   1.000  H
  H1066    1.0000 0.45860  0.90840  0.47890  Biso   1.000  H
  H1067    1.0000 0.44980  0.54140  0.47890  Biso   1.000  H
  H1068    1.0000 0.09160  0.55020  0.47890  Biso   1.000  H
  H1069    1.0000 0.21687  0.42493  0.85443  Biso   1.000  H
  H1070    1.0000 0.57507  0.79193  0.85443  Biso   1.000  H
  H1071    1.0000 0.20807  0.78313  0.85443  Biso   1.000  H
  H1072    1.0000 0.12527  0.24173  0.81223  Biso   1.000  H
  H1073    1.0000 0.11647  0.87473  0.81223  Biso   1.000  H
  H1074    1.0000 0.75827  0.88353  0.81223  Biso   1.000  H
  H1075    1.0000 0.88353  0.75827  0.18777  Biso   1.000  H
  H1076    1.0000 0.24173  0.12527  0.18777  Biso   1.000  H
  H1077    1.0000 0.87473  0.11647  0.18777  Biso   1.000  H
  H1078    1.0000 0.79193  0.57507  0.14557  Biso   1.000  H
  H1079    1.0000 0.78313  0.20807  0.14557  Biso   1.000  H
  H1080    1.0000 0.42493  0.21687  0.14557  Biso   1.000  H
  H1081    1.0000 0.58990  0.07880  0.52590  Biso   1.000  H
  H1082    1.0000 0.92120  0.51110  0.52590  Biso   1.000  H
  H1083    1.0000 0.48890  0.41010  0.52590  Biso   1.000  H
  H1084    1.0000 0.51110  0.92120  0.47410  Biso   1.000  H
  H1085    1.0000 0.41010  0.48890  0.47410  Biso   1.000  H
  H1086    1.0000 0.07880  0.58990  0.47410  Biso   1.000  H
  H1087    1.0000 0.25657  0.41213  0.85923  Biso   1.000  H
  H1088    1.0000 0.58787  0.84443  0.85923  Biso   1.000  H
  H1089    1.0000 0.15557  0.74343  0.85923  Biso   1.000  H
  H1090    1.0000 0.17777  0.25453  0.80743  Biso   1.000  H
  H1091    1.0000 0.07677  0.82223  0.80743  Biso   1.000  H
  H1092    1.0000 0.74547  0.92323  0.80743  Biso   1.000  H
  H1093    1.0000 0.92323  0.74547  0.19257  Biso   1.000  H
  H1094    1.0000 0.25453  0.17777  0.19257  Biso   1.000  H
  H1095    1.0000 0.82223  0.07677  0.19257  Biso   1.000  H
  H1096    1.0000 0.84443  0.58787  0.14077  Biso   1.000  H
  H1097    1.0000 0.74343  0.15557  0.14077  Biso   1.000  H
  H1098    1.0000 0.41213  0.25657  0.14077  Biso   1.000  H
  C1603    1.0000 0.58700  0.12700  0.54250  Biso   1.000  C
  C1604    1.0000 0.87300  0.46000  0.54250  Biso   1.000  C
  C1605    1.0000 0.54000  0.41300  0.54250  Biso   1.000  C
  C1606    1.0000 0.46000  0.87300  0.45750  Biso   1.000  C
  C1607    1.0000 0.41300  0.54000  0.45750  Biso   1.000  C
  C1608    1.0000 0.12700  0.58700  0.45750  Biso   1.000  C
  C1609    1.0000 0.25367  0.46033  0.87583  Biso   1.000  C
  C1610    1.0000 0.53967  0.79333  0.87583  Biso   1.000  C
  C1611    1.0000 0.20667  0.74633  0.87583  Biso   1.000  C
  C1612    1.0000 0.12667  0.20633  0.79083  Biso   1.000  C
  C1613    1.0000 0.07967  0.87333  0.79083  Biso   1.000  C
  C1614    1.0000 0.79367  0.92033  0.79083  Biso   1.000  C
  C1615    1.0000 0.92033  0.79367  0.20917  Biso   1.000  C
  C1616    1.0000 0.20633  0.12667  0.20917  Biso   1.000  C
  C1617    1.0000 0.87333  0.07967  0.20917  Biso   1.000  C
  C1618    1.0000 0.79333  0.53967  0.12417  Biso   1.000  C
  C1619    1.0000 0.74633  0.20667  0.12417  Biso   1.000  C
  C1620    1.0000 0.46033  0.25367  0.12417  Biso   1.000  C
  H1099    1.0000 0.56460  0.10180  0.54990  Biso   1.000  H
  H1100    1.0000 0.89820  0.46280  0.54990  Biso   1.000  H
  H1101    1.0000 0.53720  0.43540  0.54990  Biso   1.000  H
  H1102    1.0000 0.46280  0.89820  0.45010  Biso   1.000  H
  H1103    1.0000 0.43540  0.53720  0.45010  Biso   1.000  H
  H1104    1.0000 0.10180  0.56460  0.45010  Biso   1.000  H
  H1105    1.0000 0.23127  0.43513  0.88323  Biso   1.000  H
  H1106    1.0000 0.56487  0.79613  0.88323  Biso   1.000  H
  H1107    1.0000 0.20387  0.76873  0.88323  Biso   1.000  H
  H1108    1.0000 0.12947  0.23153  0.78343  Biso   1.000  H
  H1109    1.0000 0.10207  0.87053  0.78343  Biso   1.000  H
  H1110    1.0000 0.76847  0.89793  0.78343  Biso   1.000  H
  H1111    1.0000 0.89793  0.76847  0.21657  Biso   1.000  H
  H1112    1.0000 0.23153  0.12947  0.21657  Biso   1.000  H
  H1113    1.0000 0.87053  0.10207  0.21657  Biso   1.000  H
  H1114    1.0000 0.79613  0.56487  0.11677  Biso   1.000  H
  H1115    1.0000 0.76873  0.20387  0.11677  Biso   1.000  H
  H1116    1.0000 0.43513  0.23127  0.11677  Biso   1.000  H
  H1117    1.0000 0.61950  0.13950  0.54670  Biso   1.000  H
  H1118    1.0000 0.86050  0.48000  0.54670  Biso   1.000  H
  H1119    1.0000 0.52000  0.38050  0.54670  Biso   1.000  H
  H1120    1.0000 0.48000  0.86050  0.45330  Biso   1.000  H
  H1121    1.0000 0.38050  0.52000  0.45330  Biso   1.000  H
  H1122    1.0000 0.13950  0.61950  0.45330  Biso   1.000  H
  H1123    1.0000 0.28617  0.47283  0.88003  Biso   1.000  H
  H1124    1.0000 0.52717  0.81333  0.88003  Biso   1.000  H
  H1125    1.0000 0.18667  0.71383  0.88003  Biso   1.000  H
  H1126    1.0000 0.14667  0.19383  0.78663  Biso   1.000  H
  H1127    1.0000 0.04717  0.85333  0.78663  Biso   1.000  H
  H1128    1.0000 0.80617  0.95283  0.78663  Biso   1.000  H
  H1129    1.0000 0.95283  0.80617  0.21337  Biso   1.000  H
  H1130    1.0000 0.19383  0.14667  0.21337  Biso   1.000  H
  H1131    1.0000 0.85333  0.04717  0.21337  Biso   1.000  H
  H1132    1.0000 0.81333  0.52717  0.11997  Biso   1.000  H
  H1133    1.0000 0.71383  0.18667  0.11997  Biso   1.000  H
  H1134    1.0000 0.47283  0.28617  0.11997  Biso   1.000  H
  H1135    1.0000 0.57950  0.15240  0.54190  Biso   1.000  H
  H1136    1.0000 0.84760  0.42710  0.54190  Biso   1.000  H
  H1137    1.0000 0.57290  0.42050  0.54190  Biso   1.000  H
  H1138    1.0000 0.42710  0.84760  0.45810  Biso   1.000  H
  H1139    1.0000 0.42050  0.57290  0.45810  Biso   1.000  H
  H1140    1.0000 0.15240  0.57950  0.45810  Biso   1.000  H
  H1141    1.0000 0.24617  0.48573  0.87523  Biso   1.000  H
  H1142    1.0000 0.51427  0.76043  0.87523  Biso   1.000  H
  H1143    1.0000 0.23957  0.75383  0.87523  Biso   1.000  H
  H1144    1.0000 0.09377  0.18093  0.79143  Biso   1.000  H
  H1145    1.0000 0.08717  0.90623  0.79143  Biso   1.000  H
  H1146    1.0000 0.81907  0.91283  0.79143  Biso   1.000  H
  H1147    1.0000 0.91283  0.81907  0.20857  Biso   1.000  H
  H1148    1.0000 0.18093  0.09377  0.20857  Biso   1.000  H
  H1149    1.0000 0.90623  0.08717  0.20857  Biso   1.000  H
  H1150    1.0000 0.76043  0.51427  0.12477  Biso   1.000  H
  H1151    1.0000 0.75383  0.23957  0.12477  Biso   1.000  H
  H1152    1.0000 0.48573  0.24617  0.12477  Biso   1.000  H
  C1621    1.0000 0.20980  0.27330  0.27980  Biso   1.000  C
  C1622    1.0000 0.72670  0.93650  0.27980  Biso   1.000  C
  C1623    1.0000 0.06350  0.79020  0.27980  Biso   1.000  C
  C1624    1.0000 0.93650  0.72670  0.72020  Biso   1.000  C
  C1625    1.0000 0.79020  0.06350  0.72020  Biso   1.000  C
  C1626    1.0000 0.27330  0.20980  0.72020  Biso   1.000  C
  C1627    1.0000 0.87647  0.60663  0.61313  Biso   1.000  C
  C1628    1.0000 0.39337  0.26983  0.61313  Biso   1.000  C
  C1629    1.0000 0.73017  0.12353  0.61313  Biso   1.000  C
  C1630    1.0000 0.60317  0.06003  0.05353  Biso   1.000  C
  C1631    1.0000 0.45687  0.39683  0.05353  Biso   1.000  C
  C1632    1.0000 0.93997  0.54313  0.05353  Biso   1.000  C
  C1633    1.0000 0.54313  0.93997  0.94647  Biso   1.000  C
  C1634    1.0000 0.06003  0.60317  0.94647  Biso   1.000  C
  C1635    1.0000 0.39683  0.45687  0.94647  Biso   1.000  C
  C1636    1.0000 0.26983  0.39337  0.38687  Biso   1.000  C
  C1637    1.0000 0.12353  0.73017  0.38687  Biso   1.000  C
  C1638    1.0000 0.60663  0.87647  0.38687  Biso   1.000  C
  H1153    1.0000 0.20530  0.25840  0.29080  Biso   1.000  H
  H1154    1.0000 0.74160  0.94690  0.29080  Biso   1.000  H
  H1155    1.0000 0.05310  0.79470  0.29080  Biso   1.000  H
  H1156    1.0000 0.94690  0.74160  0.70920  Biso   1.000  H
  H1157    1.0000 0.79470  0.05310  0.70920  Biso   1.000  H
  H1158    1.0000 0.25840  0.20530  0.70920  Biso   1.000  H
  H1159    1.0000 0.87197  0.59173  0.62413  Biso   1.000  H
  H1160    1.0000 0.40827  0.28023  0.62413  Biso   1.000  H
  H1161    1.0000 0.71977  0.12803  0.62413  Biso   1.000  H
  H1162    1.0000 0.61357  0.07493  0.04253  Biso   1.000  H
  H1163    1.0000 0.46137  0.38643  0.04253  Biso   1.000  H
  H1164    1.0000 0.92507  0.53863  0.04253  Biso   1.000  H
  H1165    1.0000 0.53863  0.92507  0.95747  Biso   1.000  H
  H1166    1.0000 0.07493  0.61357  0.95747  Biso   1.000  H
  H1167    1.0000 0.38643  0.46137  0.95747  Biso   1.000  H
  H1168    1.0000 0.28023  0.40827  0.37587  Biso   1.000  H
  H1169    1.0000 0.12803  0.71977  0.37587  Biso   1.000  H
  H1170    1.0000 0.59173  0.87197  0.37587  Biso   1.000  H
  H1171    1.0000 0.18560  0.28330  0.27930  Biso   1.000  H
  H1172    1.0000 0.71670  0.90230  0.27930  Biso   1.000  H
  H1173    1.0000 0.09770  0.81440  0.27930  Biso   1.000  H
  H1174    1.0000 0.90230  0.71670  0.72070  Biso   1.000  H
  H1175    1.0000 0.81440  0.09770  0.72070  Biso   1.000  H
  H1176    1.0000 0.28330  0.18560  0.72070  Biso   1.000  H
  H1177    1.0000 0.85227  0.61663  0.61263  Biso   1.000  H
  H1178    1.0000 0.38337  0.23563  0.61263  Biso   1.000  H
  H1179    1.0000 0.76437  0.14773  0.61263  Biso   1.000  H
  H1180    1.0000 0.56897  0.05003  0.05403  Biso   1.000  H
  H1181    1.0000 0.48107  0.43103  0.05403  Biso   1.000  H
  H1182    1.0000 0.94997  0.51893  0.05403  Biso   1.000  H
  H1183    1.0000 0.51893  0.94997  0.94597  Biso   1.000  H
  H1184    1.0000 0.05003  0.56897  0.94597  Biso   1.000  H
  H1185    1.0000 0.43103  0.48107  0.94597  Biso   1.000  H
  H1186    1.0000 0.23563  0.38337  0.38737  Biso   1.000  H
  H1187    1.0000 0.14773  0.76437  0.38737  Biso   1.000  H
  H1188    1.0000 0.61663  0.85227  0.38737  Biso   1.000  H
  C1639    1.0000 0.18650  0.22850  0.26860  Biso   1.000  C
  C1640    1.0000 0.77150  0.95800  0.26860  Biso   1.000  C
  C1641    1.0000 0.04200  0.81350  0.26860  Biso   1.000  C
  C1642    1.0000 0.95800  0.77150  0.73140  Biso   1.000  C
  C1643    1.0000 0.81350  0.04200  0.73140  Biso   1.000  C
  C1644    1.0000 0.22850  0.18650  0.73140  Biso   1.000  C
  C1645    1.0000 0.85317  0.56183  0.60193  Biso   1.000  C
  C1646    1.0000 0.43817  0.29133  0.60193  Biso   1.000  C
  C1647    1.0000 0.70867  0.14683  0.60193  Biso   1.000  C
  C1648    1.0000 0.62467  0.10483  0.06473  Biso   1.000  C
  C1649    1.0000 0.48017  0.37533  0.06473  Biso   1.000  C
  C1650    1.0000 0.89517  0.51983  0.06473  Biso   1.000  C
  C1651    1.0000 0.51983  0.89517  0.93527  Biso   1.000  C
  C1652    1.0000 0.10483  0.62467  0.93527  Biso   1.000  C
  C1653    1.0000 0.37533  0.48017  0.93527  Biso   1.000  C
  C1654    1.0000 0.29133  0.43817  0.39807  Biso   1.000  C
  C1655    1.0000 0.14683  0.70867  0.39807  Biso   1.000  C
  C1656    1.0000 0.56183  0.85317  0.39807  Biso   1.000  C
  C1657    1.0000 0.23530  0.24870  0.25960  Biso   1.000  C
  C1658    1.0000 0.75130  0.98660  0.25960  Biso   1.000  C
  C1659    1.0000 0.01340  0.76470  0.25960  Biso   1.000  C
  C1660    1.0000 0.98660  0.75130  0.74040  Biso   1.000  C
  C1661    1.0000 0.76470  0.01340  0.74040  Biso   1.000  C
  C1662    1.0000 0.24870  0.23530  0.74040  Biso   1.000  C
  C1663    1.0000 0.90197  0.58203  0.59293  Biso   1.000  C
  C1664    1.0000 0.41797  0.31993  0.59293  Biso   1.000  C
  C1665    1.0000 0.68007  0.09803  0.59293  Biso   1.000  C
  C1666    1.0000 0.65327  0.08463  0.07373  Biso   1.000  C
  C1667    1.0000 0.43137  0.34673  0.07373  Biso   1.000  C
  C1668    1.0000 0.91537  0.56863  0.07373  Biso   1.000  C
  C1669    1.0000 0.56863  0.91537  0.92627  Biso   1.000  C
  C1670    1.0000 0.08463  0.65327  0.92627  Biso   1.000  C
  C1671    1.0000 0.34673  0.43137  0.92627  Biso   1.000  C
  C1672    1.0000 0.31993  0.41797  0.40707  Biso   1.000  C
  C1673    1.0000 0.09803  0.68007  0.40707  Biso   1.000  C
  C1674    1.0000 0.58203  0.90197  0.40707  Biso   1.000  C
  C1675    1.0000 0.59390  0.58670  0.45610  Biso   1.000  C
  C1676    1.0000 0.41330  0.00720  0.45610  Biso   1.000  C
  C1677    1.0000 0.99280  0.40610  0.45610  Biso   1.000  C
  C1678    1.0000 0.00720  0.41330  0.54390  Biso   1.000  C
  C1679    1.0000 0.40610  0.99280  0.54390  Biso   1.000  C
  C1680    1.0000 0.58670  0.59390  0.54390  Biso   1.000  C
  C1681    1.0000 0.26057  0.92003  0.78943  Biso   1.000  C
  C1682    1.0000 0.07997  0.34053  0.78943  Biso   1.000  C
  C1683    1.0000 0.65947  0.73943  0.78943  Biso   1.000  C
  C1684    1.0000 0.67387  0.74663  0.87723  Biso   1.000  C
  C1685    1.0000 0.07277  0.32613  0.87723  Biso   1.000  C
  C1686    1.0000 0.25337  0.92723  0.87723  Biso   1.000  C
  C1687    1.0000 0.92723  0.25337  0.12277  Biso   1.000  C
  C1688    1.0000 0.74663  0.67387  0.12277  Biso   1.000  C
  C1689    1.0000 0.32613  0.07277  0.12277  Biso   1.000  C
  C1690    1.0000 0.34053  0.07997  0.21057  Biso   1.000  C
  C1691    1.0000 0.73943  0.65947  0.21057  Biso   1.000  C
  C1692    1.0000 0.92003  0.26057  0.21057  Biso   1.000  C
  C1693    1.0000 0.60050  0.56080  0.47120  Biso   1.000  C
  C1694    1.0000 0.43920  0.03970  0.47120  Biso   1.000  C
  C1695    1.0000 0.96030  0.39950  0.47120  Biso   1.000  C
  C1696    1.0000 0.03970  0.43920  0.52880  Biso   1.000  C
  C1697    1.0000 0.39950  0.96030  0.52880  Biso   1.000  C
  C1698    1.0000 0.56080  0.60050  0.52880  Biso   1.000  C
  C1699    1.0000 0.26717  0.89413  0.80453  Biso   1.000  C
  C1700    1.0000 0.10587  0.37303  0.80453  Biso   1.000  C
  C1701    1.0000 0.62697  0.73283  0.80453  Biso   1.000  C
  C1702    1.0000 0.70637  0.77253  0.86213  Biso   1.000  C
  C1703    1.0000 0.06617  0.29363  0.86213  Biso   1.000  C
  C1704    1.0000 0.22747  0.93383  0.86213  Biso   1.000  C
  C1705    1.0000 0.93383  0.22747  0.13787  Biso   1.000  C
  C1706    1.0000 0.77253  0.70637  0.13787  Biso   1.000  C
  C1707    1.0000 0.29363  0.06617  0.13787  Biso   1.000  C
  C1708    1.0000 0.37303  0.10587  0.19547  Biso   1.000  C
  C1709    1.0000 0.73283  0.62697  0.19547  Biso   1.000  C
  C1710    1.0000 0.89413  0.26717  0.19547  Biso   1.000  C
  H1189    1.0000 0.60580  0.58010  0.48130  Biso   1.000  H
  H1190    1.0000 0.41990  0.02570  0.48130  Biso   1.000  H
  H1191    1.0000 0.97430  0.39420  0.48130  Biso   1.000  H
  H1192    1.0000 0.02570  0.41990  0.51870  Biso   1.000  H
  H1193    1.0000 0.39420  0.97430  0.51870  Biso   1.000  H
  H1194    1.0000 0.58010  0.60580  0.51870  Biso   1.000  H
  H1195    1.0000 0.27247  0.91343  0.81463  Biso   1.000  H
  H1196    1.0000 0.08657  0.35903  0.81463  Biso   1.000  H
  H1197    1.0000 0.64097  0.72753  0.81463  Biso   1.000  H
  H1198    1.0000 0.69237  0.75323  0.85203  Biso   1.000  H
  H1199    1.0000 0.06087  0.30763  0.85203  Biso   1.000  H
  H1200    1.0000 0.24677  0.93913  0.85203  Biso   1.000  H
  H1201    1.0000 0.93913  0.24677  0.14797  Biso   1.000  H
  H1202    1.0000 0.75323  0.69237  0.14797  Biso   1.000  H
  H1203    1.0000 0.30763  0.06087  0.14797  Biso   1.000  H
  H1204    1.0000 0.35903  0.08657  0.18537  Biso   1.000  H
  H1205    1.0000 0.72753  0.64097  0.18537  Biso   1.000  H
  H1206    1.0000 0.91343  0.27247  0.18537  Biso   1.000  H
  H1207    1.0000 0.57120  0.52970  0.47290  Biso   1.000  H
  H1208    1.0000 0.47030  0.04150  0.47290  Biso   1.000  H
  H1209    1.0000 0.95850  0.42880  0.47290  Biso   1.000  H
  H1210    1.0000 0.04150  0.47030  0.52710  Biso   1.000  H
  H1211    1.0000 0.42880  0.95850  0.52710  Biso   1.000  H
  H1212    1.0000 0.52970  0.57120  0.52710  Biso   1.000  H
  H1213    1.0000 0.23787  0.86303  0.80623  Biso   1.000  H
  H1214    1.0000 0.13697  0.37483  0.80623  Biso   1.000  H
  H1215    1.0000 0.62517  0.76213  0.80623  Biso   1.000  H
  H1216    1.0000 0.70817  0.80363  0.86043  Biso   1.000  H
  H1217    1.0000 0.09547  0.29183  0.86043  Biso   1.000  H
  H1218    1.0000 0.19637  0.90453  0.86043  Biso   1.000  H
  H1219    1.0000 0.90453  0.19637  0.13957  Biso   1.000  H
  H1220    1.0000 0.80363  0.70817  0.13957  Biso   1.000  H
  H1221    1.0000 0.29183  0.09547  0.13957  Biso   1.000  H
  H1222    1.0000 0.37483  0.13697  0.19377  Biso   1.000  H
  H1223    1.0000 0.76213  0.62517  0.19377  Biso   1.000  H
  H1224    1.0000 0.86303  0.23787  0.19377  Biso   1.000  H
  C1711    1.0000 0.64360  0.55280  0.46850  Biso   1.000  C
  C1712    1.0000 0.44720  0.09080  0.46850  Biso   1.000  C
  C1713    1.0000 0.90920  0.35640  0.46850  Biso   1.000  C
  C1714    1.0000 0.09080  0.44720  0.53150  Biso   1.000  C
  C1715    1.0000 0.35640  0.90920  0.53150  Biso   1.000  C
  C1716    1.0000 0.55280  0.64360  0.53150  Biso   1.000  C
  C1717    1.0000 0.31027  0.88613  0.80183  Biso   1.000  C
  C1718    1.0000 0.11387  0.42413  0.80183  Biso   1.000  C
  C1719    1.0000 0.57587  0.68973  0.80183  Biso   1.000  C
  C1720    1.0000 0.75747  0.78053  0.86483  Biso   1.000  C
  C1721    1.0000 0.02307  0.24253  0.86483  Biso   1.000  C
  C1722    1.0000 0.21947  0.97693  0.86483  Biso   1.000  C
  C1723    1.0000 0.97693  0.21947  0.13517  Biso   1.000  C
  C1724    1.0000 0.78053  0.75747  0.13517  Biso   1.000  C
  C1725    1.0000 0.24253  0.02307  0.13517  Biso   1.000  C
  C1726    1.0000 0.42413  0.11387  0.19817  Biso   1.000  C
  C1727    1.0000 0.68973  0.57587  0.19817  Biso   1.000  C
  C1728    1.0000 0.88613  0.31027  0.19817  Biso   1.000  C
  H1225    1.0000 0.64280  0.52940  0.47670  Biso   1.000  H
  H1226    1.0000 0.47060  0.11340  0.47670  Biso   1.000  H
  H1227    1.0000 0.88660  0.35720  0.47670  Biso   1.000  H
  H1228    1.0000 0.11340  0.47060  0.52330  Biso   1.000  H
  H1229    1.0000 0.35720  0.88660  0.52330  Biso   1.000  H
  H1230    1.0000 0.52940  0.64280  0.52330  Biso   1.000  H
  H1231    1.0000 0.30947  0.86273  0.81003  Biso   1.000  H
  H1232    1.0000 0.13727  0.44673  0.81003  Biso   1.000  H
  H1233    1.0000 0.55327  0.69053  0.81003  Biso   1.000  H
  H1234    1.0000 0.78007  0.80393  0.85663  Biso   1.000  H
  H1235    1.0000 0.02387  0.21993  0.85663  Biso   1.000  H
  H1236    1.0000 0.19607  0.97613  0.85663  Biso   1.000  H
  H1237    1.0000 0.97613  0.19607  0.14337  Biso   1.000  H
  H1238    1.0000 0.80393  0.78007  0.14337  Biso   1.000  H
  H1239    1.0000 0.21993  0.02387  0.14337  Biso   1.000  H
  H1240    1.0000 0.44673  0.13727  0.18997  Biso   1.000  H
  H1241    1.0000 0.69053  0.55327  0.18997  Biso   1.000  H
  H1242    1.0000 0.86273  0.30947  0.18997  Biso   1.000  H
  C1729    1.0000 0.69110  0.60180  0.47040  Biso   1.000  C
  C1730    1.0000 0.39820  0.08930  0.47040  Biso   1.000  C
  C1731    1.0000 0.91070  0.30890  0.47040  Biso   1.000  C
  C1732    1.0000 0.08930  0.39820  0.52960  Biso   1.000  C
  C1733    1.0000 0.30890  0.91070  0.52960  Biso   1.000  C
  C1734    1.0000 0.60180  0.69110  0.52960  Biso   1.000  C
  C1735    1.0000 0.35777  0.93513  0.80373  Biso   1.000  C
  C1736    1.0000 0.06487  0.42263  0.80373  Biso   1.000  C
  C1737    1.0000 0.57737  0.64223  0.80373  Biso   1.000  C
  C1738    1.0000 0.75597  0.73153  0.86293  Biso   1.000  C
  C1739    1.0000 0.97557  0.24403  0.86293  Biso   1.000  C
  C1740    1.0000 0.26847  0.02443  0.86293  Biso   1.000  C
  C1741    1.0000 0.02443  0.26847  0.13707  Biso   1.000  C
  C1742    1.0000 0.73153  0.75597  0.13707  Biso   1.000  C
  C1743    1.0000 0.24403  0.97557  0.13707  Biso   1.000  C
  C1744    1.0000 0.42263  0.06487  0.19627  Biso   1.000  C
  C1745    1.0000 0.64223  0.57737  0.19627  Biso   1.000  C
  C1746    1.0000 0.93513  0.35777  0.19627  Biso   1.000  C
  H1243    1.0000 0.68670  0.62210  0.47850  Biso   1.000  H
  H1244    1.0000 0.37790  0.06460  0.47850  Biso   1.000  H
  H1245    1.0000 0.93540  0.31330  0.47850  Biso   1.000  H
  H1246    1.0000 0.06460  0.37790  0.52150  Biso   1.000  H
  H1247    1.0000 0.31330  0.93540  0.52150  Biso   1.000  H
  H1248    1.0000 0.62210  0.68670  0.52150  Biso   1.000  H
  H1249    1.0000 0.35337  0.95543  0.81183  Biso   1.000  H
  H1250    1.0000 0.04457  0.39793  0.81183  Biso   1.000  H
  H1251    1.0000 0.60207  0.64663  0.81183  Biso   1.000  H
  H1252    1.0000 0.73127  0.71123  0.85483  Biso   1.000  H
  H1253    1.0000 0.97997  0.26873  0.85483  Biso   1.000  H
  H1254    1.0000 0.28877  0.02003  0.85483  Biso   1.000  H
  H1255    1.0000 0.02003  0.28877  0.14517  Biso   1.000  H
  H1256    1.0000 0.71123  0.73127  0.14517  Biso   1.000  H
  H1257    1.0000 0.26873  0.97997  0.14517  Biso   1.000  H
  H1258    1.0000 0.39793  0.04457  0.18817  Biso   1.000  H
  H1259    1.0000 0.64663  0.60207  0.18817  Biso   1.000  H
  H1260    1.0000 0.95543  0.35337  0.18817  Biso   1.000  H
  H1261    1.0000 0.70020  0.61880  0.45970  Biso   1.000  H
  H1262    1.0000 0.38120  0.08140  0.45970  Biso   1.000  H
  H1263    1.0000 0.91860  0.29980  0.45970  Biso   1.000  H
  H1264    1.0000 0.08140  0.38120  0.54030  Biso   1.000  H
  H1265    1.0000 0.29980  0.91860  0.54030  Biso   1.000  H
  H1266    1.0000 0.61880  0.70020  0.54030  Biso   1.000  H
  H1267    1.0000 0.36687  0.95213  0.79303  Biso   1.000  H
  H1268    1.0000 0.04787  0.41473  0.79303  Biso   1.000  H
  H1269    1.0000 0.58527  0.63313  0.79303  Biso   1.000  H
  H1270    1.0000 0.74807  0.71453  0.87363  Biso   1.000  H
  H1271    1.0000 0.96647  0.25193  0.87363  Biso   1.000  H
  H1272    1.0000 0.28547  0.03353  0.87363  Biso   1.000  H
  H1273    1.0000 0.03353  0.28547  0.12637  Biso   1.000  H
  H1274    1.0000 0.71453  0.74807  0.12637  Biso   1.000  H
  H1275    1.0000 0.25193  0.96647  0.12637  Biso   1.000  H
  H1276    1.0000 0.41473  0.04787  0.20697  Biso   1.000  H
  H1277    1.0000 0.63313  0.58527  0.20697  Biso   1.000  H
  H1278    1.0000 0.95213  0.36687  0.20697  Biso   1.000  H
  C1747    1.0000 0.54110  0.57540  0.45760  Biso   1.000  C
  C1748    1.0000 0.42460  0.96570  0.45760  Biso   1.000  C
  C1749    1.0000 0.03430  0.45890  0.45760  Biso   1.000  C
  C1750    1.0000 0.96570  0.42460  0.54240  Biso   1.000  C
  C1751    1.0000 0.45890  0.03430  0.54240  Biso   1.000  C
  C1752    1.0000 0.57540  0.54110  0.54240  Biso   1.000  C
  C1753    1.0000 0.20777  0.90873  0.79093  Biso   1.000  C
  C1754    1.0000 0.09127  0.29903  0.79093  Biso   1.000  C
  C1755    1.0000 0.70097  0.79223  0.79093  Biso   1.000  C
  C1756    1.0000 0.63237  0.75793  0.87573  Biso   1.000  C
  C1757    1.0000 0.12557  0.36763  0.87573  Biso   1.000  C
  C1758    1.0000 0.24207  0.87443  0.87573  Biso   1.000  C
  C1759    1.0000 0.87443  0.24207  0.12427  Biso   1.000  C
  C1760    1.0000 0.75793  0.63237  0.12427  Biso   1.000  C
  C1761    1.0000 0.36763  0.12557  0.12427  Biso   1.000  C
  C1762    1.0000 0.29903  0.09127  0.20907  Biso   1.000  C
  C1763    1.0000 0.79223  0.70097  0.20907  Biso   1.000  C
  C1764    1.0000 0.90873  0.20777  0.20907  Biso   1.000  C
  C1765    1.0000 0.53910  0.60800  0.44340  Biso   1.000  C
  C1766    1.0000 0.39200  0.93110  0.44340  Biso   1.000  C
  C1767    1.0000 0.06890  0.46090  0.44340  Biso   1.000  C
  C1768    1.0000 0.93110  0.39200  0.55660  Biso   1.000  C
  C1769    1.0000 0.46090  0.06890  0.55660  Biso   1.000  C
  C1770    1.0000 0.60800  0.53910  0.55660  Biso   1.000  C
  C1771    1.0000 0.20577  0.94133  0.77673  Biso   1.000  C
  C1772    1.0000 0.05867  0.26443  0.77673  Biso   1.000  C
  C1773    1.0000 0.73557  0.79423  0.77673  Biso   1.000  C
  C1774    1.0000 0.59777  0.72533  0.88993  Biso   1.000  C
  C1775    1.0000 0.12757  0.40223  0.88993  Biso   1.000  C
  C1776    1.0000 0.27467  0.87243  0.88993  Biso   1.000  C
  C1777    1.0000 0.87243  0.27467  0.11007  Biso   1.000  C
  C1778    1.0000 0.72533  0.59777  0.11007  Biso   1.000  C
  C1779    1.0000 0.40223  0.12757  0.11007  Biso   1.000  C
  C1780    1.0000 0.26443  0.05867  0.22327  Biso   1.000  C
  C1781    1.0000 0.79423  0.73557  0.22327  Biso   1.000  C
  C1782    1.0000 0.94133  0.20577  0.22327  Biso   1.000  C
  H1279    1.0000 0.50470  0.58680  0.44070  Biso   1.000  H
  H1280    1.0000 0.41320  0.91790  0.44070  Biso   1.000  H
  H1281    1.0000 0.08210  0.49530  0.44070  Biso   1.000  H
  H1282    1.0000 0.91790  0.41320  0.55930  Biso   1.000  H
  H1283    1.0000 0.49530  0.08210  0.55930  Biso   1.000  H
  H1284    1.0000 0.58680  0.50470  0.55930  Biso   1.000  H
  H1285    1.0000 0.17137  0.92013  0.77403  Biso   1.000  H
  H1286    1.0000 0.07987  0.25123  0.77403  Biso   1.000  H
  H1287    1.0000 0.74877  0.82863  0.77403  Biso   1.000  H
  H1288    1.0000 0.58457  0.74653  0.89263  Biso   1.000  H
  H1289    1.0000 0.16197  0.41543  0.89263  Biso   1.000  H
  H1290    1.0000 0.25347  0.83803  0.89263  Biso   1.000  H
  H1291    1.0000 0.83803  0.25347  0.10737  Biso   1.000  H
  H1292    1.0000 0.74653  0.58457  0.10737  Biso   1.000  H
  H1293    1.0000 0.41543  0.16197  0.10737  Biso   1.000  H
  H1294    1.0000 0.25123  0.07987  0.22597  Biso   1.000  H
  H1295    1.0000 0.82863  0.74877  0.22597  Biso   1.000  H
  H1296    1.0000 0.92013  0.17137  0.22597  Biso   1.000  H
  C1783    1.0000 0.64140  0.53400  0.45060  Biso   1.000  C
  C1784    1.0000 0.46600  0.10740  0.45060  Biso   1.000  C
  C1785    1.0000 0.89260  0.35860  0.45060  Biso   1.000  C
  C1786    1.0000 0.10740  0.46600  0.54940  Biso   1.000  C
  C1787    1.0000 0.35860  0.89260  0.54940  Biso   1.000  C
  C1788    1.0000 0.53400  0.64140  0.54940  Biso   1.000  C
  C1789    1.0000 0.30807  0.86733  0.78393  Biso   1.000  C
  C1790    1.0000 0.13267  0.44073  0.78393  Biso   1.000  C
  C1791    1.0000 0.55927  0.69193  0.78393  Biso   1.000  C
  C1792    1.0000 0.77407  0.79933  0.88273  Biso   1.000  C
  C1793    1.0000 0.02527  0.22593  0.88273  Biso   1.000  C
  C1794    1.0000 0.20067  0.97473  0.88273  Biso   1.000  C
  C1795    1.0000 0.97473  0.20067  0.11727  Biso   1.000  C
  C1796    1.0000 0.79933  0.77407  0.11727  Biso   1.000  C
  C1797    1.0000 0.22593  0.02527  0.11727  Biso   1.000  C
  C1798    1.0000 0.44073  0.13267  0.21607  Biso   1.000  C
  C1799    1.0000 0.69193  0.55927  0.21607  Biso   1.000  C
  C1800    1.0000 0.86733  0.30807  0.21607  Biso   1.000  C
  H1297    1.0000 0.66840  0.52900  0.44880  Biso   1.000  H
  H1298    1.0000 0.47100  0.13940  0.44880  Biso   1.000  H
  H1299    1.0000 0.86060  0.33160  0.44880  Biso   1.000  H
  H1300    1.0000 0.13940  0.47100  0.55120  Biso   1.000  H
  H1301    1.0000 0.33160  0.86060  0.55120  Biso   1.000  H
  H1302    1.0000 0.52900  0.66840  0.55120  Biso   1.000  H
  H1303    1.0000 0.33507  0.86233  0.78213  Biso   1.000  H
  H1304    1.0000 0.13767  0.47273  0.78213  Biso   1.000  H
  H1305    1.0000 0.52727  0.66493  0.78213  Biso   1.000  H
  H1306    1.0000 0.80607  0.80433  0.88453  Biso   1.000  H
  H1307    1.0000 0.99827  0.19393  0.88453  Biso   1.000  H
  H1308    1.0000 0.19567  0.00173  0.88453  Biso   1.000  H
  H1309    1.0000 0.00173  0.19567  0.11547  Biso   1.000  H
  H1310    1.0000 0.80433  0.80607  0.11547  Biso   1.000  H
  H1311    1.0000 0.19393  0.99827  0.11547  Biso   1.000  H
  H1312    1.0000 0.47273  0.13767  0.21787  Biso   1.000  H
  H1313    1.0000 0.66493  0.52727  0.21787  Biso   1.000  H
  H1314    1.0000 0.86233  0.33507  0.21787  Biso   1.000  H
  H1315    1.0000 0.61170  0.50390  0.44910  Biso   1.000  H
  H1316    1.0000 0.49610  0.10780  0.44910  Biso   1.000  H
  H1317    1.0000 0.89220  0.38830  0.44910  Biso   1.000  H
  H1318    1.0000 0.10780  0.49610  0.55090  Biso   1.000  H
  H1319    1.0000 0.38830  0.89220  0.55090  Biso   1.000  H
  H1320    1.0000 0.50390  0.61170  0.55090  Biso   1.000  H
  H1321    1.0000 0.27837  0.83723  0.78243  Biso   1.000  H
  H1322    1.0000 0.16277  0.44113  0.78243  Biso   1.000  H
  H1323    1.0000 0.55887  0.72163  0.78243  Biso   1.000  H
  H1324    1.0000 0.77447  0.82943  0.88423  Biso   1.000  H
  H1325    1.0000 0.05497  0.22553  0.88423  Biso   1.000  H
  H1326    1.0000 0.17057  0.94503  0.88423  Biso   1.000  H
  H1327    1.0000 0.94503  0.17057  0.11577  Biso   1.000  H
  H1328    1.0000 0.82943  0.77447  0.11577  Biso   1.000  H
  H1329    1.0000 0.22553  0.05497  0.11577  Biso   1.000  H
  H1330    1.0000 0.44113  0.16277  0.21757  Biso   1.000  H
  H1331    1.0000 0.72163  0.55887  0.21757  Biso   1.000  H
  H1332    1.0000 0.83723  0.27837  0.21757  Biso   1.000  H
  H1333    1.0000 0.64280  0.55740  0.44260  Biso   1.000  H
  H1334    1.0000 0.44260  0.08540  0.44260  Biso   1.000  H
  H1335    1.0000 0.91460  0.35720  0.44260  Biso   1.000  H
  H1336    1.0000 0.08540  0.44260  0.55740  Biso   1.000  H
  H1337    1.0000 0.35720  0.91460  0.55740  Biso   1.000  H
  H1338    1.0000 0.55740  0.64280  0.55740  Biso   1.000  H
  H1339    1.0000 0.30947  0.89073  0.77593  Biso   1.000  H
  H1340    1.0000 0.10927  0.41873  0.77593  Biso   1.000  H
  H1341    1.0000 0.58127  0.69053  0.77593  Biso   1.000  H
  H1342    1.0000 0.75207  0.77593  0.89073  Biso   1.000  H
  H1343    1.0000 0.02387  0.24793  0.89073  Biso   1.000  H
  H1344    1.0000 0.22407  0.97613  0.89073  Biso   1.000  H
  H1345    1.0000 0.97613  0.22407  0.10927  Biso   1.000  H
  H1346    1.0000 0.77593  0.75207  0.10927  Biso   1.000  H
  H1347    1.0000 0.24793  0.02387  0.10927  Biso   1.000  H
  H1348    1.0000 0.41873  0.10927  0.22407  Biso   1.000  H
  H1349    1.0000 0.69053  0.58127  0.22407  Biso   1.000  H
  H1350    1.0000 0.89073  0.30947  0.22407  Biso   1.000  H
  C1801    1.0000 0.55520  0.62590  0.42520  Biso   1.000  C
  C1802    1.0000 0.37410  0.92930  0.42520  Biso   1.000  C
  C1803    1.0000 0.07070  0.44480  0.42520  Biso   1.000  C
  C1804    1.0000 0.92930  0.37410  0.57480  Biso   1.000  C
  C1805    1.0000 0.44480  0.07070  0.57480  Biso   1.000  C
  C1806    1.0000 0.62590  0.55520  0.57480  Biso   1.000  C
  C1807    1.0000 0.22187  0.95923  0.75853  Biso   1.000  C
  C1808    1.0000 0.04077  0.26263  0.75853  Biso   1.000  C
  C1809    1.0000 0.73737  0.77813  0.75853  Biso   1.000  C
  C1810    1.0000 0.59597  0.70743  0.90813  Biso   1.000  C
  C1811    1.0000 0.11147  0.40403  0.90813  Biso   1.000  C
  C1812    1.0000 0.29257  0.88853  0.90813  Biso   1.000  C
  C1813    1.0000 0.88853  0.29257  0.09187  Biso   1.000  C
  C1814    1.0000 0.70743  0.59597  0.09187  Biso   1.000  C
  C1815    1.0000 0.40403  0.11147  0.09187  Biso   1.000  C
  C1816    1.0000 0.26263  0.04077  0.24147  Biso   1.000  C
  C1817    1.0000 0.77813  0.73737  0.24147  Biso   1.000  C
  C1818    1.0000 0.95923  0.22187  0.24147  Biso   1.000  C
  H1351    1.0000 0.52780  0.60980  0.41760  Biso   1.000  H
  H1352    1.0000 0.39020  0.91800  0.41760  Biso   1.000  H
  H1353    1.0000 0.08200  0.47220  0.41760  Biso   1.000  H
  H1354    1.0000 0.91800  0.39020  0.58240  Biso   1.000  H
  H1355    1.0000 0.47220  0.08200  0.58240  Biso   1.000  H
  H1356    1.0000 0.60980  0.52780  0.58240  Biso   1.000  H
  H1357    1.0000 0.19447  0.94313  0.75093  Biso   1.000  H
  H1358    1.0000 0.05687  0.25133  0.75093  Biso   1.000  H
  H1359    1.0000 0.74867  0.80553  0.75093  Biso   1.000  H
  H1360    1.0000 0.58467  0.72353  0.91573  Biso   1.000  H
  H1361    1.0000 0.13887  0.41533  0.91573  Biso   1.000  H
  H1362    1.0000 0.27647  0.86113  0.91573  Biso   1.000  H
  H1363    1.0000 0.86113  0.27647  0.08427  Biso   1.000  H
  H1364    1.0000 0.72353  0.58467  0.08427  Biso   1.000  H
  H1365    1.0000 0.41533  0.13887  0.08427  Biso   1.000  H
  H1366    1.0000 0.25133  0.05687  0.24907  Biso   1.000  H
  H1367    1.0000 0.80553  0.74867  0.24907  Biso   1.000  H
  H1368    1.0000 0.94313  0.19447  0.24907  Biso   1.000  H
  H1369    1.0000 0.58020  0.61890  0.42160  Biso   1.000  H
  H1370    1.0000 0.38110  0.96130  0.42160  Biso   1.000  H
  H1371    1.0000 0.03870  0.41980  0.42160  Biso   1.000  H
  H1372    1.0000 0.96130  0.38110  0.57840  Biso   1.000  H
  H1373    1.0000 0.41980  0.03870  0.57840  Biso   1.000  H
  H1374    1.0000 0.61890  0.58020  0.57840  Biso   1.000  H
  H1375    1.0000 0.24687  0.95223  0.75493  Biso   1.000  H
  H1376    1.0000 0.04777  0.29463  0.75493  Biso   1.000  H
  H1377    1.0000 0.70537  0.75313  0.75493  Biso   1.000  H
  H1378    1.0000 0.62797  0.71443  0.91173  Biso   1.000  H
  H1379    1.0000 0.08647  0.37203  0.91173  Biso   1.000  H
  H1380    1.0000 0.28557  0.91353  0.91173  Biso   1.000  H
  H1381    1.0000 0.91353  0.28557  0.08827  Biso   1.000  H
  H1382    1.0000 0.71443  0.62797  0.08827  Biso   1.000  H
  H1383    1.0000 0.37203  0.08647  0.08827  Biso   1.000  H
  H1384    1.0000 0.29463  0.04777  0.24507  Biso   1.000  H
  H1385    1.0000 0.75313  0.70537  0.24507  Biso   1.000  H
  H1386    1.0000 0.95223  0.24687  0.24507  Biso   1.000  H
  C1819    1.0000 0.53260  0.64810  0.45240  Biso   1.000  C
  C1820    1.0000 0.35190  0.88450  0.45240  Biso   1.000  C
  C1821    1.0000 0.11550  0.46740  0.45240  Biso   1.000  C
  C1822    1.0000 0.88450  0.35190  0.54760  Biso   1.000  C
  C1823    1.0000 0.46740  0.11550  0.54760  Biso   1.000  C
  C1824    1.0000 0.64810  0.53260  0.54760  Biso   1.000  C
  C1825    1.0000 0.19927  0.98143  0.78573  Biso   1.000  C
  C1826    1.0000 0.01857  0.21783  0.78573  Biso   1.000  C
  C1827    1.0000 0.78217  0.80073  0.78573  Biso   1.000  C
  C1828    1.0000 0.55117  0.68523  0.88093  Biso   1.000  C
  C1829    1.0000 0.13407  0.44883  0.88093  Biso   1.000  C
  C1830    1.0000 0.31477  0.86593  0.88093  Biso   1.000  C
  C1831    1.0000 0.86593  0.31477  0.11907  Biso   1.000  C
  C1832    1.0000 0.68523  0.55117  0.11907  Biso   1.000  C
  C1833    1.0000 0.44883  0.13407  0.11907  Biso   1.000  C
  C1834    1.0000 0.21783  0.01857  0.21427  Biso   1.000  C
  C1835    1.0000 0.80073  0.78217  0.21427  Biso   1.000  C
  C1836    1.0000 0.98143  0.19927  0.21427  Biso   1.000  C
  H1387    1.0000 0.52260  0.63860  0.46380  Biso   1.000  H
  H1388    1.0000 0.36140  0.88400  0.46380  Biso   1.000  H
  H1389    1.0000 0.11600  0.47740  0.46380  Biso   1.000  H
  H1390    1.0000 0.88400  0.36140  0.53620  Biso   1.000  H
  H1391    1.0000 0.47740  0.11600  0.53620  Biso   1.000  H
  H1392    1.0000 0.63860  0.52260  0.53620  Biso   1.000  H
  H1393    1.0000 0.18927  0.97193  0.79713  Biso   1.000  H
  H1394    1.0000 0.02807  0.21733  0.79713  Biso   1.000  H
  H1395    1.0000 0.78267  0.81073  0.79713  Biso   1.000  H
  H1396    1.0000 0.55067  0.69473  0.86953  Biso   1.000  H
  H1397    1.0000 0.14407  0.44933  0.86953  Biso   1.000  H
  H1398    1.0000 0.30527  0.85593  0.86953  Biso   1.000  H
  H1399    1.0000 0.85593  0.30527  0.13047  Biso   1.000  H
  H1400    1.0000 0.69473  0.55067  0.13047  Biso   1.000  H
  H1401    1.0000 0.44933  0.14407  0.13047  Biso   1.000  H
  H1402    1.0000 0.21733  0.02807  0.20287  Biso   1.000  H
  H1403    1.0000 0.81073  0.78267  0.20287  Biso   1.000  H
  H1404    1.0000 0.97193  0.18927  0.20287  Biso   1.000  H
  H1405    1.0000 0.56290  0.67820  0.45230  Biso   1.000  H
  H1406    1.0000 0.32180  0.88470  0.45230  Biso   1.000  H
  H1407    1.0000 0.11530  0.43710  0.45230  Biso   1.000  H
  H1408    1.0000 0.88470  0.32180  0.54770  Biso   1.000  H
  H1409    1.0000 0.43710  0.11530  0.54770  Biso   1.000  H
  H1410    1.0000 0.67820  0.56290  0.54770  Biso   1.000  H
  H1411    1.0000 0.22957  0.01153  0.78563  Biso   1.000  H
  H1412    1.0000 0.98847  0.21803  0.78563  Biso   1.000  H
  H1413    1.0000 0.78197  0.77043  0.78563  Biso   1.000  H
  H1414    1.0000 0.55137  0.65513  0.88103  Biso   1.000  H
  H1415    1.0000 0.10377  0.44863  0.88103  Biso   1.000  H
  H1416    1.0000 0.34487  0.89623  0.88103  Biso   1.000  H
  H1417    1.0000 0.89623  0.34487  0.11897  Biso   1.000  H
  H1418    1.0000 0.65513  0.55137  0.11897  Biso   1.000  H
  H1419    1.0000 0.44863  0.10377  0.11897  Biso   1.000  H
  H1420    1.0000 0.21803  0.98847  0.21437  Biso   1.000  H
  H1421    1.0000 0.77043  0.78197  0.21437  Biso   1.000  H
  H1422    1.0000 0.01153  0.22957  0.21437  Biso   1.000  H
  H1423    1.0000 0.50840  0.65220  0.44660  Biso   1.000  H
  H1424    1.0000 0.34780  0.85620  0.44660  Biso   1.000  H
  H1425    1.0000 0.14380  0.49160  0.44660  Biso   1.000  H
  H1426    1.0000 0.85620  0.34780  0.55340  Biso   1.000  H
  H1427    1.0000 0.49160  0.14380  0.55340  Biso   1.000  H
  H1428    1.0000 0.65220  0.50840  0.55340  Biso   1.000  H
  H1429    1.0000 0.17507  0.98553  0.77993  Biso   1.000  H
  H1430    1.0000 0.01447  0.18953  0.77993  Biso   1.000  H
  H1431    1.0000 0.81047  0.82493  0.77993  Biso   1.000  H
  H1432    1.0000 0.52287  0.68113  0.88673  Biso   1.000  H
  H1433    1.0000 0.15827  0.47713  0.88673  Biso   1.000  H
  H1434    1.0000 0.31887  0.84173  0.88673  Biso   1.000  H
  H1435    1.0000 0.84173  0.31887  0.11327  Biso   1.000  H
  H1436    1.0000 0.68113  0.52287  0.11327  Biso   1.000  H
  H1437    1.0000 0.47713  0.15827  0.11327  Biso   1.000  H
  H1438    1.0000 0.18953  0.01447  0.22007  Biso   1.000  H
  H1439    1.0000 0.82493  0.81047  0.22007  Biso   1.000  H
  H1440    1.0000 0.98553  0.17507  0.22007  Biso   1.000  H
  C1837    1.0000 0.57500  0.68130  0.42500  Biso   1.000  C
  C1838    1.0000 0.31870  0.89370  0.42500  Biso   1.000  C
  C1839    1.0000 0.10630  0.42500  0.42500  Biso   1.000  C
  C1840    1.0000 0.89370  0.31870  0.57500  Biso   1.000  C
  C1841    1.0000 0.42500  0.10630  0.57500  Biso   1.000  C
  C1842    1.0000 0.68130  0.57500  0.57500  Biso   1.000  C
  C1843    1.0000 0.24167  0.01463  0.75833  Biso   1.000  C
  C1844    1.0000 0.98537  0.22703  0.75833  Biso   1.000  C
  C1845    1.0000 0.77297  0.75833  0.75833  Biso   1.000  C
  C1846    1.0000 0.56037  0.65203  0.90833  Biso   1.000  C
  C1847    1.0000 0.09167  0.43963  0.90833  Biso   1.000  C
  C1848    1.0000 0.34797  0.90833  0.90833  Biso   1.000  C
  C1849    1.0000 0.90833  0.34797  0.09167  Biso   1.000  C
  C1850    1.0000 0.65203  0.56037  0.09167  Biso   1.000  C
  C1851    1.0000 0.43963  0.09167  0.09167  Biso   1.000  C
  C1852    1.0000 0.22703  0.98537  0.24167  Biso   1.000  C
  C1853    1.0000 0.75833  0.77297  0.24167  Biso   1.000  C
  C1854    1.0000 0.01463  0.24167  0.24167  Biso   1.000  C
  H1441    1.0000 0.58530  0.69360  0.41380  Biso   1.000  H
  H1442    1.0000 0.30640  0.89170  0.41380  Biso   1.000  H
  H1443    1.0000 0.10830  0.41470  0.41380  Biso   1.000  H
  H1444    1.0000 0.89170  0.30640  0.58620  Biso   1.000  H
  H1445    1.0000 0.41470  0.10830  0.58620  Biso   1.000  H
  H1446    1.0000 0.69360  0.58530  0.58620  Biso   1.000  H
  H1447    1.0000 0.25197  0.02693  0.74713  Biso   1.000  H
  H1448    1.0000 0.97307  0.22503  0.74713  Biso   1.000  H
  H1449    1.0000 0.77497  0.74803  0.74713  Biso   1.000  H
  H1450    1.0000 0.55837  0.63973  0.91953  Biso   1.000  H
  H1451    1.0000 0.08137  0.44163  0.91953  Biso   1.000  H
  H1452    1.0000 0.36027  0.91863  0.91953  Biso   1.000  H
  H1453    1.0000 0.91863  0.36027  0.08047  Biso   1.000  H
  H1454    1.0000 0.63973  0.55837  0.08047  Biso   1.000  H
  H1455    1.0000 0.44163  0.08137  0.08047  Biso   1.000  H
  H1456    1.0000 0.22503  0.97307  0.25287  Biso   1.000  H
  H1457    1.0000 0.74803  0.77497  0.25287  Biso   1.000  H
  H1458    1.0000 0.02693  0.25197  0.25287  Biso   1.000  H
  H1459    1.0000 0.55000  0.68790  0.42850  Biso   1.000  H
  H1460    1.0000 0.31210  0.86210  0.42850  Biso   1.000  H
  H1461    1.0000 0.13790  0.45000  0.42850  Biso   1.000  H
  H1462    1.0000 0.86210  0.31210  0.57150  Biso   1.000  H
  H1463    1.0000 0.45000  0.13790  0.57150  Biso   1.000  H
  H1464    1.0000 0.68790  0.55000  0.57150  Biso   1.000  H
  H1465    1.0000 0.21667  0.02123  0.76183  Biso   1.000  H
  H1466    1.0000 0.97877  0.19543  0.76183  Biso   1.000  H
  H1467    1.0000 0.80457  0.78333  0.76183  Biso   1.000  H
  H1468    1.0000 0.52877  0.64543  0.90483  Biso   1.000  H
  H1469    1.0000 0.11667  0.47123  0.90483  Biso   1.000  H
  H1470    1.0000 0.35457  0.88333  0.90483  Biso   1.000  H
  H1471    1.0000 0.88333  0.35457  0.09517  Biso   1.000  H
  H1472    1.0000 0.64543  0.52877  0.09517  Biso   1.000  H
  H1473    1.0000 0.47123  0.11667  0.09517  Biso   1.000  H
  H1474    1.0000 0.19543  0.97877  0.23817  Biso   1.000  H
  H1475    1.0000 0.78333  0.80457  0.23817  Biso   1.000  H
  H1476    1.0000 0.02123  0.21667  0.23817  Biso   1.000  H
  H1477    1.0000 0.60210  0.69700  0.43250  Biso   1.000  H
  H1478    1.0000 0.30300  0.90510  0.43250  Biso   1.000  H
  H1479    1.0000 0.09490  0.39790  0.43250  Biso   1.000  H
  H1480    1.0000 0.90510  0.30300  0.56750  Biso   1.000  H
  H1481    1.0000 0.39790  0.09490  0.56750  Biso   1.000  H
  H1482    1.0000 0.69700  0.60210  0.56750  Biso   1.000  H
  H1483    1.0000 0.26877  0.03033  0.76583  Biso   1.000  H
  H1484    1.0000 0.96967  0.23843  0.76583  Biso   1.000  H
  H1485    1.0000 0.76157  0.73123  0.76583  Biso   1.000  H
  H1486    1.0000 0.57177  0.63633  0.90083  Biso   1.000  H
  H1487    1.0000 0.06457  0.42823  0.90083  Biso   1.000  H
  H1488    1.0000 0.36367  0.93543  0.90083  Biso   1.000  H
  H1489    1.0000 0.93543  0.36367  0.09917  Biso   1.000  H
  H1490    1.0000 0.63633  0.57177  0.09917  Biso   1.000  H
  H1491    1.0000 0.42823  0.06457  0.09917  Biso   1.000  H
  H1492    1.0000 0.23843  0.96967  0.23417  Biso   1.000  H
  H1493    1.0000 0.73123  0.76157  0.23417  Biso   1.000  H
  H1494    1.0000 0.03033  0.26877  0.23417  Biso   1.000  H
  C1855    1.0000 0.13200  0.20230  0.26400  Biso   1.000  C
  C1856    1.0000 0.79770  0.92970  0.26400  Biso   1.000  C
  C1857    1.0000 0.07030  0.86800  0.26400  Biso   1.000  C
  C1858    1.0000 0.92970  0.79770  0.73600  Biso   1.000  C
  C1859    1.0000 0.86800  0.07030  0.73600  Biso   1.000  C
  C1860    1.0000 0.20230  0.13200  0.73600  Biso   1.000  C
  C1861    1.0000 0.79867  0.53563  0.59733  Biso   1.000  C
  C1862    1.0000 0.46437  0.26303  0.59733  Biso   1.000  C
  C1863    1.0000 0.73697  0.20133  0.59733  Biso   1.000  C
  C1864    1.0000 0.59637  0.13103  0.06933  Biso   1.000  C
  C1865    1.0000 0.53467  0.40363  0.06933  Biso   1.000  C
  C1866    1.0000 0.86897  0.46533  0.06933  Biso   1.000  C
  C1867    1.0000 0.46533  0.86897  0.93067  Biso   1.000  C
  C1868    1.0000 0.13103  0.59637  0.93067  Biso   1.000  C
  C1869    1.0000 0.40363  0.53467  0.93067  Biso   1.000  C
  C1870    1.0000 0.26303  0.46437  0.40267  Biso   1.000  C
  C1871    1.0000 0.20133  0.73697  0.40267  Biso   1.000  C
  C1872    1.0000 0.53563  0.79867  0.40267  Biso   1.000  C
  C1873    1.0000 0.73130  0.59130  0.47650  Biso   1.000  C
  C1874    1.0000 0.40870  0.14000  0.47650  Biso   1.000  C
  C1875    1.0000 0.86000  0.26870  0.47650  Biso   1.000  C
  C1876    1.0000 0.14000  0.40870  0.52350  Biso   1.000  C
  C1877    1.0000 0.26870  0.86000  0.52350  Biso   1.000  C
  C1878    1.0000 0.59130  0.73130  0.52350  Biso   1.000  C
  C1879    1.0000 0.39797  0.92463  0.80983  Biso   1.000  C
  C1880    1.0000 0.07537  0.47333  0.80983  Biso   1.000  C
  C1881    1.0000 0.52667  0.60203  0.80983  Biso   1.000  C
  C1882    1.0000 0.80667  0.74203  0.85683  Biso   1.000  C
  C1883    1.0000 0.93537  0.19333  0.85683  Biso   1.000  C
  C1884    1.0000 0.25797  0.06463  0.85683  Biso   1.000  C
  C1885    1.0000 0.06463  0.25797  0.14317  Biso   1.000  C
  C1886    1.0000 0.74203  0.80667  0.14317  Biso   1.000  C
  C1887    1.0000 0.19333  0.93537  0.14317  Biso   1.000  C
  C1888    1.0000 0.47333  0.07537  0.19017  Biso   1.000  C
  C1889    1.0000 0.60203  0.52667  0.19017  Biso   1.000  C
  C1890    1.0000 0.92463  0.39797  0.19017  Biso   1.000  C
  H1495    1.0000 0.76120  0.62140  0.47780  Biso   1.000  H
  H1496    1.0000 0.37860  0.13980  0.47780  Biso   1.000  H
  H1497    1.0000 0.86020  0.23880  0.47780  Biso   1.000  H
  H1498    1.0000 0.13980  0.37860  0.52220  Biso   1.000  H
  H1499    1.0000 0.23880  0.86020  0.52220  Biso   1.000  H
  H1500    1.0000 0.62140  0.76120  0.52220  Biso   1.000  H
  H1501    1.0000 0.42787  0.95473  0.81113  Biso   1.000  H
  H1502    1.0000 0.04527  0.47313  0.81113  Biso   1.000  H
  H1503    1.0000 0.52687  0.57213  0.81113  Biso   1.000  H
  H1504    1.0000 0.80647  0.71193  0.85553  Biso   1.000  H
  H1505    1.0000 0.90547  0.19353  0.85553  Biso   1.000  H
  H1506    1.0000 0.28807  0.09453  0.85553  Biso   1.000  H
  H1507    1.0000 0.09453  0.28807  0.14447  Biso   1.000  H
  H1508    1.0000 0.71193  0.80647  0.14447  Biso   1.000  H
  H1509    1.0000 0.19353  0.90547  0.14447  Biso   1.000  H
  H1510    1.0000 0.47313  0.04527  0.18887  Biso   1.000  H
  H1511    1.0000 0.57213  0.52687  0.18887  Biso   1.000  H
  H1512    1.0000 0.95473  0.42787  0.18887  Biso   1.000  H
  H1513    1.0000 0.72200  0.57470  0.48710  Biso   1.000  H
  H1514    1.0000 0.42530  0.14730  0.48710  Biso   1.000  H
  H1515    1.0000 0.85270  0.27800  0.48710  Biso   1.000  H
  H1516    1.0000 0.14730  0.42530  0.51290  Biso   1.000  H
  H1517    1.0000 0.27800  0.85270  0.51290  Biso   1.000  H
  H1518    1.0000 0.57470  0.72200  0.51290  Biso   1.000  H
  H1519    1.0000 0.38867  0.90803  0.82043  Biso   1.000  H
  H1520    1.0000 0.09197  0.48063  0.82043  Biso   1.000  H
  H1521    1.0000 0.51937  0.61133  0.82043  Biso   1.000  H
  H1522    1.0000 0.81397  0.75863  0.84623  Biso   1.000  H
  H1523    1.0000 0.94467  0.18603  0.84623  Biso   1.000  H
  H1524    1.0000 0.24137  0.05533  0.84623  Biso   1.000  H
  H1525    1.0000 0.05533  0.24137  0.15377  Biso   1.000  H
  H1526    1.0000 0.75863  0.81397  0.15377  Biso   1.000  H
  H1527    1.0000 0.18603  0.94467  0.15377  Biso   1.000  H
  H1528    1.0000 0.48063  0.09197  0.17957  Biso   1.000  H
  H1529    1.0000 0.61133  0.51937  0.17957  Biso   1.000  H
  H1530    1.0000 0.90803  0.38867  0.17957  Biso   1.000  H
  H1531    1.0000 0.73550  0.57140  0.46840  Biso   1.000  H
  H1532    1.0000 0.42860  0.16410  0.46840  Biso   1.000  H
  H1533    1.0000 0.83590  0.26450  0.46840  Biso   1.000  H
  H1534    1.0000 0.16410  0.42860  0.53160  Biso   1.000  H
  H1535    1.0000 0.26450  0.83590  0.53160  Biso   1.000  H
  H1536    1.0000 0.57140  0.73550  0.53160  Biso   1.000  H
  H1537    1.0000 0.40217  0.90473  0.80173  Biso   1.000  H
  H1538    1.0000 0.09527  0.49743  0.80173  Biso   1.000  H
  H1539    1.0000 0.50257  0.59783  0.80173  Biso   1.000  H
  H1540    1.0000 0.83077  0.76193  0.86493  Biso   1.000  H
  H1541    1.0000 0.93117  0.16923  0.86493  Biso   1.000  H
  H1542    1.0000 0.23807  0.06883  0.86493  Biso   1.000  H
  H1543    1.0000 0.06883  0.23807  0.13507  Biso   1.000  H
  H1544    1.0000 0.76193  0.83077  0.13507  Biso   1.000  H
  H1545    1.0000 0.16923  0.93117  0.13507  Biso   1.000  H
  H1546    1.0000 0.49743  0.09527  0.19827  Biso   1.000  H
  H1547    1.0000 0.59783  0.50257  0.19827  Biso   1.000  H
  H1548    1.0000 0.90473  0.40217  0.19827  Biso   1.000  H
  C1891    1.0000 0.24750  0.34580  0.29850  Biso   1.000  C
  C1892    1.0000 0.65420  0.90170  0.29850  Biso   1.000  C
  C1893    1.0000 0.09830  0.75250  0.29850  Biso   1.000  C
  C1894    1.0000 0.90170  0.65420  0.70150  Biso   1.000  C
  C1895    1.0000 0.75250  0.09830  0.70150  Biso   1.000  C
  C1896    1.0000 0.34580  0.24750  0.70150  Biso   1.000  C
  C1897    1.0000 0.91417  0.67913  0.63183  Biso   1.000  C
  C1898    1.0000 0.32087  0.23503  0.63183  Biso   1.000  C
  C1899    1.0000 0.76497  0.08583  0.63183  Biso   1.000  C
  C1900    1.0000 0.56837  0.98753  0.03483  Biso   1.000  C
  C1901    1.0000 0.41917  0.43163  0.03483  Biso   1.000  C
  C1902    1.0000 0.01247  0.58083  0.03483  Biso   1.000  C
  C1903    1.0000 0.58083  0.01247  0.96517  Biso   1.000  C
  C1904    1.0000 0.98753  0.56837  0.96517  Biso   1.000  C
  C1905    1.0000 0.43163  0.41917  0.96517  Biso   1.000  C
  C1906    1.0000 0.23503  0.32087  0.36817  Biso   1.000  C
  C1907    1.0000 0.08583  0.76497  0.36817  Biso   1.000  C
  C1908    1.0000 0.67913  0.91417  0.36817  Biso   1.000  C
  H1549    1.0000 0.22010  0.35020  0.29600  Biso   1.000  H
  H1550    1.0000 0.64980  0.86990  0.29600  Biso   1.000  H
  H1551    1.0000 0.13010  0.77990  0.29600  Biso   1.000  H
  H1552    1.0000 0.86990  0.64980  0.70400  Biso   1.000  H
  H1553    1.0000 0.77990  0.13010  0.70400  Biso   1.000  H
  H1554    1.0000 0.35020  0.22010  0.70400  Biso   1.000  H
  H1555    1.0000 0.88677  0.68353  0.62933  Biso   1.000  H
  H1556    1.0000 0.31647  0.20323  0.62933  Biso   1.000  H
  H1557    1.0000 0.79677  0.11323  0.62933  Biso   1.000  H
  H1558    1.0000 0.53657  0.98313  0.03733  Biso   1.000  H
  H1559    1.0000 0.44657  0.46343  0.03733  Biso   1.000  H
  H1560    1.0000 0.01687  0.55343  0.03733  Biso   1.000  H
  H1561    1.0000 0.55343  0.01687  0.96267  Biso   1.000  H
  H1562    1.0000 0.98313  0.53657  0.96267  Biso   1.000  H
  H1563    1.0000 0.46343  0.44657  0.96267  Biso   1.000  H
  H1564    1.0000 0.20323  0.31647  0.37067  Biso   1.000  H
  H1565    1.0000 0.11323  0.79677  0.37067  Biso   1.000  H
  H1566    1.0000 0.68353  0.88677  0.37067  Biso   1.000  H
  H1567    1.0000 0.23750  0.32240  0.30760  Biso   1.000  H
  H1568    1.0000 0.67760  0.91510  0.30760  Biso   1.000  H
  H1569    1.0000 0.08490  0.76250  0.30760  Biso   1.000  H
  H1570    1.0000 0.91510  0.67760  0.69240  Biso   1.000  H
  H1571    1.0000 0.76250  0.08490  0.69240  Biso   1.000  H
  H1572    1.0000 0.32240  0.23750  0.69240  Biso   1.000  H
  H1573    1.0000 0.90417  0.65573  0.64093  Biso   1.000  H
  H1574    1.0000 0.34427  0.24843  0.64093  Biso   1.000  H
  H1575    1.0000 0.75157  0.09583  0.64093  Biso   1.000  H
  H1576    1.0000 0.58177  0.01093  0.02573  Biso   1.000  H
  H1577    1.0000 0.42917  0.41823  0.02573  Biso   1.000  H
  H1578    1.0000 0.98907  0.57083  0.02573  Biso   1.000  H
  H1579    1.0000 0.57083  0.98907  0.97427  Biso   1.000  H
  H1580    1.0000 0.01093  0.58177  0.97427  Biso   1.000  H
  H1581    1.0000 0.41823  0.42917  0.97427  Biso   1.000  H
  H1582    1.0000 0.24843  0.34427  0.35907  Biso   1.000  H
  H1583    1.0000 0.09583  0.75157  0.35907  Biso   1.000  H
  H1584    1.0000 0.65573  0.90417  0.35907  Biso   1.000  H
  C1909    1.0000 0.28800  0.39390  0.30530  Biso   1.000  C
  C1910    1.0000 0.60610  0.89410  0.30530  Biso   1.000  C
  C1911    1.0000 0.10590  0.71200  0.30530  Biso   1.000  C
  C1912    1.0000 0.89410  0.60610  0.69470  Biso   1.000  C
  C1913    1.0000 0.71200  0.10590  0.69470  Biso   1.000  C
  C1914    1.0000 0.39390  0.28800  0.69470  Biso   1.000  C
  C1915    1.0000 0.95467  0.72723  0.63863  Biso   1.000  C
  C1916    1.0000 0.27277  0.22743  0.63863  Biso   1.000  C
  C1917    1.0000 0.77257  0.04533  0.63863  Biso   1.000  C
  C1918    1.0000 0.56077  0.93943  0.02803  Biso   1.000  C
  C1919    1.0000 0.37867  0.43923  0.02803  Biso   1.000  C
  C1920    1.0000 0.06057  0.62133  0.02803  Biso   1.000  C
  C1921    1.0000 0.62133  0.06057  0.97197  Biso   1.000  C
  C1922    1.0000 0.93943  0.56077  0.97197  Biso   1.000  C
  C1923    1.0000 0.43923  0.37867  0.97197  Biso   1.000  C
  C1924    1.0000 0.22743  0.27277  0.36137  Biso   1.000  C
  C1925    1.0000 0.04533  0.77257  0.36137  Biso   1.000  C
  C1926    1.0000 0.72723  0.95467  0.36137  Biso   1.000  C
  C1927    1.0000 0.25990  0.39280  0.32130  Biso   1.000  C
  C1928    1.0000 0.60720  0.86710  0.32130  Biso   1.000  C
  C1929    1.0000 0.13290  0.74010  0.32130  Biso   1.000  C
  C1930    1.0000 0.86710  0.60720  0.67870  Biso   1.000  C
  C1931    1.0000 0.74010  0.13290  0.67870  Biso   1.000  C
  C1932    1.0000 0.39280  0.25990  0.67870  Biso   1.000  C
  C1933    1.0000 0.92657  0.72613  0.65463  Biso   1.000  C
  C1934    1.0000 0.27387  0.20043  0.65463  Biso   1.000  C
  C1935    1.0000 0.79957  0.07343  0.65463  Biso   1.000  C
  C1936    1.0000 0.53377  0.94053  0.01203  Biso   1.000  C
  C1937    1.0000 0.40677  0.46623  0.01203  Biso   1.000  C
  C1938    1.0000 0.05947  0.59323  0.01203  Biso   1.000  C
  C1939    1.0000 0.59323  0.05947  0.98797  Biso   1.000  C
  C1940    1.0000 0.94053  0.53377  0.98797  Biso   1.000  C
  C1941    1.0000 0.46623  0.40677  0.98797  Biso   1.000  C
  C1942    1.0000 0.20043  0.27387  0.34537  Biso   1.000  C
  C1943    1.0000 0.07343  0.79957  0.34537  Biso   1.000  C
  C1944    1.0000 0.72613  0.92657  0.34537  Biso   1.000  C
  C1945    1.0000 0.34120  0.43360  0.30250  Biso   1.000  C
  C1946    1.0000 0.56640  0.90760  0.30250  Biso   1.000  C
  C1947    1.0000 0.09240  0.65880  0.30250  Biso   1.000  C
  C1948    1.0000 0.90760  0.56640  0.69750  Biso   1.000  C
  C1949    1.0000 0.65880  0.09240  0.69750  Biso   1.000  C
  C1950    1.0000 0.43360  0.34120  0.69750  Biso   1.000  C
  C1951    1.0000 0.00787  0.76693  0.63583  Biso   1.000  C
  C1952    1.0000 0.23307  0.24093  0.63583  Biso   1.000  C
  C1953    1.0000 0.75907  0.99213  0.63583  Biso   1.000  C
  C1954    1.0000 0.57427  0.89973  0.03083  Biso   1.000  C
  C1955    1.0000 0.32547  0.42573  0.03083  Biso   1.000  C
  C1956    1.0000 0.10027  0.67453  0.03083  Biso   1.000  C
  C1957    1.0000 0.67453  0.10027  0.96917  Biso   1.000  C
  C1958    1.0000 0.89973  0.57427  0.96917  Biso   1.000  C
  C1959    1.0000 0.42573  0.32547  0.96917  Biso   1.000  C
  C1960    1.0000 0.24093  0.23307  0.36417  Biso   1.000  C
  C1961    1.0000 0.99213  0.75907  0.36417  Biso   1.000  C
  C1962    1.0000 0.76693  0.00787  0.36417  Biso   1.000  C
  C1963    1.0000 0.34250  0.17460  0.39290  Biso   1.000  C
  C1964    1.0000 0.82540  0.16790  0.39290  Biso   1.000  C
  C1965    1.0000 0.83210  0.65750  0.39290  Biso   1.000  C
  C1966    1.0000 0.16790  0.82540  0.60710  Biso   1.000  C
  C1967    1.0000 0.65750  0.83210  0.60710  Biso   1.000  C
  C1968    1.0000 0.17460  0.34250  0.60710  Biso   1.000  C
  C1969    1.0000 0.00917  0.50793  0.72623  Biso   1.000  C
  C1970    1.0000 0.49207  0.50123  0.72623  Biso   1.000  C
  C1971    1.0000 0.49877  0.99083  0.72623  Biso   1.000  C
  C1972    1.0000 0.83457  0.15873  0.94043  Biso   1.000  C
  C1973    1.0000 0.32417  0.16543  0.94043  Biso   1.000  C
  C1974    1.0000 0.84127  0.67583  0.94043  Biso   1.000  C
  C1975    1.0000 0.67583  0.84127  0.05957  Biso   1.000  C
  C1976    1.0000 0.15873  0.83457  0.05957  Biso   1.000  C
  C1977    1.0000 0.16543  0.32417  0.05957  Biso   1.000  C
  C1978    1.0000 0.50123  0.49207  0.27377  Biso   1.000  C
  C1979    1.0000 0.99083  0.49877  0.27377  Biso   1.000  C
  C1980    1.0000 0.50793  0.00917  0.27377  Biso   1.000  C
  N1       1.0000 0.29890  0.14890  0.39520  Biso   1.000  N
  N2       1.0000 0.85110  0.15000  0.39520  Biso   1.000  N
  N3       1.0000 0.85000  0.70110  0.39520  Biso   1.000  N
  N4       1.0000 0.15000  0.85110  0.60480  Biso   1.000  N
  N5       1.0000 0.70110  0.85000  0.60480  Biso   1.000  N
  N6       1.0000 0.14890  0.29890  0.60480  Biso   1.000  N
  N7       1.0000 0.96557  0.48223  0.72853  Biso   1.000  N
  N8       1.0000 0.51777  0.48333  0.72853  Biso   1.000  N
  N9       1.0000 0.51667  0.03443  0.72853  Biso   1.000  N
  N10      1.0000 0.81667  0.18443  0.93813  Biso   1.000  N
  N11      1.0000 0.36777  0.18333  0.93813  Biso   1.000  N
  N12      1.0000 0.81557  0.63223  0.93813  Biso   1.000  N
  N13      1.0000 0.63223  0.81557  0.06187  Biso   1.000  N
  N14      1.0000 0.18443  0.81667  0.06187  Biso   1.000  N
  N15      1.0000 0.18333  0.36777  0.06187  Biso   1.000  N
  N16      1.0000 0.48333  0.51777  0.27147  Biso   1.000  N
  N17      1.0000 0.03443  0.51667  0.27147  Biso   1.000  N
  N18      1.0000 0.48223  0.96557  0.27147  Biso   1.000  N
  C1981    1.0000 0.28420  0.10620  0.39830  Biso   1.000  C
  C1982    1.0000 0.89380  0.17800  0.39830  Biso   1.000  C
  C1983    1.0000 0.82200  0.71580  0.39830  Biso   1.000  C
  C1984    1.0000 0.17800  0.89380  0.60170  Biso   1.000  C
  C1985    1.0000 0.71580  0.82200  0.60170  Biso   1.000  C
  C1986    1.0000 0.10620  0.28420  0.60170  Biso   1.000  C
  C1987    1.0000 0.95087  0.43953  0.73163  Biso   1.000  C
  C1988    1.0000 0.56047  0.51133  0.73163  Biso   1.000  C
  C1989    1.0000 0.48867  0.04913  0.73163  Biso   1.000  C
  C1990    1.0000 0.84467  0.22713  0.93503  Biso   1.000  C
  C1991    1.0000 0.38247  0.15533  0.93503  Biso   1.000  C
  C1992    1.0000 0.77287  0.61753  0.93503  Biso   1.000  C
  C1993    1.0000 0.61753  0.77287  0.06497  Biso   1.000  C
  C1994    1.0000 0.22713  0.84467  0.06497  Biso   1.000  C
  C1995    1.0000 0.15533  0.38247  0.06497  Biso   1.000  C
  C1996    1.0000 0.51133  0.56047  0.26837  Biso   1.000  C
  C1997    1.0000 0.04913  0.48867  0.26837  Biso   1.000  C
  C1998    1.0000 0.43953  0.95087  0.26837  Biso   1.000  C
  C1999    1.0000 0.27250  0.15980  0.38770  Biso   1.000  C
  C2000    1.0000 0.84020  0.11270  0.38770  Biso   1.000  C
  C2001    1.0000 0.88730  0.72750  0.38770  Biso   1.000  C
  C2002    1.0000 0.11270  0.84020  0.61230  Biso   1.000  C
  C2003    1.0000 0.72750  0.88730  0.61230  Biso   1.000  C
  C2004    1.0000 0.15980  0.27250  0.61230  Biso   1.000  C
  C2005    1.0000 0.93917  0.49313  0.72103  Biso   1.000  C
  C2006    1.0000 0.50687  0.44603  0.72103  Biso   1.000  C
  C2007    1.0000 0.55397  0.06083  0.72103  Biso   1.000  C
  C2008    1.0000 0.77937  0.17353  0.94563  Biso   1.000  C
  C2009    1.0000 0.39417  0.22063  0.94563  Biso   1.000  C
  C2010    1.0000 0.82647  0.60583  0.94563  Biso   1.000  C
  C2011    1.0000 0.60583  0.82647  0.05437  Biso   1.000  C
  C2012    1.0000 0.17353  0.77937  0.05437  Biso   1.000  C
  C2013    1.0000 0.22063  0.39417  0.05437  Biso   1.000  C
  C2014    1.0000 0.44603  0.50687  0.27897  Biso   1.000  C
  C2015    1.0000 0.06083  0.55397  0.27897  Biso   1.000  C
  C2016    1.0000 0.49313  0.93917  0.27897  Biso   1.000  C
  Cu37     1.0000 0.11513  0.55753  0.21952  Biso   1.000  Cu
  Cu38     1.0000 0.44247  0.55760  0.21952  Biso   1.000  Cu
  Cu39     1.0000 0.44240  0.88487  0.21952  Biso   1.000  Cu
  Cu40     1.0000 0.55760  0.44247  0.78048  Biso   1.000  Cu
  Cu41     1.0000 0.88487  0.44240  0.78048  Biso   1.000  Cu
  Cu42     1.0000 0.55753  0.11513  0.78048  Biso   1.000  Cu
  Cu43     1.0000 0.78180  0.89086  0.55285  Biso   1.000  Cu
  Cu44     1.0000 0.10914  0.89093  0.55285  Biso   1.000  Cu
  Cu45     1.0000 0.10907  0.21820  0.55285  Biso   1.000  Cu
  Cu46     1.0000 0.22427  0.77580  0.11381  Biso   1.000  Cu
  Cu47     1.0000 0.55154  0.77573  0.11381  Biso   1.000  Cu
  Cu48     1.0000 0.22420  0.44846  0.11381  Biso   1.000  Cu
  Cu49     1.0000 0.44846  0.22420  0.88619  Biso   1.000  Cu
  Cu50     1.0000 0.77580  0.22427  0.88619  Biso   1.000  Cu
  Cu51     1.0000 0.77573  0.55154  0.88619  Biso   1.000  Cu
  Cu52     1.0000 0.89093  0.10914  0.44715  Biso   1.000  Cu
  Cu53     1.0000 0.21820  0.10907  0.44715  Biso   1.000  Cu
  Cu54     1.0000 0.89086  0.78180  0.44715  Biso   1.000  Cu
  Cu55     1.0000 0.19248  0.59926  0.20122  Biso   1.000  Cu
  Cu56     1.0000 0.40074  0.59322  0.20122  Biso   1.000  Cu
  Cu57     1.0000 0.40678  0.80752  0.20122  Biso   1.000  Cu
  Cu58     1.0000 0.59322  0.40074  0.79878  Biso   1.000  Cu
  Cu59     1.0000 0.80752  0.40678  0.79878  Biso   1.000  Cu
  Cu60     1.0000 0.59926  0.19248  0.79878  Biso   1.000  Cu
  Cu61     1.0000 0.85915  0.93259  0.53455  Biso   1.000  Cu
  Cu62     1.0000 0.06741  0.92655  0.53455  Biso   1.000  Cu
  Cu63     1.0000 0.07345  0.14085  0.53455  Biso   1.000  Cu
  Cu64     1.0000 0.25989  0.73407  0.13211  Biso   1.000  Cu
  Cu65     1.0000 0.47419  0.74011  0.13211  Biso   1.000  Cu
  Cu66     1.0000 0.26593  0.52581  0.13211  Biso   1.000  Cu
  Cu67     1.0000 0.52581  0.26593  0.86789  Biso   1.000  Cu
  Cu68     1.0000 0.73407  0.25989  0.86789  Biso   1.000  Cu
  Cu69     1.0000 0.74011  0.47419  0.86789  Biso   1.000  Cu
  Cu70     1.0000 0.92655  0.06741  0.46545  Biso   1.000  Cu
  Cu71     1.0000 0.14085  0.07345  0.46545  Biso   1.000  Cu
  Cu72     1.0000 0.93259  0.85915  0.46545  Biso   1.000  Cu
  O253     1.0000 0.15240  0.60670  0.23627  Biso   1.000  O
  O254     1.0000 0.39330  0.54570  0.23627  Biso   1.000  O
  O255     1.0000 0.45430  0.84760  0.23627  Biso   1.000  O
  O256     1.0000 0.54570  0.39330  0.76373  Biso   1.000  O
  O257     1.0000 0.84760  0.45430  0.76373  Biso   1.000  O
  O258     1.0000 0.60670  0.15240  0.76373  Biso   1.000  O
  O259     1.0000 0.81907  0.94003  0.56960  Biso   1.000  O
  O260     1.0000 0.05997  0.87903  0.56960  Biso   1.000  O
  O261     1.0000 0.12097  0.18093  0.56960  Biso   1.000  O
  O262     1.0000 0.21237  0.72663  0.09706  Biso   1.000  O
  O263     1.0000 0.51427  0.78763  0.09706  Biso   1.000  O
  O264     1.0000 0.27337  0.48573  0.09706  Biso   1.000  O
  O265     1.0000 0.48573  0.27337  0.90294  Biso   1.000  O
  O266     1.0000 0.72663  0.21237  0.90294  Biso   1.000  O
  O267     1.0000 0.78763  0.51427  0.90294  Biso   1.000  O
  O268     1.0000 0.87903  0.05997  0.43040  Biso   1.000  O
  O269     1.0000 0.18093  0.12097  0.43040  Biso   1.000  O
  O270     1.0000 0.94003  0.81907  0.43040  Biso   1.000  O
  O271     1.0000 0.22340  0.63210  0.22288  Biso   1.000  O
  O272     1.0000 0.36790  0.59130  0.22288  Biso   1.000  O
  O273     1.0000 0.40870  0.77660  0.22288  Biso   1.000  O
  O274     1.0000 0.59130  0.36790  0.77712  Biso   1.000  O
  O275     1.0000 0.77660  0.40870  0.77712  Biso   1.000  O
  O276     1.0000 0.63210  0.22340  0.77712  Biso   1.000  O
  O277     1.0000 0.89007  0.96543  0.55621  Biso   1.000  O
  O278     1.0000 0.03457  0.92463  0.55621  Biso   1.000  O
  O279     1.0000 0.07537  0.10993  0.55621  Biso   1.000  O
  O280     1.0000 0.25797  0.70123  0.11045  Biso   1.000  O
  O281     1.0000 0.44327  0.74203  0.11045  Biso   1.000  O
  O282     1.0000 0.29877  0.55673  0.11045  Biso   1.000  O
  O283     1.0000 0.55673  0.29877  0.88955  Biso   1.000  O
  O284     1.0000 0.70123  0.25797  0.88955  Biso   1.000  O
  O285     1.0000 0.74203  0.44327  0.88955  Biso   1.000  O
  O286     1.0000 0.92463  0.03457  0.44379  Biso   1.000  O
  O287     1.0000 0.10993  0.07537  0.44379  Biso   1.000  O
  O288     1.0000 0.96543  0.89007  0.44379  Biso   1.000  O
  O289     1.0000 0.43360  0.16390  0.37466  Biso   1.000  O
  O290     1.0000 0.83610  0.26970  0.37466  Biso   1.000  O
  O291     1.0000 0.73030  0.56640  0.37466  Biso   1.000  O
  O292     1.0000 0.26970  0.83610  0.62534  Biso   1.000  O
  O293     1.0000 0.56640  0.73030  0.62534  Biso   1.000  O
  O294     1.0000 0.16390  0.43360  0.62534  Biso   1.000  O
  O295     1.0000 0.10027  0.49723  0.70799  Biso   1.000  O
  O296     1.0000 0.50277  0.60303  0.70799  Biso   1.000  O
  O297     1.0000 0.39697  0.89973  0.70799  Biso   1.000  O
  O298     1.0000 0.93637  0.16943  0.95867  Biso   1.000  O
  O299     1.0000 0.23307  0.06363  0.95867  Biso   1.000  O
  O300     1.0000 0.83057  0.76693  0.95867  Biso   1.000  O
  O301     1.0000 0.76693  0.83057  0.04133  Biso   1.000  O
  O302     1.0000 0.16943  0.93637  0.04133  Biso   1.000  O
  O303     1.0000 0.06363  0.23307  0.04133  Biso   1.000  O
  O304     1.0000 0.60303  0.50277  0.29201  Biso   1.000  O
  O305     1.0000 0.89973  0.39697  0.29201  Biso   1.000  O
  O306     1.0000 0.49723  0.10027  0.29201  Biso   1.000  O
  O307     1.0000 0.50540  0.19150  0.36338  Biso   1.000  O
  O308     1.0000 0.80850  0.31390  0.36338  Biso   1.000  O
  O309     1.0000 0.68610  0.49460  0.36338  Biso   1.000  O
  O310     1.0000 0.31390  0.80850  0.63662  Biso   1.000  O
  O311     1.0000 0.49460  0.68610  0.63662  Biso   1.000  O
  O312     1.0000 0.19150  0.50540  0.63662  Biso   1.000  O
  O313     1.0000 0.17207  0.52483  0.69671  Biso   1.000  O
  O314     1.0000 0.47517  0.64723  0.69671  Biso   1.000  O
  O315     1.0000 0.35277  0.82793  0.69671  Biso   1.000  O
  O316     1.0000 0.98057  0.14183  0.96995  Biso   1.000  O
  O317     1.0000 0.16127  0.01943  0.96995  Biso   1.000  O
  O318     1.0000 0.85817  0.83873  0.96995  Biso   1.000  O
  O319     1.0000 0.83873  0.85817  0.03005  Biso   1.000  O
  O320     1.0000 0.14183  0.98057  0.03005  Biso   1.000  O
  O321     1.0000 0.01943  0.16127  0.03005  Biso   1.000  O
  O322     1.0000 0.64723  0.47517  0.30329  Biso   1.000  O
  O323     1.0000 0.82793  0.35277  0.30329  Biso   1.000  O
  O324     1.0000 0.52483  0.17207  0.30329  Biso   1.000  O
  O325     1.0000 0.25960  0.63660  0.18660  Biso   1.000  O
  O326     1.0000 0.36340  0.62300  0.18660  Biso   1.000  O
  O327     1.0000 0.37700  0.74040  0.18660  Biso   1.000  O
  O328     1.0000 0.62300  0.36340  0.81340  Biso   1.000  O
  O329     1.0000 0.74040  0.37700  0.81340  Biso   1.000  O
  O330     1.0000 0.63660  0.25960  0.81340  Biso   1.000  O
  O331     1.0000 0.92627  0.96993  0.51993  Biso   1.000  O
  O332     1.0000 0.03007  0.95633  0.51993  Biso   1.000  O
  O333     1.0000 0.04367  0.07373  0.51993  Biso   1.000  O
  O334     1.0000 0.28967  0.69673  0.14673  Biso   1.000  O
  O335     1.0000 0.40707  0.71033  0.14673  Biso   1.000  O
  O336     1.0000 0.30327  0.59293  0.14673  Biso   1.000  O
  O337     1.0000 0.59293  0.30327  0.85327  Biso   1.000  O
  O338     1.0000 0.69673  0.28967  0.85327  Biso   1.000  O
  O339     1.0000 0.71033  0.40707  0.85327  Biso   1.000  O
  O340     1.0000 0.95633  0.03007  0.48007  Biso   1.000  O
  O341     1.0000 0.07373  0.04367  0.48007  Biso   1.000  O
  O342     1.0000 0.96993  0.92627  0.48007  Biso   1.000  O
  O343     1.0000 0.04360  0.52280  0.22950  Biso   1.000  O
  O344     1.0000 0.47720  0.52080  0.22950  Biso   1.000  O
  O345     1.0000 0.47920  0.95640  0.22950  Biso   1.000  O
  O346     1.0000 0.52080  0.47720  0.77050  Biso   1.000  O
  O347     1.0000 0.95640  0.47920  0.77050  Biso   1.000  O
  O348     1.0000 0.52280  0.04360  0.77050  Biso   1.000  O
  O349     1.0000 0.71027  0.85613  0.56283  Biso   1.000  O
  O350     1.0000 0.14387  0.85413  0.56283  Biso   1.000  O
  O351     1.0000 0.14587  0.28973  0.56283  Biso   1.000  O
  O352     1.0000 0.18747  0.81053  0.10383  Biso   1.000  O
  O353     1.0000 0.62307  0.81253  0.10383  Biso   1.000  O
  O354     1.0000 0.18947  0.37693  0.10383  Biso   1.000  O
  O355     1.0000 0.37693  0.18947  0.89617  Biso   1.000  O
  O356     1.0000 0.81053  0.18747  0.89617  Biso   1.000  O
  O357     1.0000 0.81253  0.62307  0.89617  Biso   1.000  O
  O358     1.0000 0.85413  0.14387  0.43717  Biso   1.000  O
  O359     1.0000 0.28973  0.14587  0.43717  Biso   1.000  O
  O360     1.0000 0.85613  0.71027  0.43717  Biso   1.000  O
  C2017    1.0000 0.20600  0.66430  0.26400  Biso   1.000  C
  C2018    1.0000 0.33570  0.54170  0.26400  Biso   1.000  C
  C2019    1.0000 0.45830  0.79400  0.26400  Biso   1.000  C
  C2020    1.0000 0.54170  0.33570  0.73600  Biso   1.000  C
  C2021    1.0000 0.79400  0.45830  0.73600  Biso   1.000  C
  C2022    1.0000 0.66430  0.20600  0.73600  Biso   1.000  C
  C2023    1.0000 0.87267  0.99763  0.59733  Biso   1.000  C
  C2024    1.0000 0.00237  0.87503  0.59733  Biso   1.000  C
  C2025    1.0000 0.12497  0.12733  0.59733  Biso   1.000  C
  C2026    1.0000 0.20837  0.66903  0.06933  Biso   1.000  C
  C2027    1.0000 0.46067  0.79163  0.06933  Biso   1.000  C
  C2028    1.0000 0.33097  0.53933  0.06933  Biso   1.000  C
  C2029    1.0000 0.53933  0.33097  0.93067  Biso   1.000  C
  C2030    1.0000 0.66903  0.20837  0.93067  Biso   1.000  C
  C2031    1.0000 0.79163  0.46067  0.93067  Biso   1.000  C
  C2032    1.0000 0.87503  0.00237  0.40267  Biso   1.000  C
  C2033    1.0000 0.12733  0.12497  0.40267  Biso   1.000  C
  C2034    1.0000 0.99763  0.87267  0.40267  Biso   1.000  C
  H1585    1.0000 0.17290  0.64290  0.26520  Biso   1.000  H
  H1586    1.0000 0.35710  0.53000  0.26520  Biso   1.000  H
  H1587    1.0000 0.47000  0.82710  0.26520  Biso   1.000  H
  H1588    1.0000 0.53000  0.35710  0.73480  Biso   1.000  H
  H1589    1.0000 0.82710  0.47000  0.73480  Biso   1.000  H
  H1590    1.0000 0.64290  0.17290  0.73480  Biso   1.000  H
  H1591    1.0000 0.83957  0.97623  0.59853  Biso   1.000  H
  H1592    1.0000 0.02377  0.86333  0.59853  Biso   1.000  H
  H1593    1.0000 0.13667  0.16043  0.59853  Biso   1.000  H
  H1594    1.0000 0.19667  0.69043  0.06813  Biso   1.000  H
  H1595    1.0000 0.49377  0.80333  0.06813  Biso   1.000  H
  H1596    1.0000 0.30957  0.50623  0.06813  Biso   1.000  H
  H1597    1.0000 0.50623  0.30957  0.93187  Biso   1.000  H
  H1598    1.0000 0.69043  0.19667  0.93187  Biso   1.000  H
  H1599    1.0000 0.80333  0.49377  0.93187  Biso   1.000  H
  H1600    1.0000 0.86333  0.02377  0.40147  Biso   1.000  H
  H1601    1.0000 0.16043  0.13667  0.40147  Biso   1.000  H
  H1602    1.0000 0.97623  0.83957  0.40147  Biso   1.000  H
  C2035    1.0000 0.23030  0.66280  0.24969  Biso   1.000  C
  C2036    1.0000 0.33720  0.56750  0.24969  Biso   1.000  C
  C2037    1.0000 0.43250  0.76970  0.24969  Biso   1.000  C
  C2038    1.0000 0.56750  0.33720  0.75031  Biso   1.000  C
  C2039    1.0000 0.76970  0.43250  0.75031  Biso   1.000  C
  C2040    1.0000 0.66280  0.23030  0.75031  Biso   1.000  C
  C2041    1.0000 0.89697  0.99613  0.58302  Biso   1.000  C
  C2042    1.0000 0.00387  0.90083  0.58302  Biso   1.000  C
  C2043    1.0000 0.09917  0.10303  0.58302  Biso   1.000  C
  C2044    1.0000 0.23417  0.67053  0.08364  Biso   1.000  C
  C2045    1.0000 0.43637  0.76583  0.08364  Biso   1.000  C
  C2046    1.0000 0.32947  0.56363  0.08364  Biso   1.000  C
  C2047    1.0000 0.56363  0.32947  0.91636  Biso   1.000  C
  C2048    1.0000 0.67053  0.23417  0.91636  Biso   1.000  C
  C2049    1.0000 0.76583  0.43637  0.91636  Biso   1.000  C
  C2050    1.0000 0.90083  0.00387  0.41698  Biso   1.000  C
  C2051    1.0000 0.10303  0.09917  0.41698  Biso   1.000  C
  C2052    1.0000 0.99613  0.89697  0.41698  Biso   1.000  C
  C2053    1.0000 0.27980  0.69500  0.24798  Biso   1.000  C
  C2054    1.0000 0.30500  0.58480  0.24798  Biso   1.000  C
  C2055    1.0000 0.41520  0.72020  0.24798  Biso   1.000  C
  C2056    1.0000 0.58480  0.30500  0.75202  Biso   1.000  C
  C2057    1.0000 0.72020  0.41520  0.75202  Biso   1.000  C
  C2058    1.0000 0.69500  0.27980  0.75202  Biso   1.000  C
  C2059    1.0000 0.94647  0.02833  0.58131  Biso   1.000  C
  C2060    1.0000 0.97167  0.91813  0.58131  Biso   1.000  C
  C2061    1.0000 0.08187  0.05353  0.58131  Biso   1.000  C
  C2062    1.0000 0.25147  0.63833  0.08535  Biso   1.000  C
  C2063    1.0000 0.38687  0.74853  0.08535  Biso   1.000  C
  C2064    1.0000 0.36167  0.61313  0.08535  Biso   1.000  C
  C2065    1.0000 0.61313  0.36167  0.91465  Biso   1.000  C
  C2066    1.0000 0.63833  0.25147  0.91465  Biso   1.000  C
  C2067    1.0000 0.74853  0.38687  0.91465  Biso   1.000  C
  C2068    1.0000 0.91813  0.97167  0.41869  Biso   1.000  C
  C2069    1.0000 0.05353  0.08187  0.41869  Biso   1.000  C
  C2070    1.0000 0.02833  0.94647  0.41869  Biso   1.000  C
  H1603    1.0000 0.29600  0.69390  0.23840  Biso   1.000  H
  H1604    1.0000 0.30610  0.60210  0.23840  Biso   1.000  H
  H1605    1.0000 0.39790  0.70400  0.23840  Biso   1.000  H
  H1606    1.0000 0.60210  0.30610  0.76160  Biso   1.000  H
  H1607    1.0000 0.70400  0.39790  0.76160  Biso   1.000  H
  H1608    1.0000 0.69390  0.29600  0.76160  Biso   1.000  H
  H1609    1.0000 0.96267  0.02723  0.57173  Biso   1.000  H
  H1610    1.0000 0.97277  0.93543  0.57173  Biso   1.000  H
  H1611    1.0000 0.06457  0.03733  0.57173  Biso   1.000  H
  H1612    1.0000 0.26877  0.63943  0.09493  Biso   1.000  H
  H1613    1.0000 0.37067  0.73123  0.09493  Biso   1.000  H
  H1614    1.0000 0.36057  0.62933  0.09493  Biso   1.000  H
  H1615    1.0000 0.62933  0.36057  0.90507  Biso   1.000  H
  H1616    1.0000 0.63943  0.26877  0.90507  Biso   1.000  H
  H1617    1.0000 0.73123  0.37067  0.90507  Biso   1.000  H
  H1618    1.0000 0.93543  0.97277  0.42827  Biso   1.000  H
  H1619    1.0000 0.03733  0.06457  0.42827  Biso   1.000  H
  H1620    1.0000 0.02723  0.96267  0.42827  Biso   1.000  H
  C2071    1.0000 0.30490  0.72850  0.26060  Biso   1.000  C
  C2072    1.0000 0.27150  0.57640  0.26060  Biso   1.000  C
  C2073    1.0000 0.42360  0.69510  0.26060  Biso   1.000  C
  C2074    1.0000 0.57640  0.27150  0.73940  Biso   1.000  C
  C2075    1.0000 0.69510  0.42360  0.73940  Biso   1.000  C
  C2076    1.0000 0.72850  0.30490  0.73940  Biso   1.000  C
  C2077    1.0000 0.97157  0.06183  0.59393  Biso   1.000  C
  C2078    1.0000 0.93817  0.90973  0.59393  Biso   1.000  C
  C2079    1.0000 0.09027  0.02843  0.59393  Biso   1.000  C
  C2080    1.0000 0.24307  0.60483  0.07273  Biso   1.000  C
  C2081    1.0000 0.36177  0.75693  0.07273  Biso   1.000  C
  C2082    1.0000 0.39517  0.63823  0.07273  Biso   1.000  C
  C2083    1.0000 0.63823  0.39517  0.92727  Biso   1.000  C
  C2084    1.0000 0.60483  0.24307  0.92727  Biso   1.000  C
  C2085    1.0000 0.75693  0.36177  0.92727  Biso   1.000  C
  C2086    1.0000 0.90973  0.93817  0.40607  Biso   1.000  C
  C2087    1.0000 0.02843  0.09027  0.40607  Biso   1.000  C
  C2088    1.0000 0.06183  0.97157  0.40607  Biso   1.000  C
  H1621    1.0000 0.33810  0.75010  0.25950  Biso   1.000  H
  H1622    1.0000 0.24990  0.58800  0.25950  Biso   1.000  H
  H1623    1.0000 0.41200  0.66190  0.25950  Biso   1.000  H
  H1624    1.0000 0.58800  0.24990  0.74050  Biso   1.000  H
  H1625    1.0000 0.66190  0.41200  0.74050  Biso   1.000  H
  H1626    1.0000 0.75010  0.33810  0.74050  Biso   1.000  H
  H1627    1.0000 0.00477  0.08343  0.59283  Biso   1.000  H
  H1628    1.0000 0.91657  0.92133  0.59283  Biso   1.000  H
  H1629    1.0000 0.07867  0.99523  0.59283  Biso   1.000  H
  H1630    1.0000 0.25467  0.58323  0.07383  Biso   1.000  H
  H1631    1.0000 0.32857  0.74533  0.07383  Biso   1.000  H
  H1632    1.0000 0.41677  0.67143  0.07383  Biso   1.000  H
  H1633    1.0000 0.67143  0.41677  0.92617  Biso   1.000  H
  H1634    1.0000 0.58323  0.25467  0.92617  Biso   1.000  H
  H1635    1.0000 0.74533  0.32857  0.92617  Biso   1.000  H
  H1636    1.0000 0.92133  0.91657  0.40717  Biso   1.000  H
  H1637    1.0000 0.99523  0.07867  0.40717  Biso   1.000  H
  H1638    1.0000 0.08343  0.00477  0.40717  Biso   1.000  H
  C2089    1.0000 0.28060  0.73000  0.27490  Biso   1.000  C
  C2090    1.0000 0.27000  0.55060  0.27490  Biso   1.000  C
  C2091    1.0000 0.44940  0.71940  0.27490  Biso   1.000  C
  C2092    1.0000 0.55060  0.27000  0.72510  Biso   1.000  C
  C2093    1.0000 0.71940  0.44940  0.72510  Biso   1.000  C
  C2094    1.0000 0.73000  0.28060  0.72510  Biso   1.000  C
  C2095    1.0000 0.94727  0.06333  0.60823  Biso   1.000  C
  C2096    1.0000 0.93667  0.88393  0.60823  Biso   1.000  C
  C2097    1.0000 0.11607  0.05273  0.60823  Biso   1.000  C
  C2098    1.0000 0.21727  0.60333  0.05843  Biso   1.000  C
  C2099    1.0000 0.38607  0.78273  0.05843  Biso   1.000  C
  C2100    1.0000 0.39667  0.61393  0.05843  Biso   1.000  C
  C2101    1.0000 0.61393  0.39667  0.94157  Biso   1.000  C
  C2102    1.0000 0.60333  0.21727  0.94157  Biso   1.000  C
  C2103    1.0000 0.78273  0.38607  0.94157  Biso   1.000  C
  C2104    1.0000 0.88393  0.93667  0.39177  Biso   1.000  C
  C2105    1.0000 0.05273  0.11607  0.39177  Biso   1.000  C
  C2106    1.0000 0.06333  0.94727  0.39177  Biso   1.000  C
  C2107    1.0000 0.23110  0.69790  0.27660  Biso   1.000  C
  C2108    1.0000 0.30210  0.53320  0.27660  Biso   1.000  C
  C2109    1.0000 0.46680  0.76890  0.27660  Biso   1.000  C
  C2110    1.0000 0.53320  0.30210  0.72340  Biso   1.000  C
  C2111    1.0000 0.76890  0.46680  0.72340  Biso   1.000  C
  C2112    1.0000 0.69790  0.23110  0.72340  Biso   1.000  C
  C2113    1.0000 0.89777  0.03123  0.60993  Biso   1.000  C
  C2114    1.0000 0.96877  0.86653  0.60993  Biso   1.000  C
  C2115    1.0000 0.13347  0.10223  0.60993  Biso   1.000  C
  C2116    1.0000 0.19987  0.63543  0.05673  Biso   1.000  C
  C2117    1.0000 0.43557  0.80013  0.05673  Biso   1.000  C
  C2118    1.0000 0.36457  0.56443  0.05673  Biso   1.000  C
  C2119    1.0000 0.56443  0.36457  0.94327  Biso   1.000  C
  C2120    1.0000 0.63543  0.19987  0.94327  Biso   1.000  C
  C2121    1.0000 0.80013  0.43557  0.94327  Biso   1.000  C
  C2122    1.0000 0.86653  0.96877  0.39007  Biso   1.000  C
  C2123    1.0000 0.10223  0.13347  0.39007  Biso   1.000  C
  C2124    1.0000 0.03123  0.89777  0.39007  Biso   1.000  C
  H1639    1.0000 0.21490  0.69890  0.28620  Biso   1.000  H
  H1640    1.0000 0.30110  0.51600  0.28620  Biso   1.000  H
  H1641    1.0000 0.48400  0.78510  0.28620  Biso   1.000  H
  H1642    1.0000 0.51600  0.30110  0.71380  Biso   1.000  H
  H1643    1.0000 0.78510  0.48400  0.71380  Biso   1.000  H
  H1644    1.0000 0.69890  0.21490  0.71380  Biso   1.000  H
  H1645    1.0000 0.88157  0.03223  0.61953  Biso   1.000  H
  H1646    1.0000 0.96777  0.84933  0.61953  Biso   1.000  H
  H1647    1.0000 0.15067  0.11843  0.61953  Biso   1.000  H
  H1648    1.0000 0.18267  0.63443  0.04713  Biso   1.000  H
  H1649    1.0000 0.45177  0.81733  0.04713  Biso   1.000  H
  H1650    1.0000 0.36557  0.54823  0.04713  Biso   1.000  H
  H1651    1.0000 0.54823  0.36557  0.95287  Biso   1.000  H
  H1652    1.0000 0.63443  0.18267  0.95287  Biso   1.000  H
  H1653    1.0000 0.81733  0.45177  0.95287  Biso   1.000  H
  H1654    1.0000 0.84933  0.96777  0.38047  Biso   1.000  H
  H1655    1.0000 0.11843  0.15067  0.38047  Biso   1.000  H
  H1656    1.0000 0.03223  0.88157  0.38047  Biso   1.000  H
  C2125    1.0000 0.19450  0.63080  0.23540  Biso   1.000  C
  C2126    1.0000 0.36920  0.56370  0.23540  Biso   1.000  C
  C2127    1.0000 0.43630  0.80550  0.23540  Biso   1.000  C
  C2128    1.0000 0.56370  0.36920  0.76460  Biso   1.000  C
  C2129    1.0000 0.80550  0.43630  0.76460  Biso   1.000  C
  C2130    1.0000 0.63080  0.19450  0.76460  Biso   1.000  C
  C2131    1.0000 0.86117  0.96413  0.56873  Biso   1.000  C
  C2132    1.0000 0.03587  0.89703  0.56873  Biso   1.000  C
  C2133    1.0000 0.10297  0.13883  0.56873  Biso   1.000  C
  C2134    1.0000 0.23037  0.70253  0.09793  Biso   1.000  C
  C2135    1.0000 0.47217  0.76963  0.09793  Biso   1.000  C
  C2136    1.0000 0.29747  0.52783  0.09793  Biso   1.000  C
  C2137    1.0000 0.52783  0.29747  0.90207  Biso   1.000  C
  C2138    1.0000 0.70253  0.23037  0.90207  Biso   1.000  C
  C2139    1.0000 0.76963  0.47217  0.90207  Biso   1.000  C
  C2140    1.0000 0.89703  0.03587  0.43127  Biso   1.000  C
  C2141    1.0000 0.13883  0.10297  0.43127  Biso   1.000  C
  C2142    1.0000 0.96413  0.86117  0.43127  Biso   1.000  C
  C2143    1.0000 0.30470  0.86530  0.31670  Biso   1.000  C
  C2144    1.0000 0.13470  0.43940  0.31670  Biso   1.000  C
  C2145    1.0000 0.56060  0.69530  0.31670  Biso   1.000  C
  C2146    1.0000 0.43940  0.13470  0.68330  Biso   1.000  C
  C2147    1.0000 0.69530  0.56060  0.68330  Biso   1.000  C
  C2148    1.0000 0.86530  0.30470  0.68330  Biso   1.000  C
  C2149    1.0000 0.97137  0.19863  0.65003  Biso   1.000  C
  C2150    1.0000 0.80137  0.77273  0.65003  Biso   1.000  C
  C2151    1.0000 0.22727  0.02863  0.65003  Biso   1.000  C
  C2152    1.0000 0.10607  0.46803  0.01663  Biso   1.000  C
  C2153    1.0000 0.36197  0.89393  0.01663  Biso   1.000  C
  C2154    1.0000 0.53197  0.63803  0.01663  Biso   1.000  C
  C2155    1.0000 0.63803  0.53197  0.98337  Biso   1.000  C
  C2156    1.0000 0.46803  0.10607  0.98337  Biso   1.000  C
  C2157    1.0000 0.89393  0.36197  0.98337  Biso   1.000  C
  C2158    1.0000 0.77273  0.80137  0.34997  Biso   1.000  C
  C2159    1.0000 0.02863  0.22727  0.34997  Biso   1.000  C
  C2160    1.0000 0.19863  0.97137  0.34997  Biso   1.000  C
  C2161    1.0000 0.46430  0.15410  0.36550  Biso   1.000  C
  C2162    1.0000 0.84590  0.31020  0.36550  Biso   1.000  C
  C2163    1.0000 0.68980  0.53570  0.36550  Biso   1.000  C
  C2164    1.0000 0.31020  0.84590  0.63450  Biso   1.000  C
  C2165    1.0000 0.53570  0.68980  0.63450  Biso   1.000  C
  C2166    1.0000 0.15410  0.46430  0.63450  Biso   1.000  C
  C2167    1.0000 0.13097  0.48743  0.69883  Biso   1.000  C
  C2168    1.0000 0.51257  0.64353  0.69883  Biso   1.000  C
  C2169    1.0000 0.35647  0.86903  0.69883  Biso   1.000  C
  C2170    1.0000 0.97687  0.17923  0.96783  Biso   1.000  C
  C2171    1.0000 0.20237  0.02313  0.96783  Biso   1.000  C
  C2172    1.0000 0.82077  0.79763  0.96783  Biso   1.000  C
  C2173    1.0000 0.79763  0.82077  0.03217  Biso   1.000  C
  C2174    1.0000 0.17923  0.97687  0.03217  Biso   1.000  C
  C2175    1.0000 0.02313  0.20237  0.03217  Biso   1.000  C
  C2176    1.0000 0.64353  0.51257  0.30117  Biso   1.000  C
  C2177    1.0000 0.86903  0.35647  0.30117  Biso   1.000  C
  C2178    1.0000 0.48743  0.13097  0.30117  Biso   1.000  C
  C2179    1.0000 0.45100  0.11090  0.35965  Biso   1.000  C
  C2180    1.0000 0.88910  0.34010  0.35965  Biso   1.000  C
  C2181    1.0000 0.65990  0.54900  0.35965  Biso   1.000  C
  C2182    1.0000 0.34010  0.88910  0.64035  Biso   1.000  C
  C2183    1.0000 0.54900  0.65990  0.64035  Biso   1.000  C
  C2184    1.0000 0.11090  0.45100  0.64035  Biso   1.000  C
  C2185    1.0000 0.11767  0.44423  0.69298  Biso   1.000  C
  C2186    1.0000 0.55577  0.67343  0.69298  Biso   1.000  C
  C2187    1.0000 0.32657  0.88233  0.69298  Biso   1.000  C
  C2188    1.0000 0.00677  0.22243  0.97368  Biso   1.000  C
  C2189    1.0000 0.21567  0.99323  0.97368  Biso   1.000  C
  C2190    1.0000 0.77757  0.78433  0.97368  Biso   1.000  C
  C2191    1.0000 0.78433  0.77757  0.02632  Biso   1.000  C
  C2192    1.0000 0.22243  0.00677  0.02632  Biso   1.000  C
  C2193    1.0000 0.99323  0.21567  0.02632  Biso   1.000  C
  C2194    1.0000 0.67343  0.55577  0.30702  Biso   1.000  C
  C2195    1.0000 0.88233  0.32657  0.30702  Biso   1.000  C
  C2196    1.0000 0.44423  0.11767  0.30702  Biso   1.000  C
  C2197    1.0000 0.48330  0.10620  0.34910  Biso   1.000  C
  C2198    1.0000 0.89380  0.37710  0.34910  Biso   1.000  C
  C2199    1.0000 0.62290  0.51670  0.34910  Biso   1.000  C
  C2200    1.0000 0.37710  0.89380  0.65090  Biso   1.000  C
  C2201    1.0000 0.51670  0.62290  0.65090  Biso   1.000  C
  C2202    1.0000 0.10620  0.48330  0.65090  Biso   1.000  C
  C2203    1.0000 0.14997  0.43953  0.68243  Biso   1.000  C
  C2204    1.0000 0.56047  0.71043  0.68243  Biso   1.000  C
  C2205    1.0000 0.28957  0.85003  0.68243  Biso   1.000  C
  C2206    1.0000 0.04377  0.22713  0.98423  Biso   1.000  C
  C2207    1.0000 0.18337  0.95623  0.98423  Biso   1.000  C
  C2208    1.0000 0.77287  0.81663  0.98423  Biso   1.000  C
  C2209    1.0000 0.81663  0.77287  0.01577  Biso   1.000  C
  C2210    1.0000 0.22713  0.04377  0.01577  Biso   1.000  C
  C2211    1.0000 0.95623  0.18337  0.01577  Biso   1.000  C
  C2212    1.0000 0.71043  0.56047  0.31757  Biso   1.000  C
  C2213    1.0000 0.85003  0.28957  0.31757  Biso   1.000  C
  C2214    1.0000 0.43953  0.14997  0.31757  Biso   1.000  C
  H1657    1.0000 0.51410  0.13270  0.34720  Biso   1.000  H
  H1658    1.0000 0.86730  0.38140  0.34720  Biso   1.000  H
  H1659    1.0000 0.61860  0.48590  0.34720  Biso   1.000  H
  H1660    1.0000 0.38140  0.86730  0.65280  Biso   1.000  H
  H1661    1.0000 0.48590  0.61860  0.65280  Biso   1.000  H
  H1662    1.0000 0.13270  0.51410  0.65280  Biso   1.000  H
  H1663    1.0000 0.18077  0.46603  0.68053  Biso   1.000  H
  H1664    1.0000 0.53397  0.71473  0.68053  Biso   1.000  H
  H1665    1.0000 0.28527  0.81923  0.68053  Biso   1.000  H
  H1666    1.0000 0.04807  0.20063  0.98613  Biso   1.000  H
  H1667    1.0000 0.15257  0.95193  0.98613  Biso   1.000  H
  H1668    1.0000 0.79937  0.84743  0.98613  Biso   1.000  H
  H1669    1.0000 0.84743  0.79937  0.01387  Biso   1.000  H
  H1670    1.0000 0.20063  0.04807  0.01387  Biso   1.000  H
  H1671    1.0000 0.95193  0.15257  0.01387  Biso   1.000  H
  H1672    1.0000 0.71473  0.53397  0.31947  Biso   1.000  H
  H1673    1.0000 0.81923  0.28527  0.31947  Biso   1.000  H
  H1674    1.0000 0.46603  0.18077  0.31947  Biso   1.000  H
  C2215    1.0000 0.46960  0.06210  0.34133  Biso   1.000  C
  C2216    1.0000 0.93790  0.40750  0.34133  Biso   1.000  C
  C2217    1.0000 0.59250  0.53040  0.34133  Biso   1.000  C
  C2218    1.0000 0.40750  0.93790  0.65867  Biso   1.000  C
  C2219    1.0000 0.53040  0.59250  0.65867  Biso   1.000  C
  C2220    1.0000 0.06210  0.46960  0.65867  Biso   1.000  C
  C2221    1.0000 0.13627  0.39543  0.67466  Biso   1.000  C
  C2222    1.0000 0.60457  0.74083  0.67466  Biso   1.000  C
  C2223    1.0000 0.25917  0.86373  0.67466  Biso   1.000  C
  C2224    1.0000 0.07417  0.27123  0.99200  Biso   1.000  C
  C2225    1.0000 0.19707  0.92583  0.99200  Biso   1.000  C
  C2226    1.0000 0.72877  0.80293  0.99200  Biso   1.000  C
  C2227    1.0000 0.80293  0.72877  0.00800  Biso   1.000  C
  C2228    1.0000 0.27123  0.07417  0.00800  Biso   1.000  C
  C2229    1.0000 0.92583  0.19707  0.00800  Biso   1.000  C
  C2230    1.0000 0.74083  0.60457  0.32534  Biso   1.000  C
  C2231    1.0000 0.86373  0.25917  0.32534  Biso   1.000  C
  C2232    1.0000 0.39543  0.13627  0.32534  Biso   1.000  C
  H1675    1.0000 0.49120  0.05900  0.33430  Biso   1.000  H
  H1676    1.0000 0.94100  0.43220  0.33430  Biso   1.000  H
  H1677    1.0000 0.56780  0.50880  0.33430  Biso   1.000  H
  H1678    1.0000 0.43220  0.94100  0.66570  Biso   1.000  H
  H1679    1.0000 0.50880  0.56780  0.66570  Biso   1.000  H
  H1680    1.0000 0.05900  0.49120  0.66570  Biso   1.000  H
  H1681    1.0000 0.15787  0.39233  0.66763  Biso   1.000  H
  H1682    1.0000 0.60767  0.76553  0.66763  Biso   1.000  H
  H1683    1.0000 0.23447  0.84213  0.66763  Biso   1.000  H
  H1684    1.0000 0.09887  0.27433  0.99903  Biso   1.000  H
  H1685    1.0000 0.17547  0.90113  0.99903  Biso   1.000  H
  H1686    1.0000 0.72567  0.82453  0.99903  Biso   1.000  H
  H1687    1.0000 0.82453  0.72567  0.00097  Biso   1.000  H
  H1688    1.0000 0.27433  0.09887  0.00097  Biso   1.000  H
  H1689    1.0000 0.90113  0.17547  0.00097  Biso   1.000  H
  H1690    1.0000 0.76553  0.60767  0.33237  Biso   1.000  H
  H1691    1.0000 0.84213  0.23447  0.33237  Biso   1.000  H
  H1692    1.0000 0.39233  0.15787  0.33237  Biso   1.000  H
  C2233    1.0000 0.42350  0.02260  0.34411  Biso   1.000  C
  C2234    1.0000 0.97740  0.40090  0.34411  Biso   1.000  C
  C2235    1.0000 0.59910  0.57650  0.34411  Biso   1.000  C
  C2236    1.0000 0.40090  0.97740  0.65589  Biso   1.000  C
  C2237    1.0000 0.57650  0.59910  0.65589  Biso   1.000  C
  C2238    1.0000 0.02260  0.42350  0.65589  Biso   1.000  C
  C2239    1.0000 0.09017  0.35593  0.67744  Biso   1.000  C
  C2240    1.0000 0.64407  0.73423  0.67744  Biso   1.000  C
  C2241    1.0000 0.26577  0.90983  0.67744  Biso   1.000  C
  C2242    1.0000 0.06757  0.31073  0.98922  Biso   1.000  C
  C2243    1.0000 0.24317  0.93243  0.98922  Biso   1.000  C
  C2244    1.0000 0.68927  0.75683  0.98922  Biso   1.000  C
  C2245    1.0000 0.75683  0.68927  0.01078  Biso   1.000  C
  C2246    1.0000 0.31073  0.06757  0.01078  Biso   1.000  C
  C2247    1.0000 0.93243  0.24317  0.01078  Biso   1.000  C
  C2248    1.0000 0.73423  0.64407  0.32256  Biso   1.000  C
  C2249    1.0000 0.90983  0.26577  0.32256  Biso   1.000  C
  C2250    1.0000 0.35593  0.09017  0.32256  Biso   1.000  C
  C2251    1.0000 0.39120  0.02720  0.35465  Biso   1.000  C
  C2252    1.0000 0.97280  0.36400  0.35465  Biso   1.000  C
  C2253    1.0000 0.63600  0.60880  0.35465  Biso   1.000  C
  C2254    1.0000 0.36400  0.97280  0.64535  Biso   1.000  C
  C2255    1.0000 0.60880  0.63600  0.64535  Biso   1.000  C
  C2256    1.0000 0.02720  0.39120  0.64535  Biso   1.000  C
  C2257    1.0000 0.05787  0.36053  0.68798  Biso   1.000  C
  C2258    1.0000 0.63947  0.69733  0.68798  Biso   1.000  C
  C2259    1.0000 0.30267  0.94213  0.68798  Biso   1.000  C
  C2260    1.0000 0.03067  0.30613  0.97868  Biso   1.000  C
  C2261    1.0000 0.27547  0.96933  0.97868  Biso   1.000  C
  C2262    1.0000 0.69387  0.72453  0.97868  Biso   1.000  C
  C2263    1.0000 0.72453  0.69387  0.02132  Biso   1.000  C
  C2264    1.0000 0.30613  0.03067  0.02132  Biso   1.000  C
  C2265    1.0000 0.96933  0.27547  0.02132  Biso   1.000  C
  C2266    1.0000 0.69733  0.63947  0.31202  Biso   1.000  C
  C2267    1.0000 0.94213  0.30267  0.31202  Biso   1.000  C
  C2268    1.0000 0.36053  0.05787  0.31202  Biso   1.000  C
  H1693    1.0000 0.36040  0.00080  0.35650  Biso   1.000  H
  H1694    1.0000 0.99920  0.35960  0.35650  Biso   1.000  H
  H1695    1.0000 0.64040  0.63960  0.35650  Biso   1.000  H
  H1696    1.0000 0.35960  0.99920  0.64350  Biso   1.000  H
  H1697    1.0000 0.63960  0.64040  0.64350  Biso   1.000  H
  H1698    1.0000 0.00080  0.36040  0.64350  Biso   1.000  H
  H1699    1.0000 0.02707  0.33413  0.68983  Biso   1.000  H
  H1700    1.0000 0.66587  0.69293  0.68983  Biso   1.000  H
  H1701    1.0000 0.30707  0.97293  0.68983  Biso   1.000  H
  H1702    1.0000 0.02627  0.33253  0.97683  Biso   1.000  H
  H1703    1.0000 0.30627  0.97373  0.97683  Biso   1.000  H
  H1704    1.0000 0.66747  0.69373  0.97683  Biso   1.000  H
  H1705    1.0000 0.69373  0.66747  0.02317  Biso   1.000  H
  H1706    1.0000 0.33253  0.02627  0.02317  Biso   1.000  H
  H1707    1.0000 0.97373  0.30627  0.02317  Biso   1.000  H
  H1708    1.0000 0.69293  0.66587  0.31017  Biso   1.000  H
  H1709    1.0000 0.97293  0.30707  0.31017  Biso   1.000  H
  H1710    1.0000 0.33413  0.02707  0.31017  Biso   1.000  H
  C2269    1.0000 0.40500  0.07140  0.36242  Biso   1.000  C
  C2270    1.0000 0.92860  0.33360  0.36242  Biso   1.000  C
  C2271    1.0000 0.66640  0.59500  0.36242  Biso   1.000  C
  C2272    1.0000 0.33360  0.92860  0.63758  Biso   1.000  C
  C2273    1.0000 0.59500  0.66640  0.63758  Biso   1.000  C
  C2274    1.0000 0.07140  0.40500  0.63758  Biso   1.000  C
  C2275    1.0000 0.07167  0.40473  0.69575  Biso   1.000  C
  C2276    1.0000 0.59527  0.66693  0.69575  Biso   1.000  C
  C2277    1.0000 0.33307  0.92833  0.69575  Biso   1.000  C
  C2278    1.0000 0.00027  0.26193  0.97091  Biso   1.000  C
  C2279    1.0000 0.26167  0.99973  0.97091  Biso   1.000  C
  C2280    1.0000 0.73807  0.73833  0.97091  Biso   1.000  C
  C2281    1.0000 0.73833  0.73807  0.02909  Biso   1.000  C
  C2282    1.0000 0.26193  0.00027  0.02909  Biso   1.000  C
  C2283    1.0000 0.99973  0.26167  0.02909  Biso   1.000  C
  C2284    1.0000 0.66693  0.59527  0.30425  Biso   1.000  C
  C2285    1.0000 0.92833  0.33307  0.30425  Biso   1.000  C
  C2286    1.0000 0.40473  0.07167  0.30425  Biso   1.000  C
  H1711    1.0000 0.38340  0.07450  0.36950  Biso   1.000  H
  H1712    1.0000 0.92550  0.30890  0.36950  Biso   1.000  H
  H1713    1.0000 0.69110  0.61660  0.36950  Biso   1.000  H
  H1714    1.0000 0.30890  0.92550  0.63050  Biso   1.000  H
  H1715    1.0000 0.61660  0.69110  0.63050  Biso   1.000  H
  H1716    1.0000 0.07450  0.38340  0.63050  Biso   1.000  H
  H1717    1.0000 0.05007  0.40783  0.70283  Biso   1.000  H
  H1718    1.0000 0.59217  0.64223  0.70283  Biso   1.000  H
  H1719    1.0000 0.35777  0.94993  0.70283  Biso   1.000  H
  H1720    1.0000 0.97557  0.25883  0.96383  Biso   1.000  H
  H1721    1.0000 0.28327  0.02443  0.96383  Biso   1.000  H
  H1722    1.0000 0.74117  0.71673  0.96383  Biso   1.000  H
  H1723    1.0000 0.71673  0.74117  0.03617  Biso   1.000  H
  H1724    1.0000 0.25883  0.97557  0.03617  Biso   1.000  H
  H1725    1.0000 0.02443  0.28327  0.03617  Biso   1.000  H
  H1726    1.0000 0.64223  0.59217  0.29717  Biso   1.000  H
  H1727    1.0000 0.94993  0.35777  0.29717  Biso   1.000  H
  H1728    1.0000 0.40783  0.05007  0.29717  Biso   1.000  H
  C2287    1.0000 0.36120  0.94160  0.33178  Biso   1.000  C
  C2288    1.0000 0.05840  0.41960  0.33178  Biso   1.000  C
  C2289    1.0000 0.58040  0.63880  0.33178  Biso   1.000  C
  C2290    1.0000 0.41960  0.05840  0.66822  Biso   1.000  C
  C2291    1.0000 0.63880  0.58040  0.66822  Biso   1.000  C
  C2292    1.0000 0.94160  0.36120  0.66822  Biso   1.000  C
  C2293    1.0000 0.02787  0.27493  0.66511  Biso   1.000  C
  C2294    1.0000 0.72507  0.75293  0.66511  Biso   1.000  C
  C2295    1.0000 0.24707  0.97213  0.66511  Biso   1.000  C
  C2296    1.0000 0.08627  0.39173  0.00155  Biso   1.000  C
  C2297    1.0000 0.30547  0.91373  0.00155  Biso   1.000  C
  C2298    1.0000 0.60827  0.69453  0.00155  Biso   1.000  C
  C2299    1.0000 0.69453  0.60827  0.99845  Biso   1.000  C
  C2300    1.0000 0.39173  0.08627  0.99845  Biso   1.000  C
  C2301    1.0000 0.91373  0.30547  0.99845  Biso   1.000  C
  C2302    1.0000 0.75293  0.72507  0.33489  Biso   1.000  C
  C2303    1.0000 0.97213  0.24707  0.33489  Biso   1.000  C
  C2304    1.0000 0.27493  0.02787  0.33489  Biso   1.000  C
  H1729    1.0000 0.33710  0.94910  0.33420  Biso   1.000  H
  H1730    1.0000 0.05090  0.38800  0.33420  Biso   1.000  H
  H1731    1.0000 0.61200  0.66290  0.33420  Biso   1.000  H
  H1732    1.0000 0.38800  0.05090  0.66580  Biso   1.000  H
  H1733    1.0000 0.66290  0.61200  0.66580  Biso   1.000  H
  H1734    1.0000 0.94910  0.33710  0.66580  Biso   1.000  H
  H1735    1.0000 0.00377  0.28243  0.66753  Biso   1.000  H
  H1736    1.0000 0.71757  0.72133  0.66753  Biso   1.000  H
  H1737    1.0000 0.27867  0.99623  0.66753  Biso   1.000  H
  H1738    1.0000 0.05467  0.38423  0.99913  Biso   1.000  H
  H1739    1.0000 0.32957  0.94533  0.99913  Biso   1.000  H
  H1740    1.0000 0.61577  0.67043  0.99913  Biso   1.000  H
  H1741    1.0000 0.67043  0.61577  0.00087  Biso   1.000  H
  H1742    1.0000 0.38423  0.05467  0.00087  Biso   1.000  H
  H1743    1.0000 0.94533  0.32957  0.00087  Biso   1.000  H
  H1744    1.0000 0.72133  0.71757  0.33247  Biso   1.000  H
  H1745    1.0000 0.99623  0.27867  0.33247  Biso   1.000  H
  H1746    1.0000 0.28243  0.00377  0.33247  Biso   1.000  H
  C2305    1.0000 0.35010  0.90010  0.32258  Biso   1.000  C
  C2306    1.0000 0.09990  0.45000  0.32258  Biso   1.000  C
  C2307    1.0000 0.55000  0.64990  0.32258  Biso   1.000  C
  C2308    1.0000 0.45000  0.09990  0.67742  Biso   1.000  C
  C2309    1.0000 0.64990  0.55000  0.67742  Biso   1.000  C
  C2310    1.0000 0.90010  0.35010  0.67742  Biso   1.000  C
  C2311    1.0000 0.01677  0.23343  0.65591  Biso   1.000  C
  C2312    1.0000 0.76657  0.78333  0.65591  Biso   1.000  C
  C2313    1.0000 0.21667  0.98323  0.65591  Biso   1.000  C
  C2314    1.0000 0.11667  0.43323  0.01075  Biso   1.000  C
  C2315    1.0000 0.31657  0.88333  0.01075  Biso   1.000  C
  C2316    1.0000 0.56677  0.68343  0.01075  Biso   1.000  C
  C2317    1.0000 0.68343  0.56677  0.98925  Biso   1.000  C
  C2318    1.0000 0.43323  0.11667  0.98925  Biso   1.000  C
  C2319    1.0000 0.88333  0.31657  0.98925  Biso   1.000  C
  C2320    1.0000 0.78333  0.76657  0.34409  Biso   1.000  C
  C2321    1.0000 0.98323  0.21667  0.34409  Biso   1.000  C
  C2322    1.0000 0.23343  0.01677  0.34409  Biso   1.000  C
  C2323    1.0000 0.38620  0.88900  0.31895  Biso   1.000  C
  C2324    1.0000 0.11100  0.49720  0.31895  Biso   1.000  C
  C2325    1.0000 0.50280  0.61380  0.31895  Biso   1.000  C
  C2326    1.0000 0.49720  0.11100  0.68105  Biso   1.000  C
  C2327    1.0000 0.61380  0.50280  0.68105  Biso   1.000  C
  C2328    1.0000 0.88900  0.38620  0.68105  Biso   1.000  C
  C2329    1.0000 0.05287  0.22233  0.65228  Biso   1.000  C
  C2330    1.0000 0.77767  0.83053  0.65228  Biso   1.000  C
  C2331    1.0000 0.16947  0.94713  0.65228  Biso   1.000  C
  C2332    1.0000 0.16387  0.44433  0.01438  Biso   1.000  C
  C2333    1.0000 0.28047  0.83613  0.01438  Biso   1.000  C
  C2334    1.0000 0.55567  0.71953  0.01438  Biso   1.000  C
  C2335    1.0000 0.71953  0.55567  0.98562  Biso   1.000  C
  C2336    1.0000 0.44433  0.16387  0.98562  Biso   1.000  C
  C2337    1.0000 0.83613  0.28047  0.98562  Biso   1.000  C
  C2338    1.0000 0.83053  0.77767  0.34772  Biso   1.000  C
  C2339    1.0000 0.94713  0.16947  0.34772  Biso   1.000  C
  C2340    1.0000 0.22233  0.05287  0.34772  Biso   1.000  C
  C2341    1.0000 0.43340  0.91940  0.32460  Biso   1.000  C
  C2342    1.0000 0.08060  0.51400  0.32460  Biso   1.000  C
  C2343    1.0000 0.48600  0.56660  0.32460  Biso   1.000  C
  C2344    1.0000 0.51400  0.08060  0.67540  Biso   1.000  C
  C2345    1.0000 0.56660  0.48600  0.67540  Biso   1.000  C
  C2346    1.0000 0.91940  0.43340  0.67540  Biso   1.000  C
  C2347    1.0000 0.10007  0.25273  0.65793  Biso   1.000  C
  C2348    1.0000 0.74727  0.84733  0.65793  Biso   1.000  C
  C2349    1.0000 0.15267  0.89993  0.65793  Biso   1.000  C
  C2350    1.0000 0.18067  0.41393  0.00873  Biso   1.000  C
  C2351    1.0000 0.23327  0.81933  0.00873  Biso   1.000  C
  C2352    1.0000 0.58607  0.76673  0.00873  Biso   1.000  C
  C2353    1.0000 0.76673  0.58607  0.99127  Biso   1.000  C
  C2354    1.0000 0.41393  0.18067  0.99127  Biso   1.000  C
  C2355    1.0000 0.81933  0.23327  0.99127  Biso   1.000  C
  C2356    1.0000 0.84733  0.74727  0.34207  Biso   1.000  C
  C2357    1.0000 0.89993  0.15267  0.34207  Biso   1.000  C
  C2358    1.0000 0.25273  0.10007  0.34207  Biso   1.000  C
  H1747    1.0000 0.45760  0.91200  0.32210  Biso   1.000  H
  H1748    1.0000 0.08800  0.54560  0.32210  Biso   1.000  H
  H1749    1.0000 0.45440  0.54240  0.32210  Biso   1.000  H
  H1750    1.0000 0.54560  0.08800  0.67790  Biso   1.000  H
  H1751    1.0000 0.54240  0.45440  0.67790  Biso   1.000  H
  H1752    1.0000 0.91200  0.45760  0.67790  Biso   1.000  H
  H1753    1.0000 0.12427  0.24533  0.65543  Biso   1.000  H
  H1754    1.0000 0.75467  0.87893  0.65543  Biso   1.000  H
  H1755    1.0000 0.12107  0.87573  0.65543  Biso   1.000  H
  H1756    1.0000 0.21227  0.42133  0.01123  Biso   1.000  H
  H1757    1.0000 0.20907  0.78773  0.01123  Biso   1.000  H
  H1758    1.0000 0.57867  0.79093  0.01123  Biso   1.000  H
  H1759    1.0000 0.79093  0.57867  0.98877  Biso   1.000  H
  H1760    1.0000 0.42133  0.21227  0.98877  Biso   1.000  H
  H1761    1.0000 0.78773  0.20907  0.98877  Biso   1.000  H
  H1762    1.0000 0.87893  0.75467  0.34457  Biso   1.000  H
  H1763    1.0000 0.87573  0.12107  0.34457  Biso   1.000  H
  H1764    1.0000 0.24533  0.12427  0.34457  Biso   1.000  H
  C2359    1.0000 0.44450  0.96080  0.33380  Biso   1.000  C
  C2360    1.0000 0.03920  0.48370  0.33380  Biso   1.000  C
  C2361    1.0000 0.51630  0.55550  0.33380  Biso   1.000  C
  C2362    1.0000 0.48370  0.03920  0.66620  Biso   1.000  C
  C2363    1.0000 0.55550  0.51630  0.66620  Biso   1.000  C
  C2364    1.0000 0.96080  0.44450  0.66620  Biso   1.000  C
  C2365    1.0000 0.11117  0.29413  0.66713  Biso   1.000  C
  C2366    1.0000 0.70587  0.81703  0.66713  Biso   1.000  C
  C2367    1.0000 0.18297  0.88883  0.66713  Biso   1.000  C
  C2368    1.0000 0.15037  0.37253  0.99953  Biso   1.000  C
  C2369    1.0000 0.22217  0.84963  0.99953  Biso   1.000  C
  C2370    1.0000 0.62747  0.77783  0.99953  Biso   1.000  C
  C2371    1.0000 0.77783  0.62747  0.00047  Biso   1.000  C
  C2372    1.0000 0.37253  0.15037  0.00047  Biso   1.000  C
  C2373    1.0000 0.84963  0.22217  0.00047  Biso   1.000  C
  C2374    1.0000 0.81703  0.70587  0.33287  Biso   1.000  C
  C2375    1.0000 0.88883  0.18297  0.33287  Biso   1.000  C
  C2376    1.0000 0.29413  0.11117  0.33287  Biso   1.000  C
  H1765    1.0000 0.47610  0.98120  0.33750  Biso   1.000  H
  H1766    1.0000 0.01880  0.49490  0.33750  Biso   1.000  H
  H1767    1.0000 0.50510  0.52390  0.33750  Biso   1.000  H
  H1768    1.0000 0.49490  0.01880  0.66250  Biso   1.000  H
  H1769    1.0000 0.52390  0.50510  0.66250  Biso   1.000  H
  H1770    1.0000 0.98120  0.47610  0.66250  Biso   1.000  H
  H1771    1.0000 0.14277  0.31453  0.67083  Biso   1.000  H
  H1772    1.0000 0.68547  0.82823  0.67083  Biso   1.000  H
  H1773    1.0000 0.17177  0.85723  0.67083  Biso   1.000  H
  H1774    1.0000 0.16157  0.35213  0.99583  Biso   1.000  H
  H1775    1.0000 0.19057  0.83843  0.99583  Biso   1.000  H
  H1776    1.0000 0.64787  0.80943  0.99583  Biso   1.000  H
  H1777    1.0000 0.80943  0.64787  0.00417  Biso   1.000  H
  H1778    1.0000 0.35213  0.16157  0.00417  Biso   1.000  H
  H1779    1.0000 0.83843  0.19057  0.00417  Biso   1.000  H
  H1780    1.0000 0.82823  0.68547  0.32917  Biso   1.000  H
  H1781    1.0000 0.85723  0.17177  0.32917  Biso   1.000  H
  H1782    1.0000 0.31453  0.14277  0.32917  Biso   1.000  H
  C2377    1.0000 0.40840  0.97190  0.33735  Biso   1.000  C
  C2378    1.0000 0.02810  0.43650  0.33735  Biso   1.000  C
  C2379    1.0000 0.56350  0.59160  0.33735  Biso   1.000  C
  C2380    1.0000 0.43650  0.02810  0.66265  Biso   1.000  C
  C2381    1.0000 0.59160  0.56350  0.66265  Biso   1.000  C
  C2382    1.0000 0.97190  0.40840  0.66265  Biso   1.000  C
  C2383    1.0000 0.07507  0.30523  0.67068  Biso   1.000  C
  C2384    1.0000 0.69477  0.76983  0.67068  Biso   1.000  C
  C2385    1.0000 0.23017  0.92493  0.67068  Biso   1.000  C
  C2386    1.0000 0.10317  0.36143  0.99598  Biso   1.000  C
  C2387    1.0000 0.25827  0.89683  0.99598  Biso   1.000  C
  C2388    1.0000 0.63857  0.74173  0.99598  Biso   1.000  C
  C2389    1.0000 0.74173  0.63857  0.00402  Biso   1.000  C
  C2390    1.0000 0.36143  0.10317  0.00402  Biso   1.000  C
  C2391    1.0000 0.89683  0.25827  0.00402  Biso   1.000  C
  C2392    1.0000 0.76983  0.69477  0.32932  Biso   1.000  C
  C2393    1.0000 0.92493  0.23017  0.32932  Biso   1.000  C
  C2394    1.0000 0.30523  0.07507  0.32932  Biso   1.000  C
  C2395    1.0000 0.36550  0.84380  0.30947  Biso   1.000  C
  C2396    1.0000 0.15620  0.52170  0.30947  Biso   1.000  C
  C2397    1.0000 0.47830  0.63450  0.30947  Biso   1.000  C
  C2398    1.0000 0.52170  0.15620  0.69053  Biso   1.000  C
  C2399    1.0000 0.63450  0.47830  0.69053  Biso   1.000  C
  C2400    1.0000 0.84380  0.36550  0.69053  Biso   1.000  C
  C2401    1.0000 0.03217  0.17713  0.64280  Biso   1.000  C
  C2402    1.0000 0.82287  0.85503  0.64280  Biso   1.000  C
  C2403    1.0000 0.14497  0.96783  0.64280  Biso   1.000  C
  C2404    1.0000 0.18837  0.48953  0.02386  Biso   1.000  C
  C2405    1.0000 0.30117  0.81163  0.02386  Biso   1.000  C
  C2406    1.0000 0.51047  0.69883  0.02386  Biso   1.000  C
  C2407    1.0000 0.69883  0.51047  0.97614  Biso   1.000  C
  C2408    1.0000 0.48953  0.18837  0.97614  Biso   1.000  C
  C2409    1.0000 0.81163  0.30117  0.97614  Biso   1.000  C
  C2410    1.0000 0.85503  0.82287  0.35720  Biso   1.000  C
  C2411    1.0000 0.96783  0.14497  0.35720  Biso   1.000  C
  C2412    1.0000 0.17713  0.03217  0.35720  Biso   1.000  C
  C2413    1.0000 0.38610  0.82010  0.30110  Biso   1.000  C
  C2414    1.0000 0.17990  0.56600  0.30110  Biso   1.000  C
  C2415    1.0000 0.43400  0.61390  0.30110  Biso   1.000  C
  C2416    1.0000 0.56600  0.17990  0.69890  Biso   1.000  C
  C2417    1.0000 0.61390  0.43400  0.69890  Biso   1.000  C
  C2418    1.0000 0.82010  0.38610  0.69890  Biso   1.000  C
  C2419    1.0000 0.05277  0.15343  0.63443  Biso   1.000  C
  C2420    1.0000 0.84657  0.89933  0.63443  Biso   1.000  C
  C2421    1.0000 0.10067  0.94723  0.63443  Biso   1.000  C
  C2422    1.0000 0.23267  0.51323  0.03223  Biso   1.000  C
  C2423    1.0000 0.28057  0.76733  0.03223  Biso   1.000  C
  C2424    1.0000 0.48677  0.71943  0.03223  Biso   1.000  C
  C2425    1.0000 0.71943  0.48677  0.96777  Biso   1.000  C
  C2426    1.0000 0.51323  0.23267  0.96777  Biso   1.000  C
  C2427    1.0000 0.76733  0.28057  0.96777  Biso   1.000  C
  C2428    1.0000 0.89933  0.84657  0.36557  Biso   1.000  C
  C2429    1.0000 0.94723  0.10067  0.36557  Biso   1.000  C
  C2430    1.0000 0.15343  0.05277  0.36557  Biso   1.000  C
  H1783    1.0000 0.41870  0.82990  0.30280  Biso   1.000  H
  H1784    1.0000 0.17010  0.58880  0.30280  Biso   1.000  H
  H1785    1.0000 0.41120  0.58130  0.30280  Biso   1.000  H
  H1786    1.0000 0.58880  0.17010  0.69720  Biso   1.000  H
  H1787    1.0000 0.58130  0.41120  0.69720  Biso   1.000  H
  H1788    1.0000 0.82990  0.41870  0.69720  Biso   1.000  H
  H1789    1.0000 0.08537  0.16323  0.63613  Biso   1.000  H
  H1790    1.0000 0.83677  0.92213  0.63613  Biso   1.000  H
  H1791    1.0000 0.07787  0.91463  0.63613  Biso   1.000  H
  H1792    1.0000 0.25547  0.50343  0.03053  Biso   1.000  H
  H1793    1.0000 0.24797  0.74453  0.03053  Biso   1.000  H
  H1794    1.0000 0.49657  0.75203  0.03053  Biso   1.000  H
  H1795    1.0000 0.75203  0.49657  0.96947  Biso   1.000  H
  H1796    1.0000 0.50343  0.25547  0.96947  Biso   1.000  H
  H1797    1.0000 0.74453  0.24797  0.96947  Biso   1.000  H
  H1798    1.0000 0.92213  0.83677  0.36387  Biso   1.000  H
  H1799    1.0000 0.91463  0.07787  0.36387  Biso   1.000  H
  H1800    1.0000 0.16323  0.08537  0.36387  Biso   1.000  H
  C2431    1.0000 0.35810  0.78190  0.29030  Biso   1.000  C
  C2432    1.0000 0.21810  0.57620  0.29030  Biso   1.000  C
  C2433    1.0000 0.42380  0.64190  0.29030  Biso   1.000  C
  C2434    1.0000 0.57620  0.21810  0.70970  Biso   1.000  C
  C2435    1.0000 0.64190  0.42380  0.70970  Biso   1.000  C
  C2436    1.0000 0.78190  0.35810  0.70970  Biso   1.000  C
  C2437    1.0000 0.02477  0.11523  0.62363  Biso   1.000  C
  C2438    1.0000 0.88477  0.90953  0.62363  Biso   1.000  C
  C2439    1.0000 0.09047  0.97523  0.62363  Biso   1.000  C
  C2440    1.0000 0.24287  0.55143  0.04303  Biso   1.000  C
  C2441    1.0000 0.30857  0.75713  0.04303  Biso   1.000  C
  C2442    1.0000 0.44857  0.69143  0.04303  Biso   1.000  C
  C2443    1.0000 0.69143  0.44857  0.95697  Biso   1.000  C
  C2444    1.0000 0.55143  0.24287  0.95697  Biso   1.000  C
  C2445    1.0000 0.75713  0.30857  0.95697  Biso   1.000  C
  C2446    1.0000 0.90953  0.88477  0.37637  Biso   1.000  C
  C2447    1.0000 0.97523  0.09047  0.37637  Biso   1.000  C
  C2448    1.0000 0.11523  0.02477  0.37637  Biso   1.000  C
  H1801    1.0000 0.37180  0.76600  0.28470  Biso   1.000  H
  H1802    1.0000 0.23400  0.60580  0.28470  Biso   1.000  H
  H1803    1.0000 0.39420  0.62820  0.28470  Biso   1.000  H
  H1804    1.0000 0.60580  0.23400  0.71530  Biso   1.000  H
  H1805    1.0000 0.62820  0.39420  0.71530  Biso   1.000  H
  H1806    1.0000 0.76600  0.37180  0.71530  Biso   1.000  H
  H1807    1.0000 0.03847  0.09933  0.61803  Biso   1.000  H
  H1808    1.0000 0.90067  0.93913  0.61803  Biso   1.000  H
  H1809    1.0000 0.06087  0.96153  0.61803  Biso   1.000  H
  H1810    1.0000 0.27247  0.56733  0.04863  Biso   1.000  H
  H1811    1.0000 0.29487  0.72753  0.04863  Biso   1.000  H
  H1812    1.0000 0.43267  0.70513  0.04863  Biso   1.000  H
  H1813    1.0000 0.70513  0.43267  0.95137  Biso   1.000  H
  H1814    1.0000 0.56733  0.27247  0.95137  Biso   1.000  H
  H1815    1.0000 0.72753  0.29487  0.95137  Biso   1.000  H
  H1816    1.0000 0.93913  0.90067  0.38197  Biso   1.000  H
  H1817    1.0000 0.96153  0.06087  0.38197  Biso   1.000  H
  H1818    1.0000 0.09933  0.03847  0.38197  Biso   1.000  H
  C2449    1.0000 0.30940  0.76730  0.28784  Biso   1.000  C
  C2450    1.0000 0.23270  0.54210  0.28784  Biso   1.000  C
  C2451    1.0000 0.45790  0.69060  0.28784  Biso   1.000  C
  C2452    1.0000 0.54210  0.23270  0.71216  Biso   1.000  C
  C2453    1.0000 0.69060  0.45790  0.71216  Biso   1.000  C
  C2454    1.0000 0.76730  0.30940  0.71216  Biso   1.000  C
  C2455    1.0000 0.97607  0.10063  0.62117  Biso   1.000  C
  C2456    1.0000 0.89937  0.87543  0.62117  Biso   1.000  C
  C2457    1.0000 0.12457  0.02393  0.62117  Biso   1.000  C
  C2458    1.0000 0.20877  0.56603  0.04549  Biso   1.000  C
  C2459    1.0000 0.35727  0.79123  0.04549  Biso   1.000  C
  C2460    1.0000 0.43397  0.64273  0.04549  Biso   1.000  C
  C2461    1.0000 0.64273  0.43397  0.95451  Biso   1.000  C
  C2462    1.0000 0.56603  0.20877  0.95451  Biso   1.000  C
  C2463    1.0000 0.79123  0.35727  0.95451  Biso   1.000  C
  C2464    1.0000 0.87543  0.89937  0.37883  Biso   1.000  C
  C2465    1.0000 0.02393  0.12457  0.37883  Biso   1.000  C
  C2466    1.0000 0.10063  0.97607  0.37883  Biso   1.000  C
  C2467    1.0000 0.28880  0.79090  0.29621  Biso   1.000  C
  C2468    1.0000 0.20910  0.49790  0.29621  Biso   1.000  C
  C2469    1.0000 0.50210  0.71120  0.29621  Biso   1.000  C
  C2470    1.0000 0.49790  0.20910  0.70379  Biso   1.000  C
  C2471    1.0000 0.71120  0.50210  0.70379  Biso   1.000  C
  C2472    1.0000 0.79090  0.28880  0.70379  Biso   1.000  C
  C2473    1.0000 0.95547  0.12423  0.62954  Biso   1.000  C
  C2474    1.0000 0.87577  0.83123  0.62954  Biso   1.000  C
  C2475    1.0000 0.16877  0.04453  0.62954  Biso   1.000  C
  C2476    1.0000 0.16457  0.54243  0.03712  Biso   1.000  C
  C2477    1.0000 0.37787  0.83543  0.03712  Biso   1.000  C
  C2478    1.0000 0.45757  0.62213  0.03712  Biso   1.000  C
  C2479    1.0000 0.62213  0.45757  0.96288  Biso   1.000  C
  C2480    1.0000 0.54243  0.16457  0.96288  Biso   1.000  C
  C2481    1.0000 0.83543  0.37787  0.96288  Biso   1.000  C
  C2482    1.0000 0.83123  0.87577  0.37046  Biso   1.000  C
  C2483    1.0000 0.04453  0.16877  0.37046  Biso   1.000  C
  C2484    1.0000 0.12423  0.95547  0.37046  Biso   1.000  C
  H1819    1.0000 0.25620  0.78110  0.29460  Biso   1.000  H
  H1820    1.0000 0.21890  0.47510  0.29460  Biso   1.000  H
  H1821    1.0000 0.52490  0.74380  0.29460  Biso   1.000  H
  H1822    1.0000 0.47510  0.21890  0.70540  Biso   1.000  H
  H1823    1.0000 0.74380  0.52490  0.70540  Biso   1.000  H
  H1824    1.0000 0.78110  0.25620  0.70540  Biso   1.000  H
  H1825    1.0000 0.92287  0.11443  0.62793  Biso   1.000  H
  H1826    1.0000 0.88557  0.80843  0.62793  Biso   1.000  H
  H1827    1.0000 0.19157  0.07713  0.62793  Biso   1.000  H
  H1828    1.0000 0.14177  0.55223  0.03873  Biso   1.000  H
  H1829    1.0000 0.41047  0.85823  0.03873  Biso   1.000  H
  H1830    1.0000 0.44777  0.58953  0.03873  Biso   1.000  H
  H1831    1.0000 0.58953  0.44777  0.96127  Biso   1.000  H
  H1832    1.0000 0.55223  0.14177  0.96127  Biso   1.000  H
  H1833    1.0000 0.85823  0.41047  0.96127  Biso   1.000  H
  H1834    1.0000 0.80843  0.88557  0.37207  Biso   1.000  H
  H1835    1.0000 0.07713  0.19157  0.37207  Biso   1.000  H
  H1836    1.0000 0.11443  0.92287  0.37207  Biso   1.000  H
  C2485    1.0000 0.31680  0.82910  0.30703  Biso   1.000  C
  C2486    1.0000 0.17090  0.48770  0.30703  Biso   1.000  C
  C2487    1.0000 0.51230  0.68320  0.30703  Biso   1.000  C
  C2488    1.0000 0.48770  0.17090  0.69297  Biso   1.000  C
  C2489    1.0000 0.68320  0.51230  0.69297  Biso   1.000  C
  C2490    1.0000 0.82910  0.31680  0.69297  Biso   1.000  C
  C2491    1.0000 0.98347  0.16243  0.64036  Biso   1.000  C
  C2492    1.0000 0.83757  0.82103  0.64036  Biso   1.000  C
  C2493    1.0000 0.17897  0.01653  0.64036  Biso   1.000  C
  C2494    1.0000 0.15437  0.50423  0.02630  Biso   1.000  C
  C2495    1.0000 0.34987  0.84563  0.02630  Biso   1.000  C
  C2496    1.0000 0.49577  0.65013  0.02630  Biso   1.000  C
  C2497    1.0000 0.65013  0.49577  0.97370  Biso   1.000  C
  C2498    1.0000 0.50423  0.15437  0.97370  Biso   1.000  C
  C2499    1.0000 0.84563  0.34987  0.97370  Biso   1.000  C
  C2500    1.0000 0.82103  0.83757  0.35964  Biso   1.000  C
  C2501    1.0000 0.01653  0.17897  0.35964  Biso   1.000  C
  C2502    1.0000 0.16243  0.98347  0.35964  Biso   1.000  C
  C2503    1.0000 0.27510  0.83390  0.33180  Biso   1.000  C
  C2504    1.0000 0.16610  0.44120  0.33180  Biso   1.000  C
  C2505    1.0000 0.55880  0.72490  0.33180  Biso   1.000  C
  C2506    1.0000 0.44120  0.16610  0.66820  Biso   1.000  C
  C2507    1.0000 0.72490  0.55880  0.66820  Biso   1.000  C
  C2508    1.0000 0.83390  0.27510  0.66820  Biso   1.000  C
  C2509    1.0000 0.94177  0.16723  0.66513  Biso   1.000  C
  C2510    1.0000 0.83277  0.77453  0.66513  Biso   1.000  C
  C2511    1.0000 0.22547  0.05823  0.66513  Biso   1.000  C
  C2512    1.0000 0.10787  0.49943  0.00153  Biso   1.000  C
  C2513    1.0000 0.39157  0.89213  0.00153  Biso   1.000  C
  C2514    1.0000 0.50057  0.60843  0.00153  Biso   1.000  C
  C2515    1.0000 0.60843  0.50057  0.99847  Biso   1.000  C
  C2516    1.0000 0.49943  0.10787  0.99847  Biso   1.000  C
  C2517    1.0000 0.89213  0.39157  0.99847  Biso   1.000  C
  C2518    1.0000 0.77453  0.83277  0.33487  Biso   1.000  C
  C2519    1.0000 0.05823  0.22547  0.33487  Biso   1.000  C
  C2520    1.0000 0.16723  0.94177  0.33487  Biso   1.000  C
  H1837    1.0000 0.24480  0.81000  0.32670  Biso   1.000  H
  H1838    1.0000 0.19000  0.43480  0.32670  Biso   1.000  H
  H1839    1.0000 0.56520  0.75520  0.32670  Biso   1.000  H
  H1840    1.0000 0.43480  0.19000  0.67330  Biso   1.000  H
  H1841    1.0000 0.75520  0.56520  0.67330  Biso   1.000  H
  H1842    1.0000 0.81000  0.24480  0.67330  Biso   1.000  H
  H1843    1.0000 0.91147  0.14333  0.66003  Biso   1.000  H
  H1844    1.0000 0.85667  0.76813  0.66003  Biso   1.000  H
  H1845    1.0000 0.23187  0.08853  0.66003  Biso   1.000  H
  H1846    1.0000 0.10147  0.52333  0.00663  Biso   1.000  H
  H1847    1.0000 0.42187  0.89853  0.00663  Biso   1.000  H
  H1848    1.0000 0.47667  0.57813  0.00663  Biso   1.000  H
  H1849    1.0000 0.57813  0.47667  0.99337  Biso   1.000  H
  H1850    1.0000 0.52333  0.10147  0.99337  Biso   1.000  H
  H1851    1.0000 0.89853  0.42187  0.99337  Biso   1.000  H
  H1852    1.0000 0.76813  0.85667  0.33997  Biso   1.000  H
  H1853    1.0000 0.08853  0.23187  0.33997  Biso   1.000  H
  H1854    1.0000 0.14333  0.91147  0.33997  Biso   1.000  H
  H1855    1.0000 0.26740  0.85540  0.33800  Biso   1.000  H
  H1856    1.0000 0.14460  0.41200  0.33800  Biso   1.000  H
  H1857    1.0000 0.58800  0.73260  0.33800  Biso   1.000  H
  H1858    1.0000 0.41200  0.14460  0.66200  Biso   1.000  H
  H1859    1.0000 0.73260  0.58800  0.66200  Biso   1.000  H
  H1860    1.0000 0.85540  0.26740  0.66200  Biso   1.000  H
  H1861    1.0000 0.93407  0.18873  0.67133  Biso   1.000  H
  H1862    1.0000 0.81127  0.74533  0.67133  Biso   1.000  H
  H1863    1.0000 0.25467  0.06593  0.67133  Biso   1.000  H
  H1864    1.0000 0.07867  0.47793  0.99533  Biso   1.000  H
  H1865    1.0000 0.39927  0.92133  0.99533  Biso   1.000  H
  H1866    1.0000 0.52207  0.60073  0.99533  Biso   1.000  H
  H1867    1.0000 0.60073  0.52207  0.00467  Biso   1.000  H
  H1868    1.0000 0.47793  0.07867  0.00467  Biso   1.000  H
  H1869    1.0000 0.92133  0.39927  0.00467  Biso   1.000  H
  H1870    1.0000 0.74533  0.81127  0.32867  Biso   1.000  H
  H1871    1.0000 0.06593  0.25467  0.32867  Biso   1.000  H
  H1872    1.0000 0.18873  0.93407  0.32867  Biso   1.000  H
  C2521    1.0000 0.28320  0.80490  0.34570  Biso   1.000  C
  C2522    1.0000 0.19510  0.47830  0.34570  Biso   1.000  C
  C2523    1.0000 0.52170  0.71680  0.34570  Biso   1.000  C
  C2524    1.0000 0.47830  0.19510  0.65430  Biso   1.000  C
  C2525    1.0000 0.71680  0.52170  0.65430  Biso   1.000  C
  C2526    1.0000 0.80490  0.28320  0.65430  Biso   1.000  C
  C2527    1.0000 0.94987  0.13823  0.67903  Biso   1.000  C
  C2528    1.0000 0.86177  0.81163  0.67903  Biso   1.000  C
  C2529    1.0000 0.18837  0.05013  0.67903  Biso   1.000  C
  C2530    1.0000 0.14497  0.52843  0.98763  Biso   1.000  C
  C2531    1.0000 0.38347  0.85503  0.98763  Biso   1.000  C
  C2532    1.0000 0.47157  0.61653  0.98763  Biso   1.000  C
  C2533    1.0000 0.61653  0.47157  0.01237  Biso   1.000  C
  C2534    1.0000 0.52843  0.14497  0.01237  Biso   1.000  C
  C2535    1.0000 0.85503  0.38347  0.01237  Biso   1.000  C
  C2536    1.0000 0.81163  0.86177  0.32097  Biso   1.000  C
  C2537    1.0000 0.05013  0.18837  0.32097  Biso   1.000  C
  C2538    1.0000 0.13823  0.94987  0.32097  Biso   1.000  C
  H1873    1.0000 0.31220  0.80510  0.34150  Biso   1.000  H
  H1874    1.0000 0.19490  0.50710  0.34150  Biso   1.000  H
  H1875    1.0000 0.49290  0.68780  0.34150  Biso   1.000  H
  H1876    1.0000 0.50710  0.19490  0.65850  Biso   1.000  H
  H1877    1.0000 0.68780  0.49290  0.65850  Biso   1.000  H
  H1878    1.0000 0.80510  0.31220  0.65850  Biso   1.000  H
  H1879    1.0000 0.97887  0.13843  0.67483  Biso   1.000  H
  H1880    1.0000 0.86157  0.84043  0.67483  Biso   1.000  H
  H1881    1.0000 0.15957  0.02113  0.67483  Biso   1.000  H
  H1882    1.0000 0.17377  0.52823  0.99183  Biso   1.000  H
  H1883    1.0000 0.35447  0.82623  0.99183  Biso   1.000  H
  H1884    1.0000 0.47177  0.64553  0.99183  Biso   1.000  H
  H1885    1.0000 0.64553  0.47177  0.00817  Biso   1.000  H
  H1886    1.0000 0.52823  0.17377  0.00817  Biso   1.000  H
  H1887    1.0000 0.82623  0.35447  0.00817  Biso   1.000  H
  H1888    1.0000 0.84043  0.86157  0.32517  Biso   1.000  H
  H1889    1.0000 0.02113  0.15957  0.32517  Biso   1.000  H
  H1890    1.0000 0.13843  0.97887  0.32517  Biso   1.000  H
  C2539    1.0000 0.30410  0.83700  0.36150  Biso   1.000  C
  C2540    1.0000 0.16300  0.46710  0.36150  Biso   1.000  C
  C2541    1.0000 0.53290  0.69590  0.36150  Biso   1.000  C
  C2542    1.0000 0.46710  0.16300  0.63850  Biso   1.000  C
  C2543    1.0000 0.69590  0.53290  0.63850  Biso   1.000  C
  C2544    1.0000 0.83700  0.30410  0.63850  Biso   1.000  C
  C2545    1.0000 0.97077  0.17033  0.69483  Biso   1.000  C
  C2546    1.0000 0.82967  0.80043  0.69483  Biso   1.000  C
  C2547    1.0000 0.19957  0.02923  0.69483  Biso   1.000  C
  C2548    1.0000 0.13377  0.49633  0.97183  Biso   1.000  C
  C2549    1.0000 0.36257  0.86623  0.97183  Biso   1.000  C
  C2550    1.0000 0.50367  0.63743  0.97183  Biso   1.000  C
  C2551    1.0000 0.63743  0.50367  0.02817  Biso   1.000  C
  C2552    1.0000 0.49633  0.13377  0.02817  Biso   1.000  C
  C2553    1.0000 0.86623  0.36257  0.02817  Biso   1.000  C
  C2554    1.0000 0.80043  0.82967  0.30517  Biso   1.000  C
  C2555    1.0000 0.02923  0.19957  0.30517  Biso   1.000  C
  C2556    1.0000 0.17033  0.97077  0.30517  Biso   1.000  C
  H1891    1.0000 0.30900  0.81890  0.37020  Biso   1.000  H
  H1892    1.0000 0.18110  0.49010  0.37020  Biso   1.000  H
  H1893    1.0000 0.50990  0.69100  0.37020  Biso   1.000  H
  H1894    1.0000 0.49010  0.18110  0.62980  Biso   1.000  H
  H1895    1.0000 0.69100  0.50990  0.62980  Biso   1.000  H
  H1896    1.0000 0.81890  0.30900  0.62980  Biso   1.000  H
  H1897    1.0000 0.97567  0.15223  0.70353  Biso   1.000  H
  H1898    1.0000 0.84777  0.82343  0.70353  Biso   1.000  H
  H1899    1.0000 0.17657  0.02433  0.70353  Biso   1.000  H
  H1900    1.0000 0.15677  0.51443  0.96313  Biso   1.000  H
  H1901    1.0000 0.35767  0.84323  0.96313  Biso   1.000  H
  H1902    1.0000 0.48557  0.64233  0.96313  Biso   1.000  H
  H1903    1.0000 0.64233  0.48557  0.03687  Biso   1.000  H
  H1904    1.0000 0.51443  0.15677  0.03687  Biso   1.000  H
  H1905    1.0000 0.84323  0.35767  0.03687  Biso   1.000  H
  H1906    1.0000 0.82343  0.84777  0.29647  Biso   1.000  H
  H1907    1.0000 0.02433  0.17657  0.29647  Biso   1.000  H
  H1908    1.0000 0.15223  0.97567  0.29647  Biso   1.000  H
  H1909    1.0000 0.33450  0.86530  0.35880  Biso   1.000  H
  H1910    1.0000 0.13470  0.46920  0.35880  Biso   1.000  H
  H1911    1.0000 0.53080  0.66550  0.35880  Biso   1.000  H
  H1912    1.0000 0.46920  0.13470  0.64120  Biso   1.000  H
  H1913    1.0000 0.66550  0.53080  0.64120  Biso   1.000  H
  H1914    1.0000 0.86530  0.33450  0.64120  Biso   1.000  H
  H1915    1.0000 0.00117  0.19863  0.69213  Biso   1.000  H
  H1916    1.0000 0.80137  0.80253  0.69213  Biso   1.000  H
  H1917    1.0000 0.19747  0.99883  0.69213  Biso   1.000  H
  H1918    1.0000 0.13587  0.46803  0.97453  Biso   1.000  H
  H1919    1.0000 0.33217  0.86413  0.97453  Biso   1.000  H
  H1920    1.0000 0.53197  0.66783  0.97453  Biso   1.000  H
  H1921    1.0000 0.66783  0.53197  0.02547  Biso   1.000  H
  H1922    1.0000 0.46803  0.13587  0.02547  Biso   1.000  H
  H1923    1.0000 0.86413  0.33217  0.02547  Biso   1.000  H
  H1924    1.0000 0.80253  0.80137  0.30787  Biso   1.000  H
  H1925    1.0000 0.99883  0.19747  0.30787  Biso   1.000  H
  H1926    1.0000 0.19863  0.00117  0.30787  Biso   1.000  H
  H1927    1.0000 0.28170  0.84680  0.36540  Biso   1.000  H
  H1928    1.0000 0.15320  0.43490  0.36540  Biso   1.000  H
  H1929    1.0000 0.56510  0.71830  0.36540  Biso   1.000  H
  H1930    1.0000 0.43490  0.15320  0.63460  Biso   1.000  H
  H1931    1.0000 0.71830  0.56510  0.63460  Biso   1.000  H
  H1932    1.0000 0.84680  0.28170  0.63460  Biso   1.000  H
  H1933    1.0000 0.94837  0.18013  0.69873  Biso   1.000  H
  H1934    1.0000 0.81987  0.76823  0.69873  Biso   1.000  H
  H1935    1.0000 0.23177  0.05163  0.69873  Biso   1.000  H
  H1936    1.0000 0.10157  0.48653  0.96793  Biso   1.000  H
  H1937    1.0000 0.38497  0.89843  0.96793  Biso   1.000  H
  H1938    1.0000 0.51347  0.61503  0.96793  Biso   1.000  H
  H1939    1.0000 0.61503  0.51347  0.03207  Biso   1.000  H
  H1940    1.0000 0.48653  0.10157  0.03207  Biso   1.000  H
  H1941    1.0000 0.89843  0.38497  0.03207  Biso   1.000  H
  H1942    1.0000 0.76823  0.81987  0.30127  Biso   1.000  H
  H1943    1.0000 0.05163  0.23177  0.30127  Biso   1.000  H
  H1944    1.0000 0.18013  0.94837  0.30127  Biso   1.000  H
  C2557    1.0000 0.24780  0.74940  0.34750  Biso   1.000  C
  C2558    1.0000 0.25060  0.49840  0.34750  Biso   1.000  C
  C2559    1.0000 0.50160  0.75220  0.34750  Biso   1.000  C
  C2560    1.0000 0.49840  0.25060  0.65250  Biso   1.000  C
  C2561    1.0000 0.75220  0.50160  0.65250  Biso   1.000  C
  C2562    1.0000 0.74940  0.24780  0.65250  Biso   1.000  C
  C2563    1.0000 0.91447  0.08273  0.68083  Biso   1.000  C
  C2564    1.0000 0.91727  0.83173  0.68083  Biso   1.000  C
  C2565    1.0000 0.16827  0.08553  0.68083  Biso   1.000  C
  C2566    1.0000 0.16507  0.58393  0.98583  Biso   1.000  C
  C2567    1.0000 0.41887  0.83493  0.98583  Biso   1.000  C
  C2568    1.0000 0.41607  0.58113  0.98583  Biso   1.000  C
  C2569    1.0000 0.58113  0.41607  0.01417  Biso   1.000  C
  C2570    1.0000 0.58393  0.16507  0.01417  Biso   1.000  C
  C2571    1.0000 0.83493  0.41887  0.01417  Biso   1.000  C
  C2572    1.0000 0.83173  0.91727  0.31917  Biso   1.000  C
  C2573    1.0000 0.08553  0.16827  0.31917  Biso   1.000  C
  C2574    1.0000 0.08273  0.91447  0.31917  Biso   1.000  C
  H1945    1.0000 0.24690  0.74160  0.35930  Biso   1.000  H
  H1946    1.0000 0.25840  0.50530  0.35930  Biso   1.000  H
  H1947    1.0000 0.49470  0.75310  0.35930  Biso   1.000  H
  H1948    1.0000 0.50530  0.25840  0.64070  Biso   1.000  H
  H1949    1.0000 0.75310  0.49470  0.64070  Biso   1.000  H
  H1950    1.0000 0.74160  0.24690  0.64070  Biso   1.000  H
  H1951    1.0000 0.91357  0.07493  0.69263  Biso   1.000  H
  H1952    1.0000 0.92507  0.83863  0.69263  Biso   1.000  H
  H1953    1.0000 0.16137  0.08643  0.69263  Biso   1.000  H
  H1954    1.0000 0.17197  0.59173  0.97403  Biso   1.000  H
  H1955    1.0000 0.41977  0.82803  0.97403  Biso   1.000  H
  H1956    1.0000 0.40827  0.58023  0.97403  Biso   1.000  H
  H1957    1.0000 0.58023  0.40827  0.02597  Biso   1.000  H
  H1958    1.0000 0.59173  0.17197  0.02597  Biso   1.000  H
  H1959    1.0000 0.82803  0.41977  0.02597  Biso   1.000  H
  H1960    1.0000 0.83863  0.92507  0.30737  Biso   1.000  H
  H1961    1.0000 0.08643  0.16137  0.30737  Biso   1.000  H
  H1962    1.0000 0.07493  0.91357  0.30737  Biso   1.000  H
  H1963    1.0000 0.21570  0.74360  0.34460  Biso   1.000  H
  H1964    1.0000 0.25640  0.47210  0.34460  Biso   1.000  H
  H1965    1.0000 0.52790  0.78430  0.34460  Biso   1.000  H
  H1966    1.0000 0.47210  0.25640  0.65540  Biso   1.000  H
  H1967    1.0000 0.78430  0.52790  0.65540  Biso   1.000  H
  H1968    1.0000 0.74360  0.21570  0.65540  Biso   1.000  H
  H1969    1.0000 0.88237  0.07693  0.67793  Biso   1.000  H
  H1970    1.0000 0.92307  0.80543  0.67793  Biso   1.000  H
  H1971    1.0000 0.19457  0.11763  0.67793  Biso   1.000  H
  H1972    1.0000 0.13877  0.58973  0.98873  Biso   1.000  H
  H1973    1.0000 0.45097  0.86123  0.98873  Biso   1.000  H
  H1974    1.0000 0.41027  0.54903  0.98873  Biso   1.000  H
  H1975    1.0000 0.54903  0.41027  0.01127  Biso   1.000  H
  H1976    1.0000 0.58973  0.13877  0.01127  Biso   1.000  H
  H1977    1.0000 0.86123  0.45097  0.01127  Biso   1.000  H
  H1978    1.0000 0.80543  0.92307  0.32207  Biso   1.000  H
  H1979    1.0000 0.11763  0.19457  0.32207  Biso   1.000  H
  H1980    1.0000 0.07693  0.88237  0.32207  Biso   1.000  H
  C2575    1.0000 0.27330  0.87820  0.30580  Biso   1.000  C
  C2576    1.0000 0.12180  0.39510  0.30580  Biso   1.000  C
  C2577    1.0000 0.60490  0.72670  0.30580  Biso   1.000  C
  C2578    1.0000 0.39510  0.12180  0.69420  Biso   1.000  C
  C2579    1.0000 0.72670  0.60490  0.69420  Biso   1.000  C
  C2580    1.0000 0.87820  0.27330  0.69420  Biso   1.000  C
  C2581    1.0000 0.93997  0.21153  0.63913  Biso   1.000  C
  C2582    1.0000 0.78847  0.72843  0.63913  Biso   1.000  C
  C2583    1.0000 0.27157  0.06003  0.63913  Biso   1.000  C
  C2584    1.0000 0.06177  0.45513  0.02753  Biso   1.000  C
  C2585    1.0000 0.39337  0.93823  0.02753  Biso   1.000  C
  C2586    1.0000 0.54487  0.60663  0.02753  Biso   1.000  C
  C2587    1.0000 0.60663  0.54487  0.97247  Biso   1.000  C
  C2588    1.0000 0.45513  0.06177  0.97247  Biso   1.000  C
  C2589    1.0000 0.93823  0.39337  0.97247  Biso   1.000  C
  C2590    1.0000 0.72843  0.78847  0.36087  Biso   1.000  C
  C2591    1.0000 0.06003  0.27157  0.36087  Biso   1.000  C
  C2592    1.0000 0.21153  0.93997  0.36087  Biso   1.000  C
  H1981    1.0000 0.24720  0.84840  0.30110  Biso   1.000  H
  H1982    1.0000 0.15160  0.39880  0.30110  Biso   1.000  H
  H1983    1.0000 0.60120  0.75280  0.30110  Biso   1.000  H
  H1984    1.0000 0.39880  0.15160  0.69890  Biso   1.000  H
  H1985    1.0000 0.75280  0.60120  0.69890  Biso   1.000  H
  H1986    1.0000 0.84840  0.24720  0.69890  Biso   1.000  H
  H1987    1.0000 0.91387  0.18173  0.63443  Biso   1.000  H
  H1988    1.0000 0.81827  0.73213  0.63443  Biso   1.000  H
  H1989    1.0000 0.26787  0.08613  0.63443  Biso   1.000  H
  H1990    1.0000 0.06547  0.48493  0.03223  Biso   1.000  H
  H1991    1.0000 0.41947  0.93453  0.03223  Biso   1.000  H
  H1992    1.0000 0.51507  0.58053  0.03223  Biso   1.000  H
  H1993    1.0000 0.58053  0.51507  0.96777  Biso   1.000  H
  H1994    1.0000 0.48493  0.06547  0.96777  Biso   1.000  H
  H1995    1.0000 0.93453  0.41947  0.96777  Biso   1.000  H
  H1996    1.0000 0.73213  0.81827  0.36557  Biso   1.000  H
  H1997    1.0000 0.08613  0.26787  0.36557  Biso   1.000  H
  H1998    1.0000 0.18173  0.91387  0.36557  Biso   1.000  H
  H1999    1.0000 0.25850  0.89180  0.31300  Biso   1.000  H
  H2000    1.0000 0.10820  0.36670  0.31300  Biso   1.000  H
  H2001    1.0000 0.63330  0.74150  0.31300  Biso   1.000  H
  H2002    1.0000 0.36670  0.10820  0.68700  Biso   1.000  H
  H2003    1.0000 0.74150  0.63330  0.68700  Biso   1.000  H
  H2004    1.0000 0.89180  0.25850  0.68700  Biso   1.000  H
  H2005    1.0000 0.92517  0.22513  0.64633  Biso   1.000  H
  H2006    1.0000 0.77487  0.70003  0.64633  Biso   1.000  H
  H2007    1.0000 0.29997  0.07483  0.64633  Biso   1.000  H
  H2008    1.0000 0.03337  0.44153  0.02033  Biso   1.000  H
  H2009    1.0000 0.40817  0.96663  0.02033  Biso   1.000  H
  H2010    1.0000 0.55847  0.59183  0.02033  Biso   1.000  H
  H2011    1.0000 0.59183  0.55847  0.97967  Biso   1.000  H
  H2012    1.0000 0.44153  0.03337  0.97967  Biso   1.000  H
  H2013    1.0000 0.96663  0.40817  0.97967  Biso   1.000  H
  H2014    1.0000 0.70003  0.77487  0.35367  Biso   1.000  H
  H2015    1.0000 0.07483  0.29997  0.35367  Biso   1.000  H
  H2016    1.0000 0.22513  0.92517  0.35367  Biso   1.000  H
  C2593    1.0000 0.29860  0.91360  0.29130  Biso   1.000  C
  C2594    1.0000 0.08640  0.38500  0.29130  Biso   1.000  C
  C2595    1.0000 0.61500  0.70140  0.29130  Biso   1.000  C
  C2596    1.0000 0.38500  0.08640  0.70870  Biso   1.000  C
  C2597    1.0000 0.70140  0.61500  0.70870  Biso   1.000  C
  C2598    1.0000 0.91360  0.29860  0.70870  Biso   1.000  C
  C2599    1.0000 0.96527  0.24693  0.62463  Biso   1.000  C
  C2600    1.0000 0.75307  0.71833  0.62463  Biso   1.000  C
  C2601    1.0000 0.28167  0.03473  0.62463  Biso   1.000  C
  C2602    1.0000 0.05167  0.41973  0.04203  Biso   1.000  C
  C2603    1.0000 0.36807  0.94833  0.04203  Biso   1.000  C
  C2604    1.0000 0.58027  0.63193  0.04203  Biso   1.000  C
  C2605    1.0000 0.63193  0.58027  0.95797  Biso   1.000  C
  C2606    1.0000 0.41973  0.05167  0.95797  Biso   1.000  C
  C2607    1.0000 0.94833  0.36807  0.95797  Biso   1.000  C
  C2608    1.0000 0.71833  0.75307  0.37537  Biso   1.000  C
  C2609    1.0000 0.03473  0.28167  0.37537  Biso   1.000  C
  C2610    1.0000 0.24693  0.96527  0.37537  Biso   1.000  C
  C2611    1.0000 0.32700  0.89880  0.27970  Biso   1.000  C
  C2612    1.0000 0.10120  0.42820  0.27970  Biso   1.000  C
  C2613    1.0000 0.57180  0.67300  0.27970  Biso   1.000  C
  C2614    1.0000 0.42820  0.10120  0.72030  Biso   1.000  C
  C2615    1.0000 0.67300  0.57180  0.72030  Biso   1.000  C
  C2616    1.0000 0.89880  0.32700  0.72030  Biso   1.000  C
  C2617    1.0000 0.99367  0.23213  0.61303  Biso   1.000  C
  C2618    1.0000 0.76787  0.76153  0.61303  Biso   1.000  C
  C2619    1.0000 0.23847  0.00633  0.61303  Biso   1.000  C
  C2620    1.0000 0.09487  0.43453  0.05363  Biso   1.000  C
  C2621    1.0000 0.33967  0.90513  0.05363  Biso   1.000  C
  C2622    1.0000 0.56547  0.66033  0.05363  Biso   1.000  C
  C2623    1.0000 0.66033  0.56547  0.94637  Biso   1.000  C
  C2624    1.0000 0.43453  0.09487  0.94637  Biso   1.000  C
  C2625    1.0000 0.90513  0.33967  0.94637  Biso   1.000  C
  C2626    1.0000 0.76153  0.76787  0.38697  Biso   1.000  C
  C2627    1.0000 0.00633  0.23847  0.38697  Biso   1.000  C
  C2628    1.0000 0.23213  0.99367  0.38697  Biso   1.000  C
  C2629    1.0000 0.25530  0.71210  0.33770  Biso   1.000  C
  C2630    1.0000 0.28790  0.54320  0.33770  Biso   1.000  C
  C2631    1.0000 0.45680  0.74470  0.33770  Biso   1.000  C
  C2632    1.0000 0.54320  0.28790  0.66230  Biso   1.000  C
  C2633    1.0000 0.74470  0.45680  0.66230  Biso   1.000  C
  C2634    1.0000 0.71210  0.25530  0.66230  Biso   1.000  C
  C2635    1.0000 0.92197  0.04543  0.67103  Biso   1.000  C
  C2636    1.0000 0.95457  0.87653  0.67103  Biso   1.000  C
  C2637    1.0000 0.12347  0.07803  0.67103  Biso   1.000  C
  C2638    1.0000 0.20987  0.62123  0.99563  Biso   1.000  C
  C2639    1.0000 0.41137  0.79013  0.99563  Biso   1.000  C
  C2640    1.0000 0.37877  0.58863  0.99563  Biso   1.000  C
  C2641    1.0000 0.58863  0.37877  0.00437  Biso   1.000  C
  C2642    1.0000 0.62123  0.20987  0.00437  Biso   1.000  C
  C2643    1.0000 0.79013  0.41137  0.00437  Biso   1.000  C
  C2644    1.0000 0.87653  0.95457  0.32897  Biso   1.000  C
  C2645    1.0000 0.07803  0.12347  0.32897  Biso   1.000  C
  C2646    1.0000 0.04543  0.92197  0.32897  Biso   1.000  C
  H2017    1.0000 0.22980  0.67990  0.34050  Biso   1.000  H
  H2018    1.0000 0.32010  0.54990  0.34050  Biso   1.000  H
  H2019    1.0000 0.45010  0.77020  0.34050  Biso   1.000  H
  H2020    1.0000 0.54990  0.32010  0.65950  Biso   1.000  H
  H2021    1.0000 0.77020  0.45010  0.65950  Biso   1.000  H
  H2022    1.0000 0.67990  0.22980  0.65950  Biso   1.000  H
  H2023    1.0000 0.89647  0.01323  0.67383  Biso   1.000  H
  H2024    1.0000 0.98677  0.88323  0.67383  Biso   1.000  H
  H2025    1.0000 0.11677  0.10353  0.67383  Biso   1.000  H
  H2026    1.0000 0.21657  0.65343  0.99283  Biso   1.000  H
  H2027    1.0000 0.43687  0.78343  0.99283  Biso   1.000  H
  H2028    1.0000 0.34657  0.56313  0.99283  Biso   1.000  H
  H2029    1.0000 0.56313  0.34657  0.00717  Biso   1.000  H
  H2030    1.0000 0.65343  0.21657  0.00717  Biso   1.000  H
  H2031    1.0000 0.78343  0.43687  0.00717  Biso   1.000  H
  H2032    1.0000 0.88323  0.98677  0.32617  Biso   1.000  H
  H2033    1.0000 0.10353  0.11677  0.32617  Biso   1.000  H
  H2034    1.0000 0.01323  0.89647  0.32617  Biso   1.000  H
  H2035    1.0000 0.25460  0.71740  0.32590  Biso   1.000  H
  H2036    1.0000 0.28260  0.53720  0.32590  Biso   1.000  H
  H2037    1.0000 0.46280  0.74540  0.32590  Biso   1.000  H
  H2038    1.0000 0.53720  0.28260  0.67410  Biso   1.000  H
  H2039    1.0000 0.74540  0.46280  0.67410  Biso   1.000  H
  H2040    1.0000 0.71740  0.25460  0.67410  Biso   1.000  H
  H2041    1.0000 0.92127  0.05073  0.65923  Biso   1.000  H
  H2042    1.0000 0.94927  0.87053  0.65923  Biso   1.000  H
  H2043    1.0000 0.12947  0.07873  0.65923  Biso   1.000  H
  H2044    1.0000 0.20387  0.61593  0.00743  Biso   1.000  H
  H2045    1.0000 0.41207  0.79613  0.00743  Biso   1.000  H
  H2046    1.0000 0.38407  0.58793  0.00743  Biso   1.000  H
  H2047    1.0000 0.58793  0.38407  0.99257  Biso   1.000  H
  H2048    1.0000 0.61593  0.20387  0.99257  Biso   1.000  H
  H2049    1.0000 0.79613  0.41207  0.99257  Biso   1.000  H
  H2050    1.0000 0.87053  0.94927  0.34077  Biso   1.000  H
  H2051    1.0000 0.07873  0.12947  0.34077  Biso   1.000  H
  H2052    1.0000 0.05073  0.92127  0.34077  Biso   1.000  H
  H2053    1.0000 0.28600  0.71540  0.34070  Biso   1.000  H
  H2054    1.0000 0.28460  0.57060  0.34070  Biso   1.000  H
  H2055    1.0000 0.42940  0.71400  0.34070  Biso   1.000  H
  H2056    1.0000 0.57060  0.28460  0.65930  Biso   1.000  H
  H2057    1.0000 0.71400  0.42940  0.65930  Biso   1.000  H
  H2058    1.0000 0.71540  0.28600  0.65930  Biso   1.000  H
  H2059    1.0000 0.95267  0.04873  0.67403  Biso   1.000  H
  H2060    1.0000 0.95127  0.90393  0.67403  Biso   1.000  H
  H2061    1.0000 0.09607  0.04733  0.67403  Biso   1.000  H
  H2062    1.0000 0.23727  0.61793  0.99263  Biso   1.000  H
  H2063    1.0000 0.38067  0.76273  0.99263  Biso   1.000  H
  H2064    1.0000 0.38207  0.61933  0.99263  Biso   1.000  H
  H2065    1.0000 0.61933  0.38207  0.00737  Biso   1.000  H
  H2066    1.0000 0.61793  0.23727  0.00737  Biso   1.000  H
  H2067    1.0000 0.76273  0.38067  0.00737  Biso   1.000  H
  H2068    1.0000 0.90393  0.95127  0.32597  Biso   1.000  H
  H2069    1.0000 0.04733  0.09607  0.32597  Biso   1.000  H
  H2070    1.0000 0.04873  0.95267  0.32597  Biso   1.000  H
  N19      1.0000 0.96260  0.46030  0.23000  Biso   1.000  N
  N20      1.0000 0.53970  0.50230  0.23000  Biso   1.000  N
  N21      1.0000 0.49770  0.03740  0.23000  Biso   1.000  N
  N22      1.0000 0.50230  0.53970  0.77000  Biso   1.000  N
  N23      1.0000 0.03740  0.49770  0.77000  Biso   1.000  N
  N24      1.0000 0.46030  0.96260  0.77000  Biso   1.000  N
  N25      1.0000 0.62927  0.79363  0.56333  Biso   1.000  N
  N26      1.0000 0.20637  0.83563  0.56333  Biso   1.000  N
  N27      1.0000 0.16437  0.37073  0.56333  Biso   1.000  N
  N28      1.0000 0.16897  0.87303  0.10333  Biso   1.000  N
  N29      1.0000 0.70407  0.83103  0.10333  Biso   1.000  N
  N30      1.0000 0.12697  0.29593  0.10333  Biso   1.000  N
  N31      1.0000 0.29593  0.12697  0.89667  Biso   1.000  N
  N32      1.0000 0.87303  0.16897  0.89667  Biso   1.000  N
  N33      1.0000 0.83103  0.70407  0.89667  Biso   1.000  N
  N34      1.0000 0.83563  0.20637  0.43667  Biso   1.000  N
  N35      1.0000 0.37073  0.16437  0.43667  Biso   1.000  N
  N36      1.0000 0.79363  0.62927  0.43667  Biso   1.000  N
  C2647    1.0000 0.00380  0.49050  0.22630  Biso   1.000  C
  C2648    1.0000 0.50950  0.51330  0.22630  Biso   1.000  C
  C2649    1.0000 0.48670  0.99620  0.22630  Biso   1.000  C
  C2650    1.0000 0.51330  0.50950  0.77370  Biso   1.000  C
  C2651    1.0000 0.99620  0.48670  0.77370  Biso   1.000  C
  C2652    1.0000 0.49050  0.00380  0.77370  Biso   1.000  C
  C2653    1.0000 0.67047  0.82383  0.55963  Biso   1.000  C
  C2654    1.0000 0.17617  0.84663  0.55963  Biso   1.000  C
  C2655    1.0000 0.15337  0.32953  0.55963  Biso   1.000  C
  C2656    1.0000 0.17997  0.84283  0.10703  Biso   1.000  C
  C2657    1.0000 0.66287  0.82003  0.10703  Biso   1.000  C
  C2658    1.0000 0.15717  0.33713  0.10703  Biso   1.000  C
  C2659    1.0000 0.33713  0.15717  0.89297  Biso   1.000  C
  C2660    1.0000 0.84283  0.17997  0.89297  Biso   1.000  C
  C2661    1.0000 0.82003  0.66287  0.89297  Biso   1.000  C
  C2662    1.0000 0.84663  0.17617  0.44037  Biso   1.000  C
  C2663    1.0000 0.32953  0.15337  0.44037  Biso   1.000  C
  C2664    1.0000 0.82383  0.67047  0.44037  Biso   1.000  C
  C2665    1.0000 0.92840  0.46540  0.22660  Biso   1.000  C
  C2666    1.0000 0.53460  0.46300  0.22660  Biso   1.000  C
  C2667    1.0000 0.53700  0.07160  0.22660  Biso   1.000  C
  C2668    1.0000 0.46300  0.53460  0.77340  Biso   1.000  C
  C2669    1.0000 0.07160  0.53700  0.77340  Biso   1.000  C
  C2670    1.0000 0.46540  0.92840  0.77340  Biso   1.000  C
  C2671    1.0000 0.59507  0.79873  0.55993  Biso   1.000  C
  C2672    1.0000 0.20127  0.79633  0.55993  Biso   1.000  C
  C2673    1.0000 0.20367  0.40493  0.55993  Biso   1.000  C
  C2674    1.0000 0.12967  0.86793  0.10673  Biso   1.000  C
  C2675    1.0000 0.73827  0.87033  0.10673  Biso   1.000  C
  C2676    1.0000 0.13207  0.26173  0.10673  Biso   1.000  C
  C2677    1.0000 0.26173  0.13207  0.89327  Biso   1.000  C
  C2678    1.0000 0.86793  0.12967  0.89327  Biso   1.000  C
  C2679    1.0000 0.87033  0.73827  0.89327  Biso   1.000  C
  C2680    1.0000 0.79633  0.20127  0.44007  Biso   1.000  C
  C2681    1.0000 0.40493  0.20367  0.44007  Biso   1.000  C
  C2682    1.0000 0.79873  0.59507  0.44007  Biso   1.000  C
  C2683    1.0000 0.95610  0.42610  0.23890  Biso   1.000  C
  C2684    1.0000 0.57390  0.53000  0.23890  Biso   1.000  C
  C2685    1.0000 0.47000  0.04390  0.23890  Biso   1.000  C
  C2686    1.0000 0.53000  0.57390  0.76110  Biso   1.000  C
  C2687    1.0000 0.04390  0.47000  0.76110  Biso   1.000  C
  C2688    1.0000 0.42610  0.95610  0.76110  Biso   1.000  C
  C2689    1.0000 0.62277  0.75943  0.57223  Biso   1.000  C
  C2690    1.0000 0.24057  0.86333  0.57223  Biso   1.000  C
  C2691    1.0000 0.13667  0.37723  0.57223  Biso   1.000  C
  C2692    1.0000 0.19667  0.90723  0.09443  Biso   1.000  C
  C2693    1.0000 0.71057  0.80333  0.09443  Biso   1.000  C
  C2694    1.0000 0.09277  0.28943  0.09443  Biso   1.000  C
  C2695    1.0000 0.28943  0.09277  0.90557  Biso   1.000  C
  C2696    1.0000 0.90723  0.19667  0.90557  Biso   1.000  C
  C2697    1.0000 0.80333  0.71057  0.90557  Biso   1.000  C
  C2698    1.0000 0.86333  0.24057  0.42777  Biso   1.000  C
  C2699    1.0000 0.37723  0.13667  0.42777  Biso   1.000  C
  C2700    1.0000 0.75943  0.62277  0.42777  Biso   1.000  C
  C2701    1.0000 0.27100  0.93850  0.28470  Biso   1.000  C
  C2702    1.0000 0.06150  0.33250  0.28470  Biso   1.000  C
  C2703    1.0000 0.66750  0.72900  0.28470  Biso   1.000  C
  C2704    1.0000 0.33250  0.06150  0.71530  Biso   1.000  C
  C2705    1.0000 0.72900  0.66750  0.71530  Biso   1.000  C
  C2706    1.0000 0.93850  0.27100  0.71530  Biso   1.000  C
  C2707    1.0000 0.93767  0.27183  0.61803  Biso   1.000  C
  C2708    1.0000 0.72817  0.66583  0.61803  Biso   1.000  C
  C2709    1.0000 0.33417  0.06233  0.61803  Biso   1.000  C
  C2710    1.0000 0.99917  0.39483  0.04863  Biso   1.000  C
  C2711    1.0000 0.39567  0.00083  0.04863  Biso   1.000  C
  C2712    1.0000 0.60517  0.60433  0.04863  Biso   1.000  C
  C2713    1.0000 0.60433  0.60517  0.95137  Biso   1.000  C
  C2714    1.0000 0.39483  0.99917  0.95137  Biso   1.000  C
  C2715    1.0000 0.00083  0.39567  0.95137  Biso   1.000  C
  C2716    1.0000 0.66583  0.72817  0.38197  Biso   1.000  C
  C2717    1.0000 0.06233  0.33417  0.38197  Biso   1.000  C
  C2718    1.0000 0.27183  0.93767  0.38197  Biso   1.000  C
