data_image0
_cell_length_a       14.228
_cell_length_b       13.863
_cell_length_c       29.827
_cell_angle_alpha    90
_cell_angle_beta     102.75
_cell_angle_gamma    90

_symmetry_space_group_name_H-M    "P 1"
_symmetry_int_tables_number       1

loop_
  _symmetry_equiv_pos_as_xyz
  'x, y, z'

loop_
  _atom_site_label
  _atom_site_occupancy
  _atom_site_fract_x
  _atom_site_fract_y
  _atom_site_fract_z
  _atom_site_thermal_displace_type
  _atom_site_B_iso_or_equiv
  _atom_site_type_symbol
  C1       1.0000 0.23500  0.54070  0.39060  Biso   1.000  C
  C2       1.0000 0.76500  0.54070  0.10940  Biso   1.000  C
  C3       1.0000 0.76500  0.45930  0.60940  Biso   1.000  C
  C4       1.0000 0.23500  0.45930  0.89060  Biso   1.000  C
  C5       1.0000 0.14330  0.53470  0.40250  Biso   1.000  C
  C6       1.0000 0.85670  0.53470  0.09750  Biso   1.000  C
  C7       1.0000 0.85670  0.46530  0.59750  Biso   1.000  C
  C8       1.0000 0.14330  0.46530  0.90250  Biso   1.000  C
  H1       1.0000 0.10320  0.48260  0.39220  Biso   1.000  H
  H2       1.0000 0.89680  0.48260  0.10780  Biso   1.000  H
  H3       1.0000 0.89680  0.51740  0.60780  Biso   1.000  H
  H4       1.0000 0.10320  0.51740  0.89220  Biso   1.000  H
  C9       1.0000 0.11340  0.60480  0.42890  Biso   1.000  C
  C10      1.0000 0.88660  0.60480  0.07110  Biso   1.000  C
  C11      1.0000 0.88660  0.39520  0.57110  Biso   1.000  C
  C12      1.0000 0.11340  0.39520  0.92890  Biso   1.000  C
  H5       1.0000 0.05300  0.59900  0.43570  Biso   1.000  H
  H6       1.0000 0.94700  0.59900  0.06430  Biso   1.000  H
  H7       1.0000 0.94700  0.40100  0.56430  Biso   1.000  H
  H8       1.0000 0.05300  0.40100  0.93570  Biso   1.000  H
  C13      1.0000 0.16970  0.68280  0.44550  Biso   1.000  C
  C14      1.0000 0.83030  0.68280  0.05450  Biso   1.000  C
  C15      1.0000 0.83030  0.31720  0.55450  Biso   1.000  C
  C16      1.0000 0.16970  0.31720  0.94550  Biso   1.000  C
  H9       1.0000 0.14780  0.72950  0.46310  Biso   1.000  H
  H10      1.0000 0.85220  0.72950  0.03690  Biso   1.000  H
  H11      1.0000 0.85220  0.27050  0.53690  Biso   1.000  H
  H12      1.0000 0.14780  0.27050  0.96310  Biso   1.000  H
  S1       1.0000 0.48100  0.18750  0.29360  Biso   1.000  S
  S2       1.0000 0.51900  0.18750  0.20640  Biso   1.000  S
  S3       1.0000 0.51900  0.81250  0.70640  Biso   1.000  S
  S4       1.0000 0.48100  0.81250  0.79360  Biso   1.000  S
  C17      1.0000 0.50000  0.24560  0.25000  Biso   1.000  C
  C18      1.0000 0.50000  0.75440  0.75000  Biso   1.000  C
  H13      1.0000 0.55360  0.28770  0.26120  Biso   1.000  H
  H14      1.0000 0.44640  0.28770  0.23880  Biso   1.000  H
  H15      1.0000 0.44640  0.71230  0.73880  Biso   1.000  H
  H16      1.0000 0.55360  0.71230  0.76120  Biso   1.000  H
  H17      1.0000 0.44250  0.28320  0.24020  Biso   1.000  H
  H18      1.0000 0.55750  0.28320  0.25980  Biso   1.000  H
  H19      1.0000 0.55750  0.71680  0.75980  Biso   1.000  H
  H20      1.0000 0.44250  0.71680  0.74020  Biso   1.000  H
  H21      1.0000 0.49210  0.20260  0.27410  Biso   1.000  H
  H22      1.0000 0.50790  0.20260  0.22590  Biso   1.000  H
  H23      1.0000 0.50790  0.79740  0.72590  Biso   1.000  H
  H24      1.0000 0.49210  0.79740  0.77410  Biso   1.000  H
  C19      1.0000 0.57960  0.13800  0.31530  Biso   1.000  C
  C20      1.0000 0.42040  0.13800  0.18470  Biso   1.000  C
  C21      1.0000 0.42040  0.86200  0.68470  Biso   1.000  C
  C22      1.0000 0.57960  0.86200  0.81530  Biso   1.000  C
  H25      1.0000 0.57710  0.09640  0.34090  Biso   1.000  H
  H26      1.0000 0.42290  0.09640  0.15910  Biso   1.000  H
  H27      1.0000 0.42290  0.90360  0.65910  Biso   1.000  H
  H28      1.0000 0.57710  0.90360  0.84090  Biso   1.000  H
  H29      1.0000 0.58500  0.09870  0.28940  Biso   1.000  H
  H30      1.0000 0.41500  0.09870  0.21060  Biso   1.000  H
  H31      1.0000 0.41500  0.90130  0.71060  Biso   1.000  H
  H32      1.0000 0.58500  0.90130  0.78940  Biso   1.000  H
  H33      1.0000 0.63460  0.17940  0.32330  Biso   1.000  H
  H34      1.0000 0.36540  0.17940  0.17670  Biso   1.000  H
  H35      1.0000 0.36540  0.82060  0.67670  Biso   1.000  H
  H36      1.0000 0.63460  0.82060  0.82330  Biso   1.000  H
  S5       1.0000 0.51400  0.08900  0.22910  Biso   1.000  S
  S6       1.0000 0.48600  0.08900  0.27090  Biso   1.000  S
  S7       1.0000 0.48600  0.91100  0.77090  Biso   1.000  S
  S8       1.0000 0.51400  0.91100  0.72910  Biso   1.000  S
  C23      1.0000 0.44000  0.16100  0.24150  Biso   1.000  C
  C24      1.0000 0.56000  0.16100  0.25850  Biso   1.000  C
  C25      1.0000 0.56000  0.83900  0.75850  Biso   1.000  C
  C26      1.0000 0.44000  0.83900  0.74150  Biso   1.000  C
  H37      1.0000 0.42940  0.21560  0.22140  Biso   1.000  H
  H38      1.0000 0.57060  0.21560  0.27860  Biso   1.000  H
  H39      1.0000 0.57060  0.78440  0.77860  Biso   1.000  H
  H40      1.0000 0.42940  0.78440  0.72140  Biso   1.000  H
  H41      1.0000 0.38110  0.12550  0.23880  Biso   1.000  H
  H42      1.0000 0.61890  0.12550  0.26120  Biso   1.000  H
  H43      1.0000 0.61890  0.87450  0.76120  Biso   1.000  H
  H44      1.0000 0.38110  0.87450  0.73880  Biso   1.000  H
  H45      1.0000 0.46250  0.18180  0.27270  Biso   1.000  H
  H46      1.0000 0.53750  0.18180  0.22730  Biso   1.000  H
  H47      1.0000 0.53750  0.81820  0.72730  Biso   1.000  H
  H48      1.0000 0.46250  0.81820  0.77270  Biso   1.000  H
  C27      1.0000 0.52400  0.00600  0.26860  Biso   1.000  C
  C28      1.0000 0.47600  0.00600  0.23140  Biso   1.000  C
  C29      1.0000 0.47600  0.99400  0.73140  Biso   1.000  C
  C30      1.0000 0.52400  0.99400  0.76860  Biso   1.000  C
  H49      1.0000 0.57060  0.95910  0.26360  Biso   1.000  H
  H50      1.0000 0.42940  0.95910  0.23640  Biso   1.000  H
  H51      1.0000 0.42940  0.04090  0.73640  Biso   1.000  H
  H52      1.0000 0.57060  0.04090  0.76360  Biso   1.000  H
  H53      1.0000 0.54380  0.03170  0.29910  Biso   1.000  H
  H54      1.0000 0.45620  0.03170  0.20090  Biso   1.000  H
  H55      1.0000 0.45620  0.96830  0.70090  Biso   1.000  H
  H56      1.0000 0.54380  0.96830  0.79910  Biso   1.000  H
  H57      1.0000 0.46240  0.97530  0.26520  Biso   1.000  H
  H58      1.0000 0.53760  0.97530  0.23480  Biso   1.000  H
  H59      1.0000 0.53760  0.02470  0.73480  Biso   1.000  H
  H60      1.0000 0.46240  0.02470  0.76520  Biso   1.000  H
  C31      1.0000 0.25980  0.69010  0.43530  Biso   1.000  C
  C32      1.0000 0.74020  0.69010  0.06470  Biso   1.000  C
  C33      1.0000 0.74020  0.30990  0.56470  Biso   1.000  C
  C34      1.0000 0.25980  0.30990  0.93530  Biso   1.000  C
  H61      1.0000 0.29860  0.74250  0.44660  Biso   1.000  H
  H62      1.0000 0.70140  0.74250  0.05340  Biso   1.000  H
  H63      1.0000 0.70140  0.25750  0.55340  Biso   1.000  H
  H64      1.0000 0.29860  0.25750  0.94660  Biso   1.000  H
  C35      1.0000 0.29420  0.62150  0.40870  Biso   1.000  C
  C36      1.0000 0.70580  0.62150  0.09130  Biso   1.000  C
  C37      1.0000 0.70580  0.37850  0.59130  Biso   1.000  C
  C38      1.0000 0.29420  0.37850  0.90870  Biso   1.000  C
  C39      1.0000 0.39070  0.63470  0.40170  Biso   1.000  C
  C40      1.0000 0.60930  0.63470  0.09830  Biso   1.000  C
  C41      1.0000 0.60930  0.36530  0.59830  Biso   1.000  C
  C42      1.0000 0.39070  0.36530  0.90170  Biso   1.000  C
  H65      1.0000 0.42470  0.68840  0.41520  Biso   1.000  H
  H66      1.0000 0.57530  0.68840  0.08480  Biso   1.000  H
  H67      1.0000 0.57530  0.31160  0.58480  Biso   1.000  H
  H68      1.0000 0.42470  0.31160  0.91520  Biso   1.000  H
  C43      1.0000 0.57630  0.53720  0.35930  Biso   1.000  C
  C44      1.0000 0.42370  0.53720  0.14070  Biso   1.000  C
  C45      1.0000 0.42370  0.46280  0.64070  Biso   1.000  C
  C46      1.0000 0.57630  0.46280  0.85930  Biso   1.000  C
  C47      1.0000 0.78820  0.66570  0.37650  Biso   1.000  C
  C48      1.0000 0.21180  0.66570  0.12350  Biso   1.000  C
  C49      1.0000 0.21180  0.33430  0.62350  Biso   1.000  C
  C50      1.0000 0.78820  0.33430  0.87650  Biso   1.000  C
  H69      1.0000 0.82420  0.62470  0.36220  Biso   1.000  H
  H70      1.0000 0.17580  0.62470  0.13780  Biso   1.000  H
  H71      1.0000 0.17580  0.37530  0.63780  Biso   1.000  H
  H72      1.0000 0.82420  0.37530  0.86220  Biso   1.000  H
  C51      1.0000 0.83380  0.75430  0.39670  Biso   1.000  C
  C52      1.0000 0.16620  0.75430  0.10330  Biso   1.000  C
  C53      1.0000 0.16620  0.24570  0.60330  Biso   1.000  C
  C54      1.0000 0.83380  0.24570  0.89670  Biso   1.000  C
  C55      1.0000 0.92780  0.77040  0.39240  Biso   1.000  C
  C56      1.0000 0.07220  0.77040  0.10760  Biso   1.000  C
  C57      1.0000 0.07220  0.22960  0.60760  Biso   1.000  C
  C58      1.0000 0.92780  0.22960  0.89240  Biso   1.000  C
  H73      1.0000 0.95700  0.72570  0.37660  Biso   1.000  H
  H74      1.0000 0.04300  0.72570  0.12340  Biso   1.000  H
  H75      1.0000 0.04300  0.27430  0.62340  Biso   1.000  H
  H76      1.0000 0.95700  0.27430  0.87660  Biso   1.000  H
  C59      1.0000 0.97950  0.85120  0.41100  Biso   1.000  C
  C60      1.0000 0.02050  0.85120  0.08900  Biso   1.000  C
  C61      1.0000 0.02050  0.14880  0.58900  Biso   1.000  C
  C62      1.0000 0.97950  0.14880  0.91100  Biso   1.000  C
  H77      1.0000 0.04250  0.86080  0.40790  Biso   1.000  H
  H78      1.0000 0.95750  0.86080  0.09210  Biso   1.000  H
  H79      1.0000 0.95750  0.13920  0.59210  Biso   1.000  H
  H80      1.0000 0.04250  0.13920  0.90790  Biso   1.000  H
  C63      1.0000 0.93520  0.91660  0.43420  Biso   1.000  C
  C64      1.0000 0.06480  0.91660  0.06580  Biso   1.000  C
  C65      1.0000 0.06480  0.08340  0.56580  Biso   1.000  C
  C66      1.0000 0.93520  0.08340  0.93420  Biso   1.000  C
  H81      1.0000 0.96930  0.97050  0.44750  Biso   1.000  H
  H82      1.0000 0.03070  0.97050  0.05250  Biso   1.000  H
  H83      1.0000 0.03070  0.02950  0.55250  Biso   1.000  H
  H84      1.0000 0.96930  0.02950  0.94750  Biso   1.000  H
  C67      1.0000 0.84150  0.90390  0.43830  Biso   1.000  C
  C68      1.0000 0.15850  0.90390  0.06170  Biso   1.000  C
  C69      1.0000 0.15850  0.09610  0.56170  Biso   1.000  C
  C70      1.0000 0.84150  0.09610  0.93830  Biso   1.000  C
  H85      1.0000 0.81340  0.95010  0.45370  Biso   1.000  H
  H86      1.0000 0.18660  0.95010  0.04630  Biso   1.000  H
  H87      1.0000 0.18660  0.04990  0.54630  Biso   1.000  H
  H88      1.0000 0.81340  0.04990  0.95370  Biso   1.000  H
  C71      1.0000 0.78640  0.82190  0.41930  Biso   1.000  C
  C72      1.0000 0.21360  0.82190  0.08070  Biso   1.000  C
  C73      1.0000 0.21360  0.17810  0.58070  Biso   1.000  C
  C74      1.0000 0.78640  0.17810  0.91930  Biso   1.000  C
  C75      1.0000 0.11730  0.36940  0.08930  Biso   1.000  C
  C76      1.0000 0.88270  0.36940  0.41070  Biso   1.000  C
  C77      1.0000 0.88270  0.63060  0.91070  Biso   1.000  C
  C78      1.0000 0.11730  0.63060  0.58930  Biso   1.000  C
  C79      1.0000 0.06640  0.37460  0.04280  Biso   1.000  C
  C80      1.0000 0.93360  0.37460  0.45720  Biso   1.000  C
  C81      1.0000 0.93360  0.62540  0.95720  Biso   1.000  C
  C82      1.0000 0.06640  0.62540  0.54280  Biso   1.000  C
  H89      1.0000 0.07420  0.42830  0.02520  Biso   1.000  H
  H90      1.0000 0.92580  0.42830  0.47480  Biso   1.000  H
  H91      1.0000 0.92580  0.57170  0.97480  Biso   1.000  H
  H92      1.0000 0.07420  0.57170  0.52520  Biso   1.000  H
  C83      1.0000 0.00470  0.30030  0.02300  Biso   1.000  C
  C84      1.0000 0.99530  0.30030  0.47700  Biso   1.000  C
  C85      1.0000 0.99530  0.69970  0.97700  Biso   1.000  C
  C86      1.0000 0.00470  0.69970  0.52300  Biso   1.000  C
  H93      1.0000 0.97260  0.30490  0.99230  Biso   1.000  H
  H94      1.0000 0.02740  0.30490  0.50770  Biso   1.000  H
  H95      1.0000 0.02740  0.69510  0.00770  Biso   1.000  H
  H96      1.0000 0.97260  0.69510  0.49230  Biso   1.000  H
  C87      1.0000 0.99090  0.22050  0.04830  Biso   1.000  C
  C88      1.0000 0.00910  0.22050  0.45170  Biso   1.000  C
  C89      1.0000 0.00910  0.77950  0.95170  Biso   1.000  C
  C90      1.0000 0.99090  0.77950  0.54830  Biso   1.000  C
  H97      1.0000 0.95030  0.17110  0.03460  Biso   1.000  H
  H98      1.0000 0.04970  0.17110  0.46540  Biso   1.000  H
  H99      1.0000 0.04970  0.82890  0.96540  Biso   1.000  H
  H100     1.0000 0.95030  0.82890  0.53460  Biso   1.000  H
  C91      1.0000 0.03660  0.21410  0.09320  Biso   1.000  C
  C92      1.0000 0.96340  0.21410  0.40680  Biso   1.000  C
  C93      1.0000 0.96340  0.78590  0.90680  Biso   1.000  C
  C94      1.0000 0.03660  0.78590  0.59320  Biso   1.000  C
  H101     1.0000 0.02440  0.16150  0.11040  Biso   1.000  H
  H102     1.0000 0.97560  0.16150  0.38960  Biso   1.000  H
  H103     1.0000 0.97560  0.83850  0.88960  Biso   1.000  H
  H104     1.0000 0.02440  0.83850  0.61040  Biso   1.000  H
  C95      1.0000 0.10230  0.28550  0.11440  Biso   1.000  C
  C96      1.0000 0.89770  0.28550  0.38560  Biso   1.000  C
  C97      1.0000 0.89770  0.71450  0.88560  Biso   1.000  C
  C98      1.0000 0.10230  0.71450  0.61440  Biso   1.000  C
  C99      1.0000 0.14830  0.27060  0.16190  Biso   1.000  C
  C100     1.0000 0.85170  0.27060  0.33810  Biso   1.000  C
  C101     1.0000 0.85170  0.72940  0.83810  Biso   1.000  C
  C102     1.0000 0.14830  0.72940  0.66190  Biso   1.000  C
  H105     1.0000 0.13340  0.21420  0.17570  Biso   1.000  H
  H106     1.0000 0.86660  0.21420  0.32430  Biso   1.000  H
  H107     1.0000 0.86660  0.78580  0.82430  Biso   1.000  H
  H108     1.0000 0.13340  0.78580  0.67570  Biso   1.000  H
  C103     1.0000 0.28760  0.37170  0.26010  Biso   1.000  C
  C104     1.0000 0.71240  0.37170  0.23990  Biso   1.000  C
  C105     1.0000 0.71240  0.62830  0.73990  Biso   1.000  C
  C106     1.0000 0.28760  0.62830  0.76010  Biso   1.000  C
  C107     1.0000 0.30260  0.25030  0.36220  Biso   1.000  C
  C108     1.0000 0.69740  0.25030  0.13780  Biso   1.000  C
  C109     1.0000 0.69740  0.74970  0.63780  Biso   1.000  C
  C110     1.0000 0.30260  0.74970  0.86220  Biso   1.000  C
  H109     1.0000 0.34070  0.29350  0.38220  Biso   1.000  H
  H110     1.0000 0.65930  0.29350  0.11780  Biso   1.000  H
  H111     1.0000 0.65930  0.70650  0.61780  Biso   1.000  H
  H112     1.0000 0.34070  0.70650  0.88220  Biso   1.000  H
  C111     1.0000 0.26810  0.16660  0.38160  Biso   1.000  C
  C112     1.0000 0.73190  0.16660  0.11840  Biso   1.000  C
  C113     1.0000 0.73190  0.83340  0.61840  Biso   1.000  C
  C114     1.0000 0.26810  0.83340  0.88160  Biso   1.000  C
  C115     1.0000 0.29490  0.15650  0.43010  Biso   1.000  C
  C116     1.0000 0.70510  0.15650  0.06990  Biso   1.000  C
  C117     1.0000 0.70510  0.84350  0.56990  Biso   1.000  C
  C118     1.0000 0.29490  0.84350  0.93010  Biso   1.000  C
  H113     1.0000 0.33430  0.20290  0.44730  Biso   1.000  H
  H114     1.0000 0.66570  0.20290  0.05270  Biso   1.000  H
  H115     1.0000 0.66570  0.79710  0.55270  Biso   1.000  H
  H116     1.0000 0.33430  0.79710  0.94730  Biso   1.000  H
  C119     1.0000 0.26360  0.07940  0.45220  Biso   1.000  C
  C120     1.0000 0.73640  0.07940  0.04780  Biso   1.000  C
  C121     1.0000 0.73640  0.92060  0.54780  Biso   1.000  C
  C122     1.0000 0.26360  0.92060  0.95220  Biso   1.000  C
  H117     1.0000 0.28400  0.07160  0.48380  Biso   1.000  H
  H118     1.0000 0.71600  0.07160  0.01620  Biso   1.000  H
  H119     1.0000 0.71600  0.92840  0.51620  Biso   1.000  H
  H120     1.0000 0.28400  0.92840  0.98380  Biso   1.000  H
  C123     1.0000 0.20150  0.01410  0.42620  Biso   1.000  C
  C124     1.0000 0.79850  0.01410  0.07380  Biso   1.000  C
  C125     1.0000 0.79850  0.98590  0.57380  Biso   1.000  C
  C126     1.0000 0.20150  0.98590  0.92620  Biso   1.000  C
  H121     1.0000 0.17630  0.96440  0.44090  Biso   1.000  H
  H122     1.0000 0.82370  0.96440  0.05910  Biso   1.000  H
  H123     1.0000 0.82370  0.03560  0.55910  Biso   1.000  H
  H124     1.0000 0.17630  0.03560  0.94090  Biso   1.000  H
  C127     1.0000 0.17590  0.02050  0.37970  Biso   1.000  C
  C128     1.0000 0.82410  0.02050  0.12030  Biso   1.000  C
  C129     1.0000 0.82410  0.97950  0.62030  Biso   1.000  C
  C130     1.0000 0.17590  0.97950  0.87970  Biso   1.000  C
  H125     1.0000 0.13640  0.97310  0.36340  Biso   1.000  H
  H126     1.0000 0.86360  0.97310  0.13660  Biso   1.000  H
  H127     1.0000 0.86360  0.02690  0.63660  Biso   1.000  H
  H128     1.0000 0.13640  0.02690  0.86340  Biso   1.000  H
  C131     1.0000 0.20760  0.09730  0.35520  Biso   1.000  C
  C132     1.0000 0.79240  0.09730  0.14480  Biso   1.000  C
  C133     1.0000 0.79240  0.90270  0.64480  Biso   1.000  C
  C134     1.0000 0.20760  0.90270  0.85520  Biso   1.000  C
  C135     1.0000 0.40520  0.96510  0.35740  Biso   1.000  C
  C136     1.0000 0.59480  0.96510  0.14260  Biso   1.000  C
  C137     1.0000 0.59480  0.03490  0.64260  Biso   1.000  C
  C138     1.0000 0.40520  0.03490  0.85740  Biso   1.000  C
  H129     1.0000 0.39400  0.93900  0.32690  Biso   1.000  H
  H130     1.0000 0.60600  0.93900  0.17310  Biso   1.000  H
  H131     1.0000 0.60600  0.06100  0.67310  Biso   1.000  H
  H132     1.0000 0.39400  0.06100  0.82690  Biso   1.000  H
  H133     1.0000 0.40830  0.03420  0.35600  Biso   1.000  H
  H134     1.0000 0.59170  0.03420  0.14400  Biso   1.000  H
  H135     1.0000 0.59170  0.96580  0.64400  Biso   1.000  H
  H136     1.0000 0.40830  0.96580  0.85600  Biso   1.000  H
  H137     1.0000 0.35350  0.94660  0.37160  Biso   1.000  H
  H138     1.0000 0.64650  0.94660  0.12840  Biso   1.000  H
  H139     1.0000 0.64650  0.05340  0.62840  Biso   1.000  H
  H140     1.0000 0.35350  0.05340  0.87160  Biso   1.000  H
  C139     1.0000 0.48800  0.95370  0.44000  Biso   1.000  C
  C140     1.0000 0.51200  0.95370  0.06000  Biso   1.000  C
  C141     1.0000 0.51200  0.04630  0.56000  Biso   1.000  C
  C142     1.0000 0.48800  0.04630  0.94000  Biso   1.000  C
  H141     1.0000 0.54290  0.93050  0.46210  Biso   1.000  H
  H142     1.0000 0.45710  0.93050  0.03790  Biso   1.000  H
  H143     1.0000 0.45710  0.06950  0.53790  Biso   1.000  H
  H144     1.0000 0.54290  0.06950  0.96210  Biso   1.000  H
  H145     1.0000 0.48350  0.02250  0.44270  Biso   1.000  H
  H146     1.0000 0.51650  0.02250  0.05730  Biso   1.000  H
  H147     1.0000 0.51650  0.97750  0.55730  Biso   1.000  H
  H148     1.0000 0.48350  0.97750  0.94270  Biso   1.000  H
  H149     1.0000 0.43060  0.92420  0.44540  Biso   1.000  H
  H150     1.0000 0.56940  0.92420  0.05460  Biso   1.000  H
  H151     1.0000 0.56940  0.07580  0.55460  Biso   1.000  H
  H152     1.0000 0.43060  0.07580  0.94540  Biso   1.000  H
  C143     1.0000 0.77430  0.63940  0.50700  Biso   1.000  C
  C144     1.0000 0.22570  0.63940  0.99300  Biso   1.000  C
  C145     1.0000 0.22570  0.36060  0.49300  Biso   1.000  C
  C146     1.0000 0.77430  0.36060  0.00700  Biso   1.000  C
  H153     1.0000 0.78690  0.63130  0.47690  Biso   1.000  H
  H154     1.0000 0.21310  0.63130  0.02310  Biso   1.000  H
  H155     1.0000 0.21310  0.36870  0.52310  Biso   1.000  H
  H156     1.0000 0.78690  0.36870  0.97690  Biso   1.000  H
  H157     1.0000 0.81610  0.59810  0.52840  Biso   1.000  H
  H158     1.0000 0.18390  0.59810  0.97160  Biso   1.000  H
  H159     1.0000 0.18390  0.40190  0.47160  Biso   1.000  H
  H160     1.0000 0.81610  0.40190  0.02840  Biso   1.000  H
  H161     1.0000 0.78550  0.70530  0.51650  Biso   1.000  H
  H162     1.0000 0.21450  0.70530  0.98350  Biso   1.000  H
  H163     1.0000 0.21450  0.29470  0.48350  Biso   1.000  H
  H164     1.0000 0.78550  0.29470  0.01650  Biso   1.000  H
  C147     1.0000 0.65270  0.49750  0.47760  Biso   1.000  C
  C148     1.0000 0.34730  0.49750  0.02240  Biso   1.000  C
  C149     1.0000 0.34730  0.50250  0.52240  Biso   1.000  C
  C150     1.0000 0.65270  0.50250  0.97760  Biso   1.000  C
  H165     1.0000 0.58910  0.47040  0.47260  Biso   1.000  H
  H166     1.0000 0.41090  0.47040  0.02740  Biso   1.000  H
  H167     1.0000 0.41090  0.52960  0.52740  Biso   1.000  H
  H168     1.0000 0.58910  0.52960  0.97260  Biso   1.000  H
  H169     1.0000 0.69800  0.45400  0.49590  Biso   1.000  H
  H170     1.0000 0.30200  0.45400  0.00410  Biso   1.000  H
  H171     1.0000 0.30200  0.54600  0.50410  Biso   1.000  H
  H172     1.0000 0.69800  0.54600  0.99590  Biso   1.000  H
  H173     1.0000 0.66970  0.50760  0.44850  Biso   1.000  H
  H174     1.0000 0.33030  0.50760  0.05150  Biso   1.000  H
  H175     1.0000 0.33030  0.49240  0.55150  Biso   1.000  H
  H176     1.0000 0.66970  0.49240  0.94850  Biso   1.000  H
  C151     1.0000 0.04380  0.34570  0.29650  Biso   1.000  C
  C152     1.0000 0.95620  0.34570  0.20350  Biso   1.000  C
  C153     1.0000 0.95620  0.65430  0.70350  Biso   1.000  C
  C154     1.0000 0.04380  0.65430  0.79650  Biso   1.000  C
  H177     1.0000 0.99170  0.38470  0.30200  Biso   1.000  H
  H178     1.0000 0.00830  0.38470  0.19800  Biso   1.000  H
  H179     1.0000 0.00830  0.61530  0.69800  Biso   1.000  H
  H180     1.0000 0.99170  0.61530  0.80200  Biso   1.000  H
  H181     1.0000 0.09210  0.38640  0.28840  Biso   1.000  H
  H182     1.0000 0.90790  0.38640  0.21160  Biso   1.000  H
  H183     1.0000 0.90790  0.61360  0.71160  Biso   1.000  H
  H184     1.0000 0.09210  0.61360  0.78840  Biso   1.000  H
  H185     1.0000 0.07150  0.31000  0.32380  Biso   1.000  H
  H186     1.0000 0.92850  0.31000  0.17620  Biso   1.000  H
  H187     1.0000 0.92850  0.69000  0.67620  Biso   1.000  H
  H188     1.0000 0.07150  0.69000  0.82380  Biso   1.000  H
  C155     1.0000 0.23570  0.92190  0.18780  Biso   1.000  C
  C156     1.0000 0.76430  0.92190  0.31220  Biso   1.000  C
  C157     1.0000 0.76430  0.07810  0.81220  Biso   1.000  C
  C158     1.0000 0.23570  0.07810  0.68780  Biso   1.000  C
  H189     1.0000 0.20500  0.94250  0.15730  Biso   1.000  H
  H190     1.0000 0.79500  0.94250  0.34270  Biso   1.000  H
  H191     1.0000 0.79500  0.05750  0.84270  Biso   1.000  H
  H192     1.0000 0.20500  0.05750  0.65730  Biso   1.000  H
  H193     1.0000 0.22560  0.85400  0.19080  Biso   1.000  H
  H194     1.0000 0.77440  0.85400  0.30920  Biso   1.000  H
  H195     1.0000 0.77440  0.14600  0.80920  Biso   1.000  H
  H196     1.0000 0.22560  0.14600  0.69080  Biso   1.000  H
  H197     1.0000 0.30350  0.93490  0.19320  Biso   1.000  H
  H198     1.0000 0.69650  0.93490  0.30680  Biso   1.000  H
  H199     1.0000 0.69650  0.06510  0.80680  Biso   1.000  H
  H200     1.0000 0.30350  0.06510  0.69320  Biso   1.000  H
  C159     1.0000 0.06890  0.98290  0.19740  Biso   1.000  C
  C160     1.0000 0.93110  0.98290  0.30260  Biso   1.000  C
  C161     1.0000 0.93110  0.01710  0.80260  Biso   1.000  C
  C162     1.0000 0.06890  0.01710  0.69740  Biso   1.000  C
  H201     1.0000 0.03280  0.03310  0.20800  Biso   1.000  H
  H202     1.0000 0.96720  0.03310  0.29200  Biso   1.000  H
  H203     1.0000 0.96720  0.96690  0.79200  Biso   1.000  H
  H204     1.0000 0.03280  0.96690  0.70800  Biso   1.000  H
  H205     1.0000 0.04380  0.92120  0.20340  Biso   1.000  H
  H206     1.0000 0.95620  0.92120  0.29660  Biso   1.000  H
  H207     1.0000 0.95620  0.07880  0.79660  Biso   1.000  H
  H208     1.0000 0.04380  0.07880  0.70340  Biso   1.000  H
  H209     1.0000 0.06390  0.99000  0.16490  Biso   1.000  H
  H210     1.0000 0.93610  0.99000  0.33510  Biso   1.000  H
  H211     1.0000 0.93610  0.01000  0.83510  Biso   1.000  H
  H212     1.0000 0.06390  0.01000  0.66490  Biso   1.000  H
  C163     1.0000 0.13650  0.76430  0.31800  Biso   1.000  C
  C164     1.0000 0.86350  0.76430  0.18200  Biso   1.000  C
  C165     1.0000 0.86350  0.23570  0.68200  Biso   1.000  C
  C166     1.0000 0.13650  0.23570  0.81800  Biso   1.000  C
  H213     1.0000 0.14910  0.83050  0.31180  Biso   1.000  H
  H214     1.0000 0.85090  0.83050  0.18820  Biso   1.000  H
  H215     1.0000 0.85090  0.16950  0.68820  Biso   1.000  H
  H216     1.0000 0.14910  0.16950  0.81180  Biso   1.000  H
  H217     1.0000 0.17310  0.74690  0.34800  Biso   1.000  H
  H218     1.0000 0.82690  0.74690  0.15200  Biso   1.000  H
  H219     1.0000 0.82690  0.25310  0.65200  Biso   1.000  H
  H220     1.0000 0.17310  0.25310  0.84800  Biso   1.000  H
  H221     1.0000 0.06900  0.75630  0.31700  Biso   1.000  H
  H222     1.0000 0.93100  0.75630  0.18300  Biso   1.000  H
  H223     1.0000 0.93100  0.24370  0.68300  Biso   1.000  H
  H224     1.0000 0.06900  0.24370  0.81700  Biso   1.000  H
  C167     1.0000 0.10550  0.58550  0.27210  Biso   1.000  C
  C168     1.0000 0.89450  0.58550  0.22790  Biso   1.000  C
  C169     1.0000 0.89450  0.41450  0.72790  Biso   1.000  C
  C170     1.0000 0.10550  0.41450  0.77210  Biso   1.000  C
  H225     1.0000 0.12270  0.55070  0.30060  Biso   1.000  H
  H226     1.0000 0.87730  0.55070  0.19940  Biso   1.000  H
  H227     1.0000 0.87730  0.44930  0.69940  Biso   1.000  H
  H228     1.0000 0.12270  0.44930  0.80060  Biso   1.000  H
  H229     1.0000 0.11960  0.54670  0.24770  Biso   1.000  H
  H230     1.0000 0.88040  0.54670  0.25230  Biso   1.000  H
  H231     1.0000 0.88040  0.45330  0.75230  Biso   1.000  H
  H232     1.0000 0.11960  0.45330  0.74770  Biso   1.000  H
  H233     1.0000 0.03790  0.60010  0.26560  Biso   1.000  H
  H234     1.0000 0.96210  0.60010  0.23440  Biso   1.000  H
  H235     1.0000 0.96210  0.39990  0.73440  Biso   1.000  H
  H236     1.0000 0.03790  0.39990  0.76560  Biso   1.000  H
  O1       1.0000 0.12020  0.74890  0.23270  Biso   1.000  O
  O2       1.0000 0.87980  0.74890  0.26730  Biso   1.000  O
  O3       1.0000 0.87980  0.25110  0.76730  Biso   1.000  O
  O4       1.0000 0.12020  0.25110  0.73270  Biso   1.000  O
  C171     1.0000 0.29350  0.68780  0.28590  Biso   1.000  C
  C172     1.0000 0.70650  0.68780  0.21410  Biso   1.000  C
  C173     1.0000 0.70650  0.31220  0.71410  Biso   1.000  C
  C174     1.0000 0.29350  0.31220  0.78590  Biso   1.000  C
  H237     1.0000 0.31630  0.74950  0.27820  Biso   1.000  H
  H238     1.0000 0.68370  0.74950  0.22180  Biso   1.000  H
  H239     1.0000 0.68370  0.25050  0.72180  Biso   1.000  H
  H240     1.0000 0.31630  0.25050  0.77820  Biso   1.000  H
  H241     1.0000 0.31310  0.63880  0.26710  Biso   1.000  H
  H242     1.0000 0.68690  0.63880  0.23290  Biso   1.000  H
  H243     1.0000 0.68690  0.36120  0.73290  Biso   1.000  H
  H244     1.0000 0.31310  0.36120  0.76710  Biso   1.000  H
  H245     1.0000 0.32020  0.67390  0.31770  Biso   1.000  H
  H246     1.0000 0.67980  0.67390  0.18230  Biso   1.000  H
  H247     1.0000 0.67980  0.32610  0.68230  Biso   1.000  H
  H248     1.0000 0.32020  0.32610  0.81770  Biso   1.000  H
  C175     1.0000 0.07750  0.61700  0.28360  Biso   1.000  C
  C176     1.0000 0.92250  0.61700  0.21640  Biso   1.000  C
  C177     1.0000 0.92250  0.38300  0.71640  Biso   1.000  C
  C178     1.0000 0.07750  0.38300  0.78360  Biso   1.000  C
  H249     1.0000 0.01710  0.64740  0.27050  Biso   1.000  H
  H250     1.0000 0.98290  0.64740  0.22950  Biso   1.000  H
  H251     1.0000 0.98290  0.35260  0.72950  Biso   1.000  H
  H252     1.0000 0.01710  0.35260  0.77050  Biso   1.000  H
  H253     1.0000 0.08220  0.60630  0.31580  Biso   1.000  H
  H254     1.0000 0.91780  0.60630  0.18420  Biso   1.000  H
  H255     1.0000 0.91780  0.39370  0.68420  Biso   1.000  H
  H256     1.0000 0.08220  0.39370  0.81580  Biso   1.000  H
  H257     1.0000 0.08140  0.55630  0.26860  Biso   1.000  H
  H258     1.0000 0.91860  0.55630  0.23140  Biso   1.000  H
  H259     1.0000 0.91860  0.44370  0.73140  Biso   1.000  H
  H260     1.0000 0.08140  0.44370  0.76860  Biso   1.000  H
  O5       1.0000 0.14350  0.78850  0.28520  Biso   1.000  O
  O6       1.0000 0.85650  0.78850  0.21480  Biso   1.000  O
  O7       1.0000 0.85650  0.21150  0.71480  Biso   1.000  O
  O8       1.0000 0.14350  0.21150  0.78520  Biso   1.000  O
  C179     1.0000 0.13660  0.72280  0.22310  Biso   1.000  C
  C180     1.0000 0.86340  0.72280  0.27690  Biso   1.000  C
  C181     1.0000 0.86340  0.27720  0.77690  Biso   1.000  C
  C182     1.0000 0.13660  0.27720  0.72310  Biso   1.000  C
  H261     1.0000 0.11000  0.78670  0.22160  Biso   1.000  H
  H262     1.0000 0.89000  0.78670  0.27840  Biso   1.000  H
  H263     1.0000 0.89000  0.21330  0.77840  Biso   1.000  H
  H264     1.0000 0.11000  0.21330  0.72160  Biso   1.000  H
  H265     1.0000 0.08880  0.67890  0.20700  Biso   1.000  H
  H266     1.0000 0.91120  0.67890  0.29300  Biso   1.000  H
  H267     1.0000 0.91120  0.32110  0.79300  Biso   1.000  H
  H268     1.0000 0.08880  0.32110  0.70700  Biso   1.000  H
  H269     1.0000 0.19140  0.72240  0.20920  Biso   1.000  H
  H270     1.0000 0.80860  0.72240  0.29080  Biso   1.000  H
  H271     1.0000 0.80860  0.27760  0.79080  Biso   1.000  H
  H272     1.0000 0.19140  0.27760  0.70920  Biso   1.000  H
  C183     1.0000 0.10550  0.74220  0.31250  Biso   1.000  C
  C184     1.0000 0.89450  0.74220  0.18750  Biso   1.000  C
  C185     1.0000 0.89450  0.25780  0.68750  Biso   1.000  C
  C186     1.0000 0.10550  0.25780  0.81250  Biso   1.000  C
  H273     1.0000 0.08140  0.69280  0.32960  Biso   1.000  H
  H274     1.0000 0.91860  0.69280  0.17040  Biso   1.000  H
  H275     1.0000 0.91860  0.30720  0.67040  Biso   1.000  H
  H276     1.0000 0.08140  0.30720  0.82960  Biso   1.000  H
  H277     1.0000 0.05250  0.77810  0.29470  Biso   1.000  H
  H278     1.0000 0.94750  0.77810  0.20530  Biso   1.000  H
  H279     1.0000 0.94750  0.22190  0.70530  Biso   1.000  H
  H280     1.0000 0.05250  0.22190  0.79470  Biso   1.000  H
  H281     1.0000 0.14670  0.78480  0.33340  Biso   1.000  H
  H282     1.0000 0.85330  0.78480  0.16660  Biso   1.000  H
  H283     1.0000 0.85330  0.21520  0.66660  Biso   1.000  H
  H284     1.0000 0.14670  0.21520  0.83340  Biso   1.000  H
  O9       1.0000 0.26730  0.74400  0.29540  Biso   1.000  O
  O10      1.0000 0.73270  0.74400  0.20460  Biso   1.000  O
  O11      1.0000 0.73270  0.25600  0.70460  Biso   1.000  O
  O12      1.0000 0.26730  0.25600  0.79540  Biso   1.000  O
  S9       1.0000 0.46970  0.76230  0.22390  Biso   1.000  S
  S10      1.0000 0.53030  0.76230  0.27610  Biso   1.000  S
  S11      1.0000 0.53030  0.23770  0.77610  Biso   1.000  S
  S12      1.0000 0.46970  0.23770  0.72390  Biso   1.000  S
  O13      1.0000 0.36350  0.74660  0.22620  Biso   1.000  O
  O14      1.0000 0.63650  0.74660  0.27380  Biso   1.000  O
  O15      1.0000 0.63650  0.25340  0.77380  Biso   1.000  O
  O16      1.0000 0.36350  0.25340  0.72620  Biso   1.000  O
  C187     1.0000 0.48400  0.84250  0.26170  Biso   1.000  C
  C188     1.0000 0.51600  0.84250  0.23830  Biso   1.000  C
  C189     1.0000 0.51600  0.15750  0.73830  Biso   1.000  C
  C190     1.0000 0.48400  0.15750  0.76170  Biso   1.000  C
  H285     1.0000 0.46580  0.90280  0.24640  Biso   1.000  H
  H286     1.0000 0.53420  0.90280  0.25360  Biso   1.000  H
  H287     1.0000 0.53420  0.09720  0.75360  Biso   1.000  H
  H288     1.0000 0.46580  0.09720  0.74640  Biso   1.000  H
  H289     1.0000 0.43940  0.82720  0.28070  Biso   1.000  H
  H290     1.0000 0.56060  0.82720  0.21930  Biso   1.000  H
  H291     1.0000 0.56060  0.17280  0.71930  Biso   1.000  H
  H292     1.0000 0.43940  0.17280  0.78070  Biso   1.000  H
  H293     1.0000 0.54770  0.84760  0.28050  Biso   1.000  H
  H294     1.0000 0.45230  0.84760  0.21950  Biso   1.000  H
  H295     1.0000 0.45230  0.15240  0.71950  Biso   1.000  H
  H296     1.0000 0.54770  0.15240  0.78050  Biso   1.000  H
  C191     1.0000 0.50000  0.66500  0.25000  Biso   1.000  C
  C192     1.0000 0.50000  0.33500  0.75000  Biso   1.000  C
  H297     1.0000 0.54160  0.63710  0.23220  Biso   1.000  H
  H298     1.0000 0.45840  0.63710  0.26780  Biso   1.000  H
  H299     1.0000 0.45840  0.36290  0.76780  Biso   1.000  H
  H300     1.0000 0.54160  0.36290  0.73220  Biso   1.000  H
  H301     1.0000 0.53550  0.67510  0.28100  Biso   1.000  H
  H302     1.0000 0.46450  0.67510  0.21900  Biso   1.000  H
  H303     1.0000 0.46450  0.32490  0.71900  Biso   1.000  H
  H304     1.0000 0.53550  0.32490  0.78100  Biso   1.000  H
  H305     1.0000 0.44710  0.62210  0.25010  Biso   1.000  H
  H306     1.0000 0.55290  0.62210  0.24990  Biso   1.000  H
  H307     1.0000 0.55290  0.37790  0.74990  Biso   1.000  H
  H308     1.0000 0.44710  0.37790  0.75010  Biso   1.000  H
  S13      1.0000 0.43710  0.75630  0.22610  Biso   1.000  S
  S14      1.0000 0.56290  0.75630  0.27390  Biso   1.000  S
  S15      1.0000 0.56290  0.24370  0.77390  Biso   1.000  S
  S16      1.0000 0.43710  0.24370  0.72610  Biso   1.000  S
  C193     1.0000 0.48710  0.85240  0.22590  Biso   1.000  C
  C194     1.0000 0.51290  0.85240  0.27410  Biso   1.000  C
  C195     1.0000 0.51290  0.14760  0.77410  Biso   1.000  C
  C196     1.0000 0.48710  0.14760  0.72590  Biso   1.000  C
  H309     1.0000 0.50880  0.86670  0.19830  Biso   1.000  H
  H310     1.0000 0.49120  0.86670  0.30170  Biso   1.000  H
  H311     1.0000 0.49120  0.13330  0.80170  Biso   1.000  H
  H312     1.0000 0.50880  0.13330  0.69830  Biso   1.000  H
  H313     1.0000 0.43350  0.89330  0.22760  Biso   1.000  H
  H314     1.0000 0.56650  0.89330  0.27240  Biso   1.000  H
  H315     1.0000 0.56650  0.10670  0.77240  Biso   1.000  H
  H316     1.0000 0.43350  0.10670  0.72760  Biso   1.000  H
  H317     1.0000 0.53860  0.86360  0.25210  Biso   1.000  H
  H318     1.0000 0.46140  0.86360  0.24790  Biso   1.000  H
  H319     1.0000 0.46140  0.13640  0.74790  Biso   1.000  H
  H320     1.0000 0.53860  0.13640  0.75210  Biso   1.000  H
  C197     1.0000 0.50900  0.67300  0.22910  Biso   1.000  C
  C198     1.0000 0.49100  0.67300  0.27090  Biso   1.000  C
  C199     1.0000 0.49100  0.32700  0.77090  Biso   1.000  C
  C200     1.0000 0.50900  0.32700  0.72910  Biso   1.000  C
  H321     1.0000 0.52910  0.66760  0.20050  Biso   1.000  H
  H322     1.0000 0.47090  0.66760  0.29950  Biso   1.000  H
  H323     1.0000 0.47090  0.33240  0.79950  Biso   1.000  H
  H324     1.0000 0.52910  0.33240  0.70050  Biso   1.000  H
  H325     1.0000 0.56320  0.69120  0.25300  Biso   1.000  H
  H326     1.0000 0.43680  0.69120  0.24700  Biso   1.000  H
  H327     1.0000 0.43680  0.30880  0.74700  Biso   1.000  H
  H328     1.0000 0.56320  0.30880  0.75300  Biso   1.000  H
  H329     1.0000 0.48430  0.61220  0.23660  Biso   1.000  H
  H330     1.0000 0.51570  0.61220  0.26340  Biso   1.000  H
  H331     1.0000 0.51570  0.38780  0.76340  Biso   1.000  H
  H332     1.0000 0.48430  0.38780  0.73660  Biso   1.000  H
  O17      1.0000 0.40200  0.76300  0.27210  Biso   1.000  O
  O18      1.0000 0.59800  0.76300  0.22790  Biso   1.000  O
  O19      1.0000 0.59800  0.23700  0.72790  Biso   1.000  O
  O20      1.0000 0.40200  0.23700  0.77210  Biso   1.000  O
  N1       1.0000 0.43380  0.57820  0.37809  Biso   1.000  N
  N2       1.0000 0.56620  0.57820  0.12191  Biso   1.000  N
  N3       1.0000 0.56620  0.42180  0.62191  Biso   1.000  N
  N4       1.0000 0.43380  0.42180  0.87809  Biso   1.000  N
  N5       1.0000 0.52750  0.60440  0.37624  Biso   1.000  N
  N6       1.0000 0.47250  0.60440  0.12376  Biso   1.000  N
  N7       1.0000 0.47250  0.39560  0.62376  Biso   1.000  N
  N8       1.0000 0.52750  0.39560  0.87624  Biso   1.000  N
  N9       1.0000 0.66730  0.55320  0.35706  Biso   1.000  N
  N10      1.0000 0.33270  0.55320  0.14294  Biso   1.000  N
  N11      1.0000 0.33270  0.44680  0.64294  Biso   1.000  N
  N12      1.0000 0.66730  0.44680  0.85706  Biso   1.000  N
  N13      1.0000 0.70210  0.64060  0.37710  Biso   1.000  N
  N14      1.0000 0.29790  0.64060  0.12290  Biso   1.000  N
  N15      1.0000 0.29790  0.35940  0.62290  Biso   1.000  N
  N16      1.0000 0.70210  0.35940  0.87710  Biso   1.000  N
  N17      1.0000 0.20950  0.32990  0.18727  Biso   1.000  N
  N18      1.0000 0.79050  0.32990  0.31273  Biso   1.000  N
  N19      1.0000 0.79050  0.67010  0.81273  Biso   1.000  N
  N20      1.0000 0.20950  0.67010  0.68727  Biso   1.000  N
  N21      1.0000 0.24110  0.30300  0.23319  Biso   1.000  N
  N22      1.0000 0.75890  0.30300  0.26681  Biso   1.000  N
  N23      1.0000 0.75890  0.69700  0.76681  Biso   1.000  N
  N24      1.0000 0.24110  0.69700  0.73319  Biso   1.000  N
  N25      1.0000 0.31780  0.35690  0.30508  Biso   1.000  N
  N26      1.0000 0.68220  0.35690  0.19492  Biso   1.000  N
  N27      1.0000 0.68220  0.64310  0.69492  Biso   1.000  N
  N28      1.0000 0.31780  0.64310  0.80508  Biso   1.000  N
  N29      1.0000 0.28460  0.27000  0.31892  Biso   1.000  N
  N30      1.0000 0.71540  0.27000  0.18108  Biso   1.000  N
  N31      1.0000 0.71540  0.73000  0.68108  Biso   1.000  N
  N32      1.0000 0.28460  0.73000  0.81892  Biso   1.000  N
  O21      1.0000 0.25980  0.47390  0.36518  Biso   1.000  O
  O22      1.0000 0.74020  0.47390  0.13482  Biso   1.000  O
  O23      1.0000 0.74020  0.52610  0.63482  Biso   1.000  O
  O24      1.0000 0.25980  0.52610  0.86518  Biso   1.000  O
  O25      1.0000 0.69680  0.81590  0.42352  Biso   1.000  O
  O26      1.0000 0.30320  0.81590  0.07648  Biso   1.000  O
  O27      1.0000 0.30320  0.18410  0.57648  Biso   1.000  O
  O28      1.0000 0.69680  0.18410  0.92352  Biso   1.000  O
  O29      1.0000 0.17630  0.43960  0.10581  Biso   1.000  O
  O30      1.0000 0.82370  0.43960  0.39419  Biso   1.000  O
  O31      1.0000 0.82370  0.56040  0.89419  Biso   1.000  O
  O32      1.0000 0.17630  0.56040  0.60581  Biso   1.000  O
  O33      1.0000 0.18200  0.09870  0.31053  Biso   1.000  O
  O34      1.0000 0.81800  0.09870  0.18947  Biso   1.000  O
  O35      1.0000 0.81800  0.90130  0.68947  Biso   1.000  O
  O36      1.0000 0.18200  0.90130  0.81053  Biso   1.000  O
  O37      1.0000 0.49900  0.81210  0.38650  Biso   1.000  O
  O38      1.0000 0.50100  0.81210  0.11350  Biso   1.000  O
  O39      1.0000 0.50100  0.18790  0.61350  Biso   1.000  O
  O40      1.0000 0.49900  0.18790  0.88650  Biso   1.000  O
  O41      1.0000 0.59180  0.67710  0.47429  Biso   1.000  O
  O42      1.0000 0.40820  0.67710  0.02571  Biso   1.000  O
  O43      1.0000 0.40820  0.32290  0.52571  Biso   1.000  O
  O44      1.0000 0.59180  0.32290  0.97429  Biso   1.000  O
  O45      1.0000 0.05320  0.19800  0.23720  Biso   1.000  O
  O46      1.0000 0.94680  0.19800  0.26280  Biso   1.000  O
  O47      1.0000 0.94680  0.80200  0.76280  Biso   1.000  O
  O48      1.0000 0.05320  0.80200  0.73720  Biso   1.000  O
  O49      1.0000 0.20850  0.09010  0.22117  Biso   1.000  O
  O50      1.0000 0.79150  0.09010  0.27883  Biso   1.000  O
  O51      1.0000 0.79150  0.90990  0.77883  Biso   1.000  O
  O52      1.0000 0.20850  0.90990  0.72117  Biso   1.000  O
  S17      1.0000 0.52816  0.42656  0.33878  Biso   1.000  S
  S18      1.0000 0.47184  0.42656  0.16122  Biso   1.000  S
  S19      1.0000 0.47184  0.57344  0.66122  Biso   1.000  S
  S20      1.0000 0.52816  0.57344  0.83878  Biso   1.000  S
  S21      1.0000 0.31159  0.48503  0.24035  Biso   1.000  S
  S22      1.0000 0.68841  0.48503  0.25965  Biso   1.000  S
  S23      1.0000 0.68841  0.51497  0.75965  Biso   1.000  S
  S24      1.0000 0.31159  0.51497  0.74035  Biso   1.000  S
  S25      1.0000 0.51974  0.91948  0.39257  Biso   1.000  S
  S26      1.0000 0.48026  0.91948  0.10743  Biso   1.000  S
  S27      1.0000 0.48026  0.08052  0.60743  Biso   1.000  S
  S28      1.0000 0.51974  0.08052  0.89257  Biso   1.000  S
  S29      1.0000 0.65160  0.60670  0.50625  Biso   1.000  S
  S30      1.0000 0.34840  0.60670  0.99375  Biso   1.000  S
  S31      1.0000 0.34840  0.39330  0.49375  Biso   1.000  S
  S32      1.0000 0.65160  0.39330  0.00625  Biso   1.000  S
  S33      1.0000 0.00000  0.26480  0.25000  Biso   1.000  S
  S34      1.0000 0.00000  0.73520  0.75000  Biso   1.000  S
  S35      1.0000 0.19030  0.98486  0.22936  Biso   1.000  S
  S36      1.0000 0.80970  0.98486  0.27064  Biso   1.000  S
  S37      1.0000 0.80970  0.01514  0.77064  Biso   1.000  S
  S38      1.0000 0.19030  0.01514  0.72936  Biso   1.000  S
  S39      1.0000 0.16980  0.68980  0.27635  Biso   1.000  S
  S40      1.0000 0.83020  0.68980  0.22365  Biso   1.000  S
  S41      1.0000 0.83020  0.31020  0.72365  Biso   1.000  S
  S42      1.0000 0.16980  0.31020  0.77635  Biso   1.000  S
  Cu1      1.0000 0.37799  0.46217  0.34597  Biso   1.000  Cu
  Cu2      1.0000 0.62201  0.46217  0.15403  Biso   1.000  Cu
  Cu3      1.0000 0.62201  0.53783  0.65403  Biso   1.000  Cu
  Cu4      1.0000 0.37799  0.53783  0.84597  Biso   1.000  Cu
  Cu5      1.0000 0.60770  0.71724  0.39991  Biso   1.000  Cu
  Cu6      1.0000 0.39230  0.71724  0.10009  Biso   1.000  Cu
  Cu7      1.0000 0.39230  0.28276  0.60009  Biso   1.000  Cu
  Cu8      1.0000 0.60770  0.28276  0.89991  Biso   1.000  Cu
  Cu9      1.0000 0.74332  0.44966  0.33443  Biso   1.000  Cu
  Cu10     1.0000 0.25668  0.44966  0.16557  Biso   1.000  Cu
  Cu11     1.0000 0.25668  0.55034  0.66557  Biso   1.000  Cu
  Cu12     1.0000 0.74332  0.55034  0.83443  Biso   1.000  Cu
  Cu13     1.0000 0.22119  0.18653  0.26962  Biso   1.000  Cu
  Cu14     1.0000 0.77881  0.18653  0.23038  Biso   1.000  Cu
  Cu15     1.0000 0.77881  0.81347  0.73038  Biso   1.000  Cu
  Cu16     1.0000 0.22119  0.81347  0.76962  Biso   1.000  Cu
  O53      1.0000 0.39510  0.12200  0.27960  Biso   1.000  O
  O54      1.0000 0.60490  0.12200  0.22040  Biso   1.000  O
  O55      1.0000 0.60490  0.87800  0.72040  Biso   1.000  O
  O56      1.0000 0.39510  0.87800  0.77960  Biso   1.000  O
  S43      1.0000 0.35820  0.20510  0.10650  Biso   1.000  S
  S44      1.0000 0.64180  0.20510  0.39350  Biso   1.000  S
  S45      1.0000 0.64180  0.79490  0.89350  Biso   1.000  S
  S46      1.0000 0.35820  0.79490  0.60650  Biso   1.000  S
  O57      1.0000 0.32980  0.10380  0.09180  Biso   1.000  O
  O58      1.0000 0.67020  0.10380  0.40820  Biso   1.000  O
  O59      1.0000 0.67020  0.89620  0.90820  Biso   1.000  O
  O60      1.0000 0.32980  0.89620  0.59180  Biso   1.000  O
  C201     1.0000 0.47380  0.21240  0.09240  Biso   1.000  C
  C202     1.0000 0.52620  0.21240  0.40760  Biso   1.000  C
  C203     1.0000 0.52620  0.78760  0.90760  Biso   1.000  C
  C204     1.0000 0.47380  0.78760  0.59240  Biso   1.000  C
  H333     1.0000 0.52590  0.25380  0.10680  Biso   1.000  H
  H334     1.0000 0.47410  0.25380  0.39320  Biso   1.000  H
  H335     1.0000 0.47410  0.74620  0.89320  Biso   1.000  H
  H336     1.0000 0.52590  0.74620  0.60680  Biso   1.000  H
  H337     1.0000 0.47290  0.20690  0.06030  Biso   1.000  H
  H338     1.0000 0.52710  0.20690  0.43970  Biso   1.000  H
  H339     1.0000 0.52710  0.79310  0.93970  Biso   1.000  H
  H340     1.0000 0.47290  0.79310  0.56030  Biso   1.000  H
  H341     1.0000 0.48260  0.14970  0.10640  Biso   1.000  H
  H342     1.0000 0.51740  0.14970  0.39360  Biso   1.000  H
  H343     1.0000 0.51740  0.85030  0.89360  Biso   1.000  H
  H344     1.0000 0.48260  0.85030  0.60640  Biso   1.000  H
  C205     1.0000 0.30000  0.27450  0.05810  Biso   1.000  C
  C206     1.0000 0.70000  0.27450  0.44190  Biso   1.000  C
  C207     1.0000 0.70000  0.72550  0.94190  Biso   1.000  C
  C208     1.0000 0.30000  0.72550  0.55810  Biso   1.000  C
  H345     1.0000 0.23930  0.30270  0.05970  Biso   1.000  H
  H346     1.0000 0.76070  0.30270  0.44030  Biso   1.000  H
  H347     1.0000 0.76070  0.69730  0.94030  Biso   1.000  H
  H348     1.0000 0.23930  0.69730  0.55970  Biso   1.000  H
  H349     1.0000 0.29050  0.22800  0.03360  Biso   1.000  H
  H350     1.0000 0.70950  0.22800  0.46640  Biso   1.000  H
  H351     1.0000 0.70950  0.77200  0.96640  Biso   1.000  H
  H352     1.0000 0.29050  0.77200  0.53360  Biso   1.000  H
  H353     1.0000 0.34290  0.32410  0.05220  Biso   1.000  H
  H354     1.0000 0.65710  0.32410  0.44780  Biso   1.000  H
  H355     1.0000 0.65710  0.67590  0.94780  Biso   1.000  H
  H356     1.0000 0.34290  0.67590  0.55220  Biso   1.000  H
  S47      1.0000 0.38220  0.16020  0.06050  Biso   1.000  S
  S48      1.0000 0.61780  0.16020  0.43950  Biso   1.000  S
  S49      1.0000 0.61780  0.83980  0.93950  Biso   1.000  S
  S50      1.0000 0.38220  0.83980  0.56050  Biso   1.000  S
  O61      1.0000 0.43690  0.25180  0.05790  Biso   1.000  O
  O62      1.0000 0.56310  0.25180  0.44210  Biso   1.000  O
  O63      1.0000 0.56310  0.74820  0.94210  Biso   1.000  O
  O64      1.0000 0.43690  0.74820  0.55790  Biso   1.000  O
  C209     1.0000 0.26060  0.20300  0.05060  Biso   1.000  C
  C210     1.0000 0.73940  0.20300  0.44940  Biso   1.000  C
  C211     1.0000 0.73940  0.79700  0.94940  Biso   1.000  C
  C212     1.0000 0.26060  0.79700  0.55060  Biso   1.000  C
  H357     1.0000 0.25290  0.25720  0.02980  Biso   1.000  H
  H358     1.0000 0.74710  0.25720  0.47020  Biso   1.000  H
  H359     1.0000 0.74710  0.74280  0.97020  Biso   1.000  H
  H360     1.0000 0.25290  0.74280  0.52980  Biso   1.000  H
  H361     1.0000 0.24650  0.22350  0.07920  Biso   1.000  H
  H362     1.0000 0.75350  0.22350  0.42080  Biso   1.000  H
  H363     1.0000 0.75350  0.77650  0.92080  Biso   1.000  H
  H364     1.0000 0.24650  0.77650  0.57920  Biso   1.000  H
  H365     1.0000 0.21720  0.15280  0.03740  Biso   1.000  H
  H366     1.0000 0.78280  0.15280  0.46260  Biso   1.000  H
  H367     1.0000 0.78280  0.84720  0.96260  Biso   1.000  H
  H368     1.0000 0.21720  0.84720  0.53740  Biso   1.000  H
  C213     1.0000 0.39150  0.14650  0.12050  Biso   1.000  C
  C214     1.0000 0.60850  0.14650  0.37950  Biso   1.000  C
  C215     1.0000 0.60850  0.85350  0.87950  Biso   1.000  C
  C216     1.0000 0.39150  0.85350  0.62050  Biso   1.000  C
  H369     1.0000 0.33260  0.16720  0.12820  Biso   1.000  H
  H370     1.0000 0.66740  0.16720  0.37180  Biso   1.000  H
  H371     1.0000 0.66740  0.83280  0.87180  Biso   1.000  H
  H372     1.0000 0.33260  0.83280  0.62820  Biso   1.000  H
  H373     1.0000 0.44400  0.18490  0.13700  Biso   1.000  H
  H374     1.0000 0.55600  0.18490  0.36300  Biso   1.000  H
  H375     1.0000 0.55600  0.81510  0.86300  Biso   1.000  H
  H376     1.0000 0.44400  0.81510  0.63700  Biso   1.000  H
  H377     1.0000 0.40290  0.07990  0.12880  Biso   1.000  H
  H378     1.0000 0.59710  0.07990  0.37120  Biso   1.000  H
  H379     1.0000 0.59710  0.92010  0.87120  Biso   1.000  H
  H380     1.0000 0.40290  0.92010  0.62880  Biso   1.000  H
  S51      1.0000 0.32850  0.21180  0.05080  Biso   1.000  S
  S52      1.0000 0.67150  0.21180  0.44920  Biso   1.000  S
  S53      1.0000 0.67150  0.78820  0.94920  Biso   1.000  S
  S54      1.0000 0.32850  0.78820  0.55080  Biso   1.000  S
  C217     1.0000 0.30010  0.11490  0.01280  Biso   1.000  C
  C218     1.0000 0.69990  0.11490  0.48720  Biso   1.000  C
  C219     1.0000 0.69990  0.88510  0.98720  Biso   1.000  C
  C220     1.0000 0.30010  0.88510  0.51280  Biso   1.000  C
  H381     1.0000 0.28970  0.13670  0.98150  Biso   1.000  H
  H382     1.0000 0.71030  0.13670  0.51850  Biso   1.000  H
  H383     1.0000 0.71030  0.86330  0.01850  Biso   1.000  H
  H384     1.0000 0.28970  0.86330  0.48150  Biso   1.000  H
  H385     1.0000 0.26000  0.05990  0.01440  Biso   1.000  H
  H386     1.0000 0.74000  0.05990  0.48560  Biso   1.000  H
  H387     1.0000 0.74000  0.94010  0.98560  Biso   1.000  H
  H388     1.0000 0.26000  0.94010  0.51440  Biso   1.000  H
  H389     1.0000 0.36650  0.09710  0.02350  Biso   1.000  H
  H390     1.0000 0.63350  0.09710  0.47650  Biso   1.000  H
  H391     1.0000 0.63350  0.90290  0.97650  Biso   1.000  H
  H392     1.0000 0.36650  0.90290  0.52350  Biso   1.000  H
  O65      1.0000 0.38590  0.27830  0.02740  Biso   1.000  O
  O66      1.0000 0.61410  0.27830  0.47260  Biso   1.000  O
  O67      1.0000 0.61410  0.72170  0.97260  Biso   1.000  O
  O68      1.0000 0.38590  0.72170  0.52740  Biso   1.000  O
  C221     1.0000 0.41940  0.15330  0.09160  Biso   1.000  C
  C222     1.0000 0.58060  0.15330  0.40840  Biso   1.000  C
  C223     1.0000 0.58060  0.84670  0.90840  Biso   1.000  C
  C224     1.0000 0.41940  0.84670  0.59160  Biso   1.000  C
  H393     1.0000 0.41740  0.08620  0.08360  Biso   1.000  H
  H394     1.0000 0.58260  0.08620  0.41640  Biso   1.000  H
  H395     1.0000 0.58260  0.91380  0.91640  Biso   1.000  H
  H396     1.0000 0.41740  0.91380  0.58360  Biso   1.000  H
  H397     1.0000 0.36950  0.16720  0.10760  Biso   1.000  H
  H398     1.0000 0.63050  0.16720  0.39240  Biso   1.000  H
  H399     1.0000 0.63050  0.83280  0.89240  Biso   1.000  H
  H400     1.0000 0.36950  0.83280  0.60760  Biso   1.000  H
  H401     1.0000 0.48100  0.16840  0.11090  Biso   1.000  H
  H402     1.0000 0.51900  0.16840  0.38910  Biso   1.000  H
  H403     1.0000 0.51900  0.83160  0.88910  Biso   1.000  H
  H404     1.0000 0.48100  0.83160  0.61090  Biso   1.000  H
  O69      1.0000 0.46150  0.24780  0.02130  Biso   1.000  O
  O70      1.0000 0.53850  0.24780  0.47870  Biso   1.000  O
  O71      1.0000 0.53850  0.75220  0.97870  Biso   1.000  O
  O72      1.0000 0.46150  0.75220  0.52130  Biso   1.000  O
  H405     1.0000 0.45040  0.19130  0.00550  Biso   1.000  H
  H406     1.0000 0.54960  0.19130  0.49450  Biso   1.000  H
  H407     1.0000 0.54960  0.80870  0.99450  Biso   1.000  H
  H408     1.0000 0.45040  0.80870  0.50550  Biso   1.000  H
  H409     1.0000 0.45050  0.29530  0.00210  Biso   1.000  H
  H410     1.0000 0.54950  0.29530  0.49790  Biso   1.000  H
  H411     1.0000 0.54950  0.70470  0.99790  Biso   1.000  H
  H412     1.0000 0.45050  0.70470  0.50210  Biso   1.000  H
  O73      1.0000 0.33850  0.11910  0.02030  Biso   1.000  O
  O74      1.0000 0.66150  0.11910  0.47970  Biso   1.000  O
  O75      1.0000 0.66150  0.88090  0.97970  Biso   1.000  O
  O76      1.0000 0.33850  0.88090  0.52030  Biso   1.000  O
  H413     1.0000 0.33070  0.04630  0.01780  Biso   1.000  H
  H414     1.0000 0.66930  0.04630  0.48220  Biso   1.000  H
  H415     1.0000 0.66930  0.95370  0.98220  Biso   1.000  H
  H416     1.0000 0.33070  0.95370  0.51780  Biso   1.000  H
  H417     1.0000 0.37790  0.12140  0.99790  Biso   1.000  H
  H418     1.0000 0.62210  0.12140  0.50210  Biso   1.000  H
  H419     1.0000 0.62210  0.87860  0.00210  Biso   1.000  H
  H420     1.0000 0.37790  0.87860  0.49790  Biso   1.000  H
