data_image0
_cell_length_a       19.6312
_cell_length_b       19.6312
_cell_length_c       28.7145
_cell_angle_alpha    90
_cell_angle_beta     90
_cell_angle_gamma    120

_symmetry_space_group_name_H-M    "P 1"
_symmetry_int_tables_number       1

loop_
  _symmetry_equiv_pos_as_xyz
  'x, y, z'

loop_
  _atom_site_label
  _atom_site_occupancy
  _atom_site_fract_x
  _atom_site_fract_y
  _atom_site_fract_z
  _atom_site_thermal_displace_type
  _atom_site_B_iso_or_equiv
  _atom_site_type_symbol
  Cu1      1.0000 0.50000  0.00000  0.84763  Biso   1.000  Cu
  Cu2      1.0000 0.00000  0.50000  0.84763  Biso   1.000  Cu
  Cu3      1.0000 0.50000  0.50000  0.84763  Biso   1.000  Cu
  Cu4      1.0000 0.00000  0.50000  0.34763  Biso   1.000  Cu
  Cu5      1.0000 0.50000  0.00000  0.34763  Biso   1.000  Cu
  Cu6      1.0000 0.50000  0.50000  0.34763  Biso   1.000  Cu
  Cl1      1.0000 0.48460  0.18512  0.83302  Biso   1.000  Cl
  Cl2      1.0000 0.81488  0.29948  0.83302  Biso   1.000  Cl
  Cl3      1.0000 0.70052  0.51540  0.83302  Biso   1.000  Cl
  Cl4      1.0000 0.51540  0.81488  0.83302  Biso   1.000  Cl
  Cl5      1.0000 0.18512  0.70052  0.83302  Biso   1.000  Cl
  Cl6      1.0000 0.29948  0.48460  0.83302  Biso   1.000  Cl
  Cl7      1.0000 0.81488  0.51540  0.33302  Biso   1.000  Cl
  Cl8      1.0000 0.70052  0.18512  0.33302  Biso   1.000  Cl
  Cl9      1.0000 0.48460  0.29948  0.33302  Biso   1.000  Cl
  Cl10     1.0000 0.18512  0.48460  0.33302  Biso   1.000  Cl
  Cl11     1.0000 0.29948  0.81488  0.33302  Biso   1.000  Cl
  Cl12     1.0000 0.51540  0.70052  0.33302  Biso   1.000  Cl
  O1       1.0000 0.51770  0.13670  0.84927  Biso   1.000  O
  O2       1.0000 0.86330  0.38100  0.84927  Biso   1.000  O
  O3       1.0000 0.61900  0.48230  0.84927  Biso   1.000  O
  O4       1.0000 0.48230  0.86330  0.84927  Biso   1.000  O
  O5       1.0000 0.13670  0.61900  0.84927  Biso   1.000  O
  O6       1.0000 0.38100  0.51770  0.84927  Biso   1.000  O
  O7       1.0000 0.86330  0.48230  0.34927  Biso   1.000  O
  O8       1.0000 0.61900  0.13670  0.34927  Biso   1.000  O
  O9       1.0000 0.51770  0.38100  0.34927  Biso   1.000  O
  O10      1.0000 0.13670  0.51770  0.34927  Biso   1.000  O
  O11      1.0000 0.38100  0.86330  0.34927  Biso   1.000  O
  O12      1.0000 0.48230  0.61900  0.34927  Biso   1.000  O
  O13      1.0000 0.53790  0.26680  0.84100  Biso   1.000  O
  O14      1.0000 0.73320  0.27110  0.84100  Biso   1.000  O
  O15      1.0000 0.72890  0.46210  0.84100  Biso   1.000  O
  O16      1.0000 0.46210  0.73320  0.84100  Biso   1.000  O
  O17      1.0000 0.26680  0.72890  0.84100  Biso   1.000  O
  O18      1.0000 0.27110  0.53790  0.84100  Biso   1.000  O
  O19      1.0000 0.73320  0.46210  0.34100  Biso   1.000  O
  O20      1.0000 0.72890  0.26680  0.34100  Biso   1.000  O
  O21      1.0000 0.53790  0.27110  0.34100  Biso   1.000  O
  O22      1.0000 0.26680  0.53790  0.34100  Biso   1.000  O
  O23      1.0000 0.27110  0.73320  0.34100  Biso   1.000  O
  O24      1.0000 0.46210  0.72890  0.34100  Biso   1.000  O
  O25      1.0000 0.46880  0.17180  0.78392  Biso   1.000  O
  O26      1.0000 0.82820  0.29700  0.78392  Biso   1.000  O
  O27      1.0000 0.70300  0.53120  0.78392  Biso   1.000  O
  O28      1.0000 0.53120  0.82820  0.78392  Biso   1.000  O
  O29      1.0000 0.17180  0.70300  0.78392  Biso   1.000  O
  O30      1.0000 0.29700  0.46880  0.78392  Biso   1.000  O
  O31      1.0000 0.82820  0.53120  0.28392  Biso   1.000  O
  O32      1.0000 0.70300  0.17180  0.28392  Biso   1.000  O
  O33      1.0000 0.46880  0.29700  0.28392  Biso   1.000  O
  O34      1.0000 0.17180  0.46880  0.28392  Biso   1.000  O
  O35      1.0000 0.29700  0.82820  0.28392  Biso   1.000  O
  O36      1.0000 0.53120  0.70300  0.28392  Biso   1.000  O
  O37      1.0000 0.40840  0.15440  0.85940  Biso   1.000  O
  O38      1.0000 0.84560  0.25400  0.85940  Biso   1.000  O
  O39      1.0000 0.74600  0.59160  0.85940  Biso   1.000  O
  O40      1.0000 0.59160  0.84560  0.85940  Biso   1.000  O
  O41      1.0000 0.15440  0.74600  0.85940  Biso   1.000  O
  O42      1.0000 0.25400  0.40840  0.85940  Biso   1.000  O
  O43      1.0000 0.84560  0.59160  0.35940  Biso   1.000  O
  O44      1.0000 0.74600  0.15440  0.35940  Biso   1.000  O
  O45      1.0000 0.40840  0.25400  0.35940  Biso   1.000  O
  O46      1.0000 0.15440  0.40840  0.35940  Biso   1.000  O
  O47      1.0000 0.25400  0.84560  0.35940  Biso   1.000  O
  O48      1.0000 0.59160  0.74600  0.35940  Biso   1.000  O
  Si1      1.0000 0.33250  0.11215  0.51162  Biso   1.000  Si
  Si2      1.0000 0.88785  0.22035  0.51162  Biso   1.000  Si
  Si3      1.0000 0.77965  0.66750  0.51162  Biso   1.000  Si
  Si4      1.0000 0.66750  0.88785  0.51162  Biso   1.000  Si
  Si5      1.0000 0.11215  0.77965  0.51162  Biso   1.000  Si
  Si6      1.0000 0.22035  0.33250  0.51162  Biso   1.000  Si
  Si7      1.0000 0.88785  0.66750  0.01162  Biso   1.000  Si
  Si8      1.0000 0.77965  0.11215  0.01162  Biso   1.000  Si
  Si9      1.0000 0.33250  0.22035  0.01162  Biso   1.000  Si
  Si10     1.0000 0.11215  0.33250  0.01162  Biso   1.000  Si
  Si11     1.0000 0.22035  0.88785  0.01162  Biso   1.000  Si
  Si12     1.0000 0.66750  0.77965  0.01162  Biso   1.000  Si
  Si13     1.0000 0.20916  0.86580  0.68927  Biso   1.000  Si
  Si14     1.0000 0.13420  0.34336  0.68927  Biso   1.000  Si
  Si15     1.0000 0.65664  0.79084  0.68927  Biso   1.000  Si
  Si16     1.0000 0.79084  0.13420  0.68927  Biso   1.000  Si
  Si17     1.0000 0.86580  0.65664  0.68927  Biso   1.000  Si
  Si18     1.0000 0.34336  0.20916  0.68927  Biso   1.000  Si
  Si19     1.0000 0.13420  0.79084  0.18927  Biso   1.000  Si
  Si20     1.0000 0.65664  0.86580  0.18927  Biso   1.000  Si
  Si21     1.0000 0.20916  0.34336  0.18927  Biso   1.000  Si
  Si22     1.0000 0.86580  0.20916  0.18927  Biso   1.000  Si
  Si23     1.0000 0.34336  0.13420  0.18927  Biso   1.000  Si
  Si24     1.0000 0.79084  0.65664  0.18927  Biso   1.000  Si
  N1       1.0000 0.44960  0.03360  0.39780  Biso   1.000  N
  N2       1.0000 0.96640  0.41600  0.39780  Biso   1.000  N
  N3       1.0000 0.58400  0.55040  0.39780  Biso   1.000  N
  N4       1.0000 0.55040  0.96640  0.39780  Biso   1.000  N
  N5       1.0000 0.03360  0.58400  0.39780  Biso   1.000  N
  N6       1.0000 0.41600  0.44960  0.39780  Biso   1.000  N
  N7       1.0000 0.96640  0.55040  0.89780  Biso   1.000  N
  N8       1.0000 0.58400  0.03360  0.89780  Biso   1.000  N
  N9       1.0000 0.44960  0.41600  0.89780  Biso   1.000  N
  N10      1.0000 0.03360  0.44960  0.89780  Biso   1.000  N
  N11      1.0000 0.41600  0.96640  0.89780  Biso   1.000  N
  N12      1.0000 0.55040  0.58400  0.89780  Biso   1.000  N
  N13      1.0000 0.41760  0.96300  0.79786  Biso   1.000  N
  N14      1.0000 0.03700  0.45460  0.79786  Biso   1.000  N
  N15      1.0000 0.54540  0.58240  0.79786  Biso   1.000  N
  N16      1.0000 0.58240  0.03700  0.79786  Biso   1.000  N
  N17      1.0000 0.96300  0.54540  0.79786  Biso   1.000  N
  N18      1.0000 0.45460  0.41760  0.79786  Biso   1.000  N
  N19      1.0000 0.03700  0.58240  0.29786  Biso   1.000  N
  N20      1.0000 0.54540  0.96300  0.29786  Biso   1.000  N
  N21      1.0000 0.41760  0.45460  0.29786  Biso   1.000  N
  N22      1.0000 0.96300  0.41760  0.29786  Biso   1.000  N
  N23      1.0000 0.45460  0.03700  0.29786  Biso   1.000  N
  N24      1.0000 0.58240  0.54540  0.29786  Biso   1.000  N
  C1       1.0000 0.46150  0.10570  0.39899  Biso   1.000  C
  C2       1.0000 0.89430  0.35580  0.39899  Biso   1.000  C
  C3       1.0000 0.64420  0.53850  0.39899  Biso   1.000  C
  C4       1.0000 0.53850  0.89430  0.39899  Biso   1.000  C
  C5       1.0000 0.10570  0.64420  0.39899  Biso   1.000  C
  C6       1.0000 0.35580  0.46150  0.39899  Biso   1.000  C
  C7       1.0000 0.89430  0.53850  0.89899  Biso   1.000  C
  C8       1.0000 0.64420  0.10570  0.89899  Biso   1.000  C
  C9       1.0000 0.46150  0.35580  0.89899  Biso   1.000  C
  C10      1.0000 0.10570  0.46150  0.89899  Biso   1.000  C
  C11      1.0000 0.35580  0.89430  0.89899  Biso   1.000  C
  C12      1.0000 0.53850  0.64420  0.89899  Biso   1.000  C
  H1       1.0000 0.49370  0.14240  0.37590  Biso   1.000  H
  H2       1.0000 0.85760  0.35130  0.37590  Biso   1.000  H
  H3       1.0000 0.64870  0.50630  0.37590  Biso   1.000  H
  H4       1.0000 0.50630  0.85760  0.37590  Biso   1.000  H
  H5       1.0000 0.14240  0.64870  0.37590  Biso   1.000  H
  H6       1.0000 0.35130  0.49370  0.37590  Biso   1.000  H
  H7       1.0000 0.85760  0.50630  0.87590  Biso   1.000  H
  H8       1.0000 0.64870  0.14240  0.87590  Biso   1.000  H
  H9       1.0000 0.49370  0.35130  0.87590  Biso   1.000  H
  H10      1.0000 0.14240  0.49370  0.87590  Biso   1.000  H
  H11      1.0000 0.35130  0.85760  0.87590  Biso   1.000  H
  H12      1.0000 0.50630  0.64870  0.87590  Biso   1.000  H
  C13      1.0000 0.42850  0.12870  0.43279  Biso   1.000  C
  C14      1.0000 0.87130  0.29980  0.43279  Biso   1.000  C
  C15      1.0000 0.70020  0.57150  0.43279  Biso   1.000  C
  C16      1.0000 0.57150  0.87130  0.43279  Biso   1.000  C
  C17      1.0000 0.12870  0.70020  0.43279  Biso   1.000  C
  C18      1.0000 0.29980  0.42850  0.43279  Biso   1.000  C
  C19      1.0000 0.87130  0.57150  0.93279  Biso   1.000  C
  C20      1.0000 0.70020  0.12870  0.93279  Biso   1.000  C
  C21      1.0000 0.42850  0.29980  0.93279  Biso   1.000  C
  C22      1.0000 0.12870  0.42850  0.93279  Biso   1.000  C
  C23      1.0000 0.29980  0.87130  0.93279  Biso   1.000  C
  C24      1.0000 0.57150  0.70020  0.93279  Biso   1.000  C
  H13      1.0000 0.43970  0.18170  0.43240  Biso   1.000  H
  H14      1.0000 0.81830  0.25800  0.43240  Biso   1.000  H
  H15      1.0000 0.74200  0.56030  0.43240  Biso   1.000  H
  H16      1.0000 0.56030  0.81830  0.43240  Biso   1.000  H
  H17      1.0000 0.18170  0.74200  0.43240  Biso   1.000  H
  H18      1.0000 0.25800  0.43970  0.43240  Biso   1.000  H
  H19      1.0000 0.81830  0.56030  0.93240  Biso   1.000  H
  H20      1.0000 0.74200  0.18170  0.93240  Biso   1.000  H
  H21      1.0000 0.43970  0.25800  0.93240  Biso   1.000  H
  H22      1.0000 0.18170  0.43970  0.93240  Biso   1.000  H
  H23      1.0000 0.25800  0.81830  0.93240  Biso   1.000  H
  H24      1.0000 0.56030  0.74200  0.93240  Biso   1.000  H
  C25      1.0000 0.38130  0.08150  0.46665  Biso   1.000  C
  C26      1.0000 0.91850  0.29980  0.46665  Biso   1.000  C
  C27      1.0000 0.70020  0.61870  0.46665  Biso   1.000  C
  C28      1.0000 0.61870  0.91850  0.46665  Biso   1.000  C
  C29      1.0000 0.08150  0.70020  0.46665  Biso   1.000  C
  C30      1.0000 0.29980  0.38130  0.46665  Biso   1.000  C
  C31      1.0000 0.91850  0.61870  0.96665  Biso   1.000  C
  C32      1.0000 0.70020  0.08150  0.96665  Biso   1.000  C
  C33      1.0000 0.38130  0.29980  0.96665  Biso   1.000  C
  C34      1.0000 0.08150  0.38130  0.96665  Biso   1.000  C
  C35      1.0000 0.29980  0.91850  0.96665  Biso   1.000  C
  C36      1.0000 0.61870  0.70020  0.96665  Biso   1.000  C
  C37      1.0000 0.36750  0.00140  0.46354  Biso   1.000  C
  C38      1.0000 0.99860  0.36610  0.46354  Biso   1.000  C
  C39      1.0000 0.63390  0.63250  0.46354  Biso   1.000  C
  C40      1.0000 0.63250  0.99860  0.46354  Biso   1.000  C
  C41      1.0000 0.00140  0.63390  0.46354  Biso   1.000  C
  C42      1.0000 0.36610  0.36750  0.46354  Biso   1.000  C
  C43      1.0000 0.99860  0.63250  0.96354  Biso   1.000  C
  C44      1.0000 0.63390  0.00140  0.96354  Biso   1.000  C
  C45      1.0000 0.36750  0.36610  0.96354  Biso   1.000  C
  C46      1.0000 0.00140  0.36750  0.96354  Biso   1.000  C
  C47      1.0000 0.36610  0.99860  0.96354  Biso   1.000  C
  C48      1.0000 0.63250  0.63390  0.96354  Biso   1.000  C
  H25      1.0000 0.33370  0.96290  0.48540  Biso   1.000  H
  H26      1.0000 0.03710  0.37080  0.48540  Biso   1.000  H
  H27      1.0000 0.62920  0.66630  0.48540  Biso   1.000  H
  H28      1.0000 0.66630  0.03710  0.48540  Biso   1.000  H
  H29      1.0000 0.96290  0.62920  0.48540  Biso   1.000  H
  H30      1.0000 0.37080  0.33370  0.48540  Biso   1.000  H
  H31      1.0000 0.03710  0.66630  0.98540  Biso   1.000  H
  H32      1.0000 0.62920  0.96290  0.98540  Biso   1.000  H
  H33      1.0000 0.33370  0.37080  0.98540  Biso   1.000  H
  H34      1.0000 0.96290  0.33370  0.98540  Biso   1.000  H
  H35      1.0000 0.37080  0.03710  0.98540  Biso   1.000  H
  H36      1.0000 0.66630  0.62920  0.98540  Biso   1.000  H
  C49      1.0000 0.40240  0.98160  0.42997  Biso   1.000  C
  C50      1.0000 0.01840  0.42080  0.42997  Biso   1.000  C
  C51      1.0000 0.57920  0.59760  0.42997  Biso   1.000  C
  C52      1.0000 0.59760  0.01840  0.42997  Biso   1.000  C
  C53      1.0000 0.98160  0.57920  0.42997  Biso   1.000  C
  C54      1.0000 0.42080  0.40240  0.42997  Biso   1.000  C
  C55      1.0000 0.01840  0.59760  0.92997  Biso   1.000  C
  C56      1.0000 0.57920  0.98160  0.92997  Biso   1.000  C
  C57      1.0000 0.40240  0.42080  0.92997  Biso   1.000  C
  C58      1.0000 0.98160  0.40240  0.92997  Biso   1.000  C
  C59      1.0000 0.42080  0.01840  0.92997  Biso   1.000  C
  C60      1.0000 0.59760  0.57920  0.92997  Biso   1.000  C
  H37      1.0000 0.39340  0.92940  0.42900  Biso   1.000  H
  H38      1.0000 0.07060  0.46400  0.42900  Biso   1.000  H
  H39      1.0000 0.53600  0.60660  0.42900  Biso   1.000  H
  H40      1.0000 0.60660  0.07060  0.42900  Biso   1.000  H
  H41      1.0000 0.92940  0.53600  0.42900  Biso   1.000  H
  H42      1.0000 0.46400  0.39340  0.42900  Biso   1.000  H
  H43      1.0000 0.07060  0.60660  0.92900  Biso   1.000  H
  H44      1.0000 0.53600  0.92940  0.92900  Biso   1.000  H
  H45      1.0000 0.39340  0.46400  0.92900  Biso   1.000  H
  H46      1.0000 0.92940  0.39340  0.92900  Biso   1.000  H
  H47      1.0000 0.46400  0.07060  0.92900  Biso   1.000  H
  H48      1.0000 0.60660  0.53600  0.92900  Biso   1.000  H
  C61      1.0000 0.40670  0.21040  0.53130  Biso   1.000  C
  C62      1.0000 0.78960  0.19630  0.53130  Biso   1.000  C
  C63      1.0000 0.80370  0.59330  0.53130  Biso   1.000  C
  C64      1.0000 0.59330  0.78960  0.53130  Biso   1.000  C
  C65      1.0000 0.21040  0.80370  0.53130  Biso   1.000  C
  C66      1.0000 0.19630  0.40670  0.53130  Biso   1.000  C
  C67      1.0000 0.78960  0.59330  0.03130  Biso   1.000  C
  C68      1.0000 0.80370  0.21040  0.03130  Biso   1.000  C
  C69      1.0000 0.40670  0.19630  0.03130  Biso   1.000  C
  C70      1.0000 0.21040  0.40670  0.03130  Biso   1.000  C
  C71      1.0000 0.19630  0.78960  0.03130  Biso   1.000  C
  C72      1.0000 0.59330  0.80370  0.03130  Biso   1.000  C
  H49      1.0000 0.38390  0.22880  0.55510  Biso   1.000  H
  H50      1.0000 0.77120  0.15510  0.55510  Biso   1.000  H
  H51      1.0000 0.84490  0.61610  0.55510  Biso   1.000  H
  H52      1.0000 0.61610  0.77120  0.55510  Biso   1.000  H
  H53      1.0000 0.22880  0.84490  0.55510  Biso   1.000  H
  H54      1.0000 0.15510  0.38390  0.55510  Biso   1.000  H
  H55      1.0000 0.77120  0.61610  0.05510  Biso   1.000  H
  H56      1.0000 0.84490  0.22880  0.05510  Biso   1.000  H
  H57      1.0000 0.38390  0.15510  0.05510  Biso   1.000  H
  H58      1.0000 0.22880  0.38390  0.05510  Biso   1.000  H
  H59      1.0000 0.15510  0.77120  0.05510  Biso   1.000  H
  H60      1.0000 0.61610  0.84490  0.05510  Biso   1.000  H
  H61      1.0000 0.42450  0.24680  0.50490  Biso   1.000  H
  H62      1.0000 0.75320  0.17770  0.50490  Biso   1.000  H
  H63      1.0000 0.82230  0.57550  0.50490  Biso   1.000  H
  H64      1.0000 0.57550  0.75320  0.50490  Biso   1.000  H
  H65      1.0000 0.24680  0.82230  0.50490  Biso   1.000  H
  H66      1.0000 0.17770  0.42450  0.50490  Biso   1.000  H
  H67      1.0000 0.75320  0.57550  0.00490  Biso   1.000  H
  H68      1.0000 0.82230  0.24680  0.00490  Biso   1.000  H
  H69      1.0000 0.42450  0.17770  0.00490  Biso   1.000  H
  H70      1.0000 0.24680  0.42450  0.00490  Biso   1.000  H
  H71      1.0000 0.17770  0.75320  0.00490  Biso   1.000  H
  H72      1.0000 0.57550  0.82230  0.00490  Biso   1.000  H
  H73      1.0000 0.45160  0.20820  0.54460  Biso   1.000  H
  H74      1.0000 0.79180  0.24340  0.54460  Biso   1.000  H
  H75      1.0000 0.75660  0.54840  0.54460  Biso   1.000  H
  H76      1.0000 0.54840  0.79180  0.54460  Biso   1.000  H
  H77      1.0000 0.20820  0.75660  0.54460  Biso   1.000  H
  H78      1.0000 0.24340  0.45160  0.54460  Biso   1.000  H
  H79      1.0000 0.79180  0.54840  0.04460  Biso   1.000  H
  H80      1.0000 0.75660  0.20820  0.04460  Biso   1.000  H
  H81      1.0000 0.45160  0.24340  0.04460  Biso   1.000  H
  H82      1.0000 0.20820  0.45160  0.04460  Biso   1.000  H
  H83      1.0000 0.24340  0.79180  0.04460  Biso   1.000  H
  H84      1.0000 0.54840  0.75660  0.04460  Biso   1.000  H
  C73      1.0000 0.25120  0.11640  0.48290  Biso   1.000  C
  C74      1.0000 0.88360  0.13480  0.48290  Biso   1.000  C
  C75      1.0000 0.86520  0.74880  0.48290  Biso   1.000  C
  C76      1.0000 0.74880  0.88360  0.48290  Biso   1.000  C
  C77      1.0000 0.11640  0.86520  0.48290  Biso   1.000  C
  C78      1.0000 0.13480  0.25120  0.48290  Biso   1.000  C
  C79      1.0000 0.88360  0.74880  0.98290  Biso   1.000  C
  C80      1.0000 0.86520  0.11640  0.98290  Biso   1.000  C
  C81      1.0000 0.25120  0.13480  0.98290  Biso   1.000  C
  C82      1.0000 0.11640  0.25120  0.98290  Biso   1.000  C
  C83      1.0000 0.13480  0.88360  0.98290  Biso   1.000  C
  C84      1.0000 0.74880  0.86520  0.98290  Biso   1.000  C
  H85      1.0000 0.22430  0.13210  0.50560  Biso   1.000  H
  H86      1.0000 0.86790  0.09220  0.50560  Biso   1.000  H
  H87      1.0000 0.90780  0.77570  0.50560  Biso   1.000  H
  H88      1.0000 0.77570  0.86790  0.50560  Biso   1.000  H
  H89      1.0000 0.13210  0.90780  0.50560  Biso   1.000  H
  H90      1.0000 0.09220  0.22430  0.50560  Biso   1.000  H
  H91      1.0000 0.86790  0.77570  0.00560  Biso   1.000  H
  H92      1.0000 0.90780  0.13210  0.00560  Biso   1.000  H
  H93      1.0000 0.22430  0.09220  0.00560  Biso   1.000  H
  H94      1.0000 0.13210  0.22430  0.00560  Biso   1.000  H
  H95      1.0000 0.09220  0.86790  0.00560  Biso   1.000  H
  H96      1.0000 0.77570  0.90780  0.00560  Biso   1.000  H
  H97      1.0000 0.21390  0.06450  0.47020  Biso   1.000  H
  H98      1.0000 0.93550  0.14940  0.47020  Biso   1.000  H
  H99      1.0000 0.85060  0.78610  0.47020  Biso   1.000  H
  H100     1.0000 0.78610  0.93550  0.47020  Biso   1.000  H
  H101     1.0000 0.06450  0.85060  0.47020  Biso   1.000  H
  H102     1.0000 0.14940  0.21390  0.47020  Biso   1.000  H
  H103     1.0000 0.93550  0.78610  0.97020  Biso   1.000  H
  H104     1.0000 0.85060  0.06450  0.97020  Biso   1.000  H
  H105     1.0000 0.21390  0.14940  0.97020  Biso   1.000  H
  H106     1.0000 0.06450  0.21390  0.97020  Biso   1.000  H
  H107     1.0000 0.14940  0.93550  0.97020  Biso   1.000  H
  H108     1.0000 0.78610  0.85060  0.97020  Biso   1.000  H
  H109     1.0000 0.27200  0.15490  0.45750  Biso   1.000  H
  H110     1.0000 0.84510  0.11710  0.45750  Biso   1.000  H
  H111     1.0000 0.88290  0.72800  0.45750  Biso   1.000  H
  H112     1.0000 0.72800  0.84510  0.45750  Biso   1.000  H
  H113     1.0000 0.15490  0.88290  0.45750  Biso   1.000  H
  H114     1.0000 0.11710  0.27200  0.45750  Biso   1.000  H
  H115     1.0000 0.84510  0.72800  0.95750  Biso   1.000  H
  H116     1.0000 0.88290  0.15490  0.95750  Biso   1.000  H
  H117     1.0000 0.27200  0.11710  0.95750  Biso   1.000  H
  H118     1.0000 0.15490  0.27200  0.95750  Biso   1.000  H
  H119     1.0000 0.11710  0.84510  0.95750  Biso   1.000  H
  H120     1.0000 0.72800  0.88290  0.95750  Biso   1.000  H
  C85      1.0000 0.29710  0.04010  0.56090  Biso   1.000  C
  C86      1.0000 0.95990  0.25700  0.56090  Biso   1.000  C
  C87      1.0000 0.74300  0.70290  0.56090  Biso   1.000  C
  C88      1.0000 0.70290  0.95990  0.56090  Biso   1.000  C
  C89      1.0000 0.04010  0.74300  0.56090  Biso   1.000  C
  C90      1.0000 0.25700  0.29710  0.56090  Biso   1.000  C
  C91      1.0000 0.95990  0.70290  0.06090  Biso   1.000  C
  C92      1.0000 0.74300  0.04010  0.06090  Biso   1.000  C
  C93      1.0000 0.29710  0.25700  0.06090  Biso   1.000  C
  C94      1.0000 0.04010  0.29710  0.06090  Biso   1.000  C
  C95      1.0000 0.25700  0.95990  0.06090  Biso   1.000  C
  C96      1.0000 0.70290  0.74300  0.06090  Biso   1.000  C
  C97      1.0000 0.22230  0.01250  0.57966  Biso   1.000  C
  C98      1.0000 0.98750  0.20980  0.57966  Biso   1.000  C
  C99      1.0000 0.79020  0.77770  0.57966  Biso   1.000  C
  C100     1.0000 0.77770  0.98750  0.57966  Biso   1.000  C
  C101     1.0000 0.01250  0.79020  0.57966  Biso   1.000  C
  C102     1.0000 0.20980  0.22230  0.57966  Biso   1.000  C
  C103     1.0000 0.98750  0.77770  0.07966  Biso   1.000  C
  C104     1.0000 0.79020  0.01250  0.07966  Biso   1.000  C
  C105     1.0000 0.22230  0.20980  0.07966  Biso   1.000  C
  C106     1.0000 0.01250  0.22230  0.07966  Biso   1.000  C
  C107     1.0000 0.20980  0.98750  0.07966  Biso   1.000  C
  C108     1.0000 0.77770  0.79020  0.07966  Biso   1.000  C
  H121     1.0000 0.18830  0.02860  0.56640  Biso   1.000  H
  H122     1.0000 0.97140  0.15970  0.56640  Biso   1.000  H
  H123     1.0000 0.84030  0.81170  0.56640  Biso   1.000  H
  H124     1.0000 0.81170  0.97140  0.56640  Biso   1.000  H
  H125     1.0000 0.02860  0.84030  0.56640  Biso   1.000  H
  H126     1.0000 0.15970  0.18830  0.56640  Biso   1.000  H
  H127     1.0000 0.97140  0.81170  0.06640  Biso   1.000  H
  H128     1.0000 0.84030  0.02860  0.06640  Biso   1.000  H
  H129     1.0000 0.18830  0.15970  0.06640  Biso   1.000  H
  H130     1.0000 0.02860  0.18830  0.06640  Biso   1.000  H
  H131     1.0000 0.15970  0.97140  0.06640  Biso   1.000  H
  H132     1.0000 0.81170  0.84030  0.06640  Biso   1.000  H
  C109     1.0000 0.19690  0.96140  0.61781  Biso   1.000  C
  C110     1.0000 0.03860  0.23550  0.61781  Biso   1.000  C
  C111     1.0000 0.76450  0.80310  0.61781  Biso   1.000  C
  C112     1.0000 0.80310  0.03860  0.61781  Biso   1.000  C
  C113     1.0000 0.96140  0.76450  0.61781  Biso   1.000  C
  C114     1.0000 0.23550  0.19690  0.61781  Biso   1.000  C
  C115     1.0000 0.03860  0.80310  0.11781  Biso   1.000  C
  C116     1.0000 0.76450  0.96140  0.11781  Biso   1.000  C
  C117     1.0000 0.19690  0.23550  0.11781  Biso   1.000  C
  C118     1.0000 0.96140  0.19690  0.11781  Biso   1.000  C
  C119     1.0000 0.23550  0.03860  0.11781  Biso   1.000  C
  C120     1.0000 0.80310  0.76450  0.11781  Biso   1.000  C
  H133     1.0000 0.14500  0.94240  0.62910  Biso   1.000  H
  H134     1.0000 0.05760  0.20260  0.62910  Biso   1.000  H
  H135     1.0000 0.79740  0.85500  0.62910  Biso   1.000  H
  H136     1.0000 0.85500  0.05760  0.62910  Biso   1.000  H
  H137     1.0000 0.94240  0.79740  0.62910  Biso   1.000  H
  H138     1.0000 0.20260  0.14500  0.62910  Biso   1.000  H
  H139     1.0000 0.05760  0.85500  0.12910  Biso   1.000  H
  H140     1.0000 0.79740  0.94240  0.12910  Biso   1.000  H
  H141     1.0000 0.14500  0.20260  0.12910  Biso   1.000  H
  H142     1.0000 0.94240  0.14500  0.12910  Biso   1.000  H
  H143     1.0000 0.20260  0.05760  0.12910  Biso   1.000  H
  H144     1.0000 0.85500  0.79740  0.12910  Biso   1.000  H
  C121     1.0000 0.24410  0.93690  0.63996  Biso   1.000  C
  C122     1.0000 0.06310  0.30720  0.63996  Biso   1.000  C
  C123     1.0000 0.69280  0.75590  0.63996  Biso   1.000  C
  C124     1.0000 0.75590  0.06310  0.63996  Biso   1.000  C
  C125     1.0000 0.93690  0.69280  0.63996  Biso   1.000  C
  C126     1.0000 0.30720  0.24410  0.63996  Biso   1.000  C
  C127     1.0000 0.06310  0.75590  0.13996  Biso   1.000  C
  C128     1.0000 0.69280  0.93690  0.13996  Biso   1.000  C
  C129     1.0000 0.24410  0.30720  0.13996  Biso   1.000  C
  C130     1.0000 0.93690  0.24410  0.13996  Biso   1.000  C
  C131     1.0000 0.30720  0.06310  0.13996  Biso   1.000  C
  C132     1.0000 0.75590  0.69280  0.13996  Biso   1.000  C
  C133     1.0000 0.32090  0.96860  0.62104  Biso   1.000  C
  C134     1.0000 0.03140  0.35230  0.62104  Biso   1.000  C
  C135     1.0000 0.64770  0.67910  0.62104  Biso   1.000  C
  C136     1.0000 0.67910  0.03140  0.62104  Biso   1.000  C
  C137     1.0000 0.96860  0.64770  0.62104  Biso   1.000  C
  C138     1.0000 0.35230  0.32090  0.62104  Biso   1.000  C
  C139     1.0000 0.03140  0.67910  0.12104  Biso   1.000  C
  C140     1.0000 0.64770  0.96860  0.12104  Biso   1.000  C
  C141     1.0000 0.32090  0.35230  0.12104  Biso   1.000  C
  C142     1.0000 0.96860  0.32090  0.12104  Biso   1.000  C
  C143     1.0000 0.35230  0.03140  0.12104  Biso   1.000  C
  C144     1.0000 0.67910  0.64770  0.12104  Biso   1.000  C
  H145     1.0000 0.35650  0.95520  0.63500  Biso   1.000  H
  H146     1.0000 0.04480  0.40130  0.63500  Biso   1.000  H
  H147     1.0000 0.59870  0.64350  0.63500  Biso   1.000  H
  H148     1.0000 0.64350  0.04480  0.63500  Biso   1.000  H
  H149     1.0000 0.95520  0.59870  0.63500  Biso   1.000  H
  H150     1.0000 0.40130  0.35650  0.63500  Biso   1.000  H
  H151     1.0000 0.04480  0.64350  0.13500  Biso   1.000  H
  H152     1.0000 0.59870  0.95520  0.13500  Biso   1.000  H
  H153     1.0000 0.35650  0.40130  0.13500  Biso   1.000  H
  H154     1.0000 0.95520  0.35650  0.13500  Biso   1.000  H
  H155     1.0000 0.40130  0.04480  0.13500  Biso   1.000  H
  H156     1.0000 0.64350  0.59870  0.13500  Biso   1.000  H
  C145     1.0000 0.34550  0.01830  0.58301  Biso   1.000  C
  C146     1.0000 0.98170  0.32720  0.58301  Biso   1.000  C
  C147     1.0000 0.67280  0.65450  0.58301  Biso   1.000  C
  C148     1.0000 0.65450  0.98170  0.58301  Biso   1.000  C
  C149     1.0000 0.01830  0.67280  0.58301  Biso   1.000  C
  C150     1.0000 0.32720  0.34550  0.58301  Biso   1.000  C
  C151     1.0000 0.98170  0.65450  0.08301  Biso   1.000  C
  C152     1.0000 0.67280  0.01830  0.08301  Biso   1.000  C
  C153     1.0000 0.34550  0.32720  0.08301  Biso   1.000  C
  C154     1.0000 0.01830  0.34550  0.08301  Biso   1.000  C
  C155     1.0000 0.32720  0.98170  0.08301  Biso   1.000  C
  C156     1.0000 0.65450  0.67280  0.08301  Biso   1.000  C
  H157     1.0000 0.39760  0.03810  0.57170  Biso   1.000  H
  H158     1.0000 0.96190  0.35950  0.57170  Biso   1.000  H
  H159     1.0000 0.64050  0.60240  0.57170  Biso   1.000  H
  H160     1.0000 0.60240  0.96190  0.57170  Biso   1.000  H
  H161     1.0000 0.03810  0.64050  0.57170  Biso   1.000  H
  H162     1.0000 0.35950  0.39760  0.57170  Biso   1.000  H
  H163     1.0000 0.96190  0.60240  0.07170  Biso   1.000  H
  H164     1.0000 0.64050  0.03810  0.07170  Biso   1.000  H
  H165     1.0000 0.39760  0.35950  0.07170  Biso   1.000  H
  H166     1.0000 0.03810  0.39760  0.07170  Biso   1.000  H
  H167     1.0000 0.35950  0.96190  0.07170  Biso   1.000  H
  H168     1.0000 0.60240  0.64050  0.07170  Biso   1.000  H
  C157     1.0000 0.12320  0.86060  0.71670  Biso   1.000  C
  C158     1.0000 0.13940  0.26260  0.71670  Biso   1.000  C
  C159     1.0000 0.73740  0.87680  0.71670  Biso   1.000  C
  C160     1.0000 0.87680  0.13940  0.71670  Biso   1.000  C
  C161     1.0000 0.86060  0.73740  0.71670  Biso   1.000  C
  C162     1.0000 0.26260  0.12320  0.71670  Biso   1.000  C
  C163     1.0000 0.13940  0.87680  0.21670  Biso   1.000  C
  C164     1.0000 0.73740  0.86060  0.21670  Biso   1.000  C
  C165     1.0000 0.12320  0.26260  0.21670  Biso   1.000  C
  C166     1.0000 0.86060  0.12320  0.21670  Biso   1.000  C
  C167     1.0000 0.26260  0.13940  0.21670  Biso   1.000  C
  C168     1.0000 0.87680  0.73740  0.21670  Biso   1.000  C
  H169     1.0000 0.07980  0.84070  0.69430  Biso   1.000  H
  H170     1.0000 0.15930  0.23910  0.69430  Biso   1.000  H
  H171     1.0000 0.76090  0.92020  0.69430  Biso   1.000  H
  H172     1.0000 0.92020  0.15930  0.69430  Biso   1.000  H
  H173     1.0000 0.84070  0.76090  0.69430  Biso   1.000  H
  H174     1.0000 0.23910  0.07980  0.69430  Biso   1.000  H
  H175     1.0000 0.15930  0.92020  0.19430  Biso   1.000  H
  H176     1.0000 0.76090  0.84070  0.19430  Biso   1.000  H
  H177     1.0000 0.07980  0.23910  0.19430  Biso   1.000  H
  H178     1.0000 0.84070  0.07980  0.19430  Biso   1.000  H
  H179     1.0000 0.23910  0.15930  0.19430  Biso   1.000  H
  H180     1.0000 0.92020  0.76090  0.19430  Biso   1.000  H
  H181     1.0000 0.13590  0.91320  0.72710  Biso   1.000  H
  H182     1.0000 0.08680  0.22270  0.72710  Biso   1.000  H
  H183     1.0000 0.77730  0.86410  0.72710  Biso   1.000  H
  H184     1.0000 0.86410  0.08680  0.72710  Biso   1.000  H
  H185     1.0000 0.91320  0.77730  0.72710  Biso   1.000  H
  H186     1.0000 0.22270  0.13590  0.72710  Biso   1.000  H
  H187     1.0000 0.08680  0.86410  0.22710  Biso   1.000  H
  H188     1.0000 0.77730  0.91320  0.22710  Biso   1.000  H
  H189     1.0000 0.13590  0.22270  0.22710  Biso   1.000  H
  H190     1.0000 0.91320  0.13590  0.22710  Biso   1.000  H
  H191     1.0000 0.22270  0.08680  0.22710  Biso   1.000  H
  H192     1.0000 0.86410  0.77730  0.22710  Biso   1.000  H
  H193     1.0000 0.10760  0.82510  0.74360  Biso   1.000  H
  H194     1.0000 0.17490  0.28250  0.74360  Biso   1.000  H
  H195     1.0000 0.71750  0.89240  0.74360  Biso   1.000  H
  H196     1.0000 0.89240  0.17490  0.74360  Biso   1.000  H
  H197     1.0000 0.82510  0.71750  0.74360  Biso   1.000  H
  H198     1.0000 0.28250  0.10760  0.74360  Biso   1.000  H
  H199     1.0000 0.17490  0.89240  0.24360  Biso   1.000  H
  H200     1.0000 0.71750  0.82510  0.24360  Biso   1.000  H
  H201     1.0000 0.10760  0.28250  0.24360  Biso   1.000  H
  H202     1.0000 0.82510  0.10760  0.24360  Biso   1.000  H
  H203     1.0000 0.28250  0.17490  0.24360  Biso   1.000  H
  H204     1.0000 0.89240  0.71750  0.24360  Biso   1.000  H
  C169     1.0000 0.18820  0.76920  0.66950  Biso   1.000  C
  C170     1.0000 0.23080  0.41900  0.66950  Biso   1.000  C
  C171     1.0000 0.58100  0.81180  0.66950  Biso   1.000  C
  C172     1.0000 0.81180  0.23080  0.66950  Biso   1.000  C
  C173     1.0000 0.76920  0.58100  0.66950  Biso   1.000  C
  C174     1.0000 0.41900  0.18820  0.66950  Biso   1.000  C
  C175     1.0000 0.23080  0.81180  0.16950  Biso   1.000  C
  C176     1.0000 0.58100  0.76920  0.16950  Biso   1.000  C
  C177     1.0000 0.18820  0.41900  0.16950  Biso   1.000  C
  C178     1.0000 0.76920  0.18820  0.16950  Biso   1.000  C
  C179     1.0000 0.41900  0.23080  0.16950  Biso   1.000  C
  C180     1.0000 0.81180  0.58100  0.16950  Biso   1.000  C
  H205     1.0000 0.14530  0.74890  0.64670  Biso   1.000  H
  H206     1.0000 0.25110  0.39640  0.64670  Biso   1.000  H
  H207     1.0000 0.60360  0.85470  0.64670  Biso   1.000  H
  H208     1.0000 0.85470  0.25110  0.64670  Biso   1.000  H
  H209     1.0000 0.74890  0.60360  0.64670  Biso   1.000  H
  H210     1.0000 0.39640  0.14530  0.64670  Biso   1.000  H
  H211     1.0000 0.25110  0.85470  0.14670  Biso   1.000  H
  H212     1.0000 0.60360  0.74890  0.14670  Biso   1.000  H
  H213     1.0000 0.14530  0.39640  0.14670  Biso   1.000  H
  H214     1.0000 0.74890  0.14530  0.14670  Biso   1.000  H
  H215     1.0000 0.39640  0.25110  0.14670  Biso   1.000  H
  H216     1.0000 0.85470  0.60360  0.14670  Biso   1.000  H
  H217     1.0000 0.17250  0.73330  0.69620  Biso   1.000  H
  H218     1.0000 0.26670  0.43920  0.69620  Biso   1.000  H
  H219     1.0000 0.56080  0.82750  0.69620  Biso   1.000  H
  H220     1.0000 0.82750  0.26670  0.69620  Biso   1.000  H
  H221     1.0000 0.73330  0.56080  0.69620  Biso   1.000  H
  H222     1.0000 0.43920  0.17250  0.69620  Biso   1.000  H
  H223     1.0000 0.26670  0.82750  0.19620  Biso   1.000  H
  H224     1.0000 0.56080  0.73330  0.19620  Biso   1.000  H
  H225     1.0000 0.17250  0.43920  0.19620  Biso   1.000  H
  H226     1.0000 0.73330  0.17250  0.19620  Biso   1.000  H
  H227     1.0000 0.43920  0.26670  0.19620  Biso   1.000  H
  H228     1.0000 0.82750  0.56080  0.19620  Biso   1.000  H
  H229     1.0000 0.23530  0.77330  0.65510  Biso   1.000  H
  H230     1.0000 0.22670  0.46200  0.65510  Biso   1.000  H
  H231     1.0000 0.53800  0.76470  0.65510  Biso   1.000  H
  H232     1.0000 0.76470  0.22670  0.65510  Biso   1.000  H
  H233     1.0000 0.77330  0.53800  0.65510  Biso   1.000  H
  H234     1.0000 0.46200  0.23530  0.65510  Biso   1.000  H
  H235     1.0000 0.22670  0.76470  0.15510  Biso   1.000  H
  H236     1.0000 0.53800  0.77330  0.15510  Biso   1.000  H
  H237     1.0000 0.23530  0.46200  0.15510  Biso   1.000  H
  H238     1.0000 0.77330  0.23530  0.15510  Biso   1.000  H
  H239     1.0000 0.46200  0.22670  0.15510  Biso   1.000  H
  H240     1.0000 0.76470  0.53800  0.15510  Biso   1.000  H
  C181     1.0000 0.29240  0.90510  0.73280  Biso   1.000  C
  C182     1.0000 0.09490  0.38730  0.73280  Biso   1.000  C
  C183     1.0000 0.61270  0.70760  0.73280  Biso   1.000  C
  C184     1.0000 0.70760  0.09490  0.73280  Biso   1.000  C
  C185     1.0000 0.90510  0.61270  0.73280  Biso   1.000  C
  C186     1.0000 0.38730  0.29240  0.73280  Biso   1.000  C
  C187     1.0000 0.09490  0.70760  0.23280  Biso   1.000  C
  C188     1.0000 0.61270  0.90510  0.23280  Biso   1.000  C
  C189     1.0000 0.29240  0.38730  0.23280  Biso   1.000  C
  C190     1.0000 0.90510  0.29240  0.23280  Biso   1.000  C
  C191     1.0000 0.38730  0.09490  0.23280  Biso   1.000  C
  C192     1.0000 0.70760  0.61270  0.23280  Biso   1.000  C
  C193     1.0000 0.29940  0.95530  0.76613  Biso   1.000  C
  C194     1.0000 0.04470  0.34410  0.76613  Biso   1.000  C
  C195     1.0000 0.65590  0.70060  0.76613  Biso   1.000  C
  C196     1.0000 0.70060  0.04470  0.76613  Biso   1.000  C
  C197     1.0000 0.95530  0.65590  0.76613  Biso   1.000  C
  C198     1.0000 0.34410  0.29940  0.76613  Biso   1.000  C
  C199     1.0000 0.04470  0.70060  0.26613  Biso   1.000  C
  C200     1.0000 0.65590  0.95530  0.26613  Biso   1.000  C
  C201     1.0000 0.29940  0.34410  0.26613  Biso   1.000  C
  C202     1.0000 0.95530  0.29940  0.26613  Biso   1.000  C
  C203     1.0000 0.34410  0.04470  0.26613  Biso   1.000  C
  C204     1.0000 0.70060  0.65590  0.26613  Biso   1.000  C
  H241     1.0000 0.26160  0.97210  0.76750  Biso   1.000  H
  H242     1.0000 0.02790  0.28950  0.76750  Biso   1.000  H
  H243     1.0000 0.71050  0.73840  0.76750  Biso   1.000  H
  H244     1.0000 0.73840  0.02790  0.76750  Biso   1.000  H
  H245     1.0000 0.97210  0.71050  0.76750  Biso   1.000  H
  H246     1.0000 0.28950  0.26160  0.76750  Biso   1.000  H
  H247     1.0000 0.02790  0.73840  0.26750  Biso   1.000  H
  H248     1.0000 0.71050  0.97210  0.26750  Biso   1.000  H
  H249     1.0000 0.26160  0.28950  0.26750  Biso   1.000  H
  H250     1.0000 0.97210  0.26160  0.26750  Biso   1.000  H
  H251     1.0000 0.28950  0.02790  0.26750  Biso   1.000  H
  H252     1.0000 0.73840  0.71050  0.26750  Biso   1.000  H
  C205     1.0000 0.35970  0.98450  0.79930  Biso   1.000  C
  C206     1.0000 0.01550  0.37520  0.79930  Biso   1.000  C
  C207     1.0000 0.62480  0.64030  0.79930  Biso   1.000  C
  C208     1.0000 0.64030  0.01550  0.79930  Biso   1.000  C
  C209     1.0000 0.98450  0.62480  0.79930  Biso   1.000  C
  C210     1.0000 0.37520  0.35970  0.79930  Biso   1.000  C
  C211     1.0000 0.01550  0.64030  0.29930  Biso   1.000  C
  C212     1.0000 0.62480  0.98450  0.29930  Biso   1.000  C
  C213     1.0000 0.35970  0.37520  0.29930  Biso   1.000  C
  C214     1.0000 0.98450  0.35970  0.29930  Biso   1.000  C
  C215     1.0000 0.37520  0.01550  0.29930  Biso   1.000  C
  C216     1.0000 0.64030  0.62480  0.29930  Biso   1.000  C
  H253     1.0000 0.36130  0.01910  0.82290  Biso   1.000  H
  H254     1.0000 0.98090  0.34220  0.82290  Biso   1.000  H
  H255     1.0000 0.65780  0.63870  0.82290  Biso   1.000  H
  H256     1.0000 0.63870  0.98090  0.82290  Biso   1.000  H
  H257     1.0000 0.01910  0.65780  0.82290  Biso   1.000  H
  H258     1.0000 0.34220  0.36130  0.82290  Biso   1.000  H
  H259     1.0000 0.98090  0.63870  0.32290  Biso   1.000  H
  H260     1.0000 0.65780  0.01910  0.32290  Biso   1.000  H
  H261     1.0000 0.36130  0.34220  0.32290  Biso   1.000  H
  H262     1.0000 0.01910  0.36130  0.32290  Biso   1.000  H
  H263     1.0000 0.34220  0.98090  0.32290  Biso   1.000  H
  H264     1.0000 0.63870  0.65780  0.32290  Biso   1.000  H
  C217     1.0000 0.40690  0.90830  0.76502  Biso   1.000  C
  C218     1.0000 0.09170  0.49860  0.76502  Biso   1.000  C
  C219     1.0000 0.50140  0.59310  0.76502  Biso   1.000  C
  C220     1.0000 0.59310  0.09170  0.76502  Biso   1.000  C
  C221     1.0000 0.90830  0.50140  0.76502  Biso   1.000  C
  C222     1.0000 0.49860  0.40690  0.76502  Biso   1.000  C
  C223     1.0000 0.09170  0.59310  0.26502  Biso   1.000  C
  C224     1.0000 0.50140  0.90830  0.26502  Biso   1.000  C
  C225     1.0000 0.40690  0.49860  0.26502  Biso   1.000  C
  C226     1.0000 0.90830  0.40690  0.26502  Biso   1.000  C
  C227     1.0000 0.49860  0.09170  0.26502  Biso   1.000  C
  C228     1.0000 0.59310  0.50140  0.26502  Biso   1.000  C
  H265     1.0000 0.44260  0.88890  0.76440  Biso   1.000  H
  H266     1.0000 0.11110  0.55370  0.76440  Biso   1.000  H
  H267     1.0000 0.44630  0.55740  0.76440  Biso   1.000  H
  H268     1.0000 0.55740  0.11110  0.76440  Biso   1.000  H
  H269     1.0000 0.88890  0.44630  0.76440  Biso   1.000  H
  H270     1.0000 0.55370  0.44260  0.76440  Biso   1.000  H
  H271     1.0000 0.11110  0.55740  0.26440  Biso   1.000  H
  H272     1.0000 0.44630  0.88890  0.26440  Biso   1.000  H
  H273     1.0000 0.44260  0.55370  0.26440  Biso   1.000  H
  H274     1.0000 0.88890  0.44260  0.26440  Biso   1.000  H
  H275     1.0000 0.55370  0.11110  0.26440  Biso   1.000  H
  H276     1.0000 0.55740  0.44630  0.26440  Biso   1.000  H
  C229     1.0000 0.34890  0.88060  0.73371  Biso   1.000  C
  C230     1.0000 0.11940  0.46830  0.73371  Biso   1.000  C
  C231     1.0000 0.53170  0.65110  0.73371  Biso   1.000  C
  C232     1.0000 0.65110  0.11940  0.73371  Biso   1.000  C
  C233     1.0000 0.88060  0.53170  0.73371  Biso   1.000  C
  C234     1.0000 0.46830  0.34890  0.73371  Biso   1.000  C
  C235     1.0000 0.11940  0.65110  0.23371  Biso   1.000  C
  C236     1.0000 0.53170  0.88060  0.23371  Biso   1.000  C
  C237     1.0000 0.34890  0.46830  0.23371  Biso   1.000  C
  C238     1.0000 0.88060  0.34890  0.23371  Biso   1.000  C
  C239     1.0000 0.46830  0.11940  0.23371  Biso   1.000  C
  C240     1.0000 0.65110  0.53170  0.23371  Biso   1.000  C
  H277     1.0000 0.34560  0.84340  0.71140  Biso   1.000  H
  H278     1.0000 0.15660  0.50220  0.71140  Biso   1.000  H
  H279     1.0000 0.49780  0.65440  0.71140  Biso   1.000  H
  H280     1.0000 0.65440  0.15660  0.71140  Biso   1.000  H
  H281     1.0000 0.84340  0.49780  0.71140  Biso   1.000  H
  H282     1.0000 0.50220  0.34560  0.71140  Biso   1.000  H
  H283     1.0000 0.15660  0.65440  0.21140  Biso   1.000  H
  H284     1.0000 0.49780  0.84340  0.21140  Biso   1.000  H
  H285     1.0000 0.34560  0.50220  0.21140  Biso   1.000  H
  H286     1.0000 0.84340  0.34560  0.21140  Biso   1.000  H
  H287     1.0000 0.50220  0.15660  0.21140  Biso   1.000  H
  H288     1.0000 0.65440  0.49780  0.21140  Biso   1.000  H
  Cl13     1.0000 0.64560  0.24970  0.46110  Biso   1.000  Cl
  Cl14     1.0000 0.75030  0.39590  0.46110  Biso   1.000  Cl
  Cl15     1.0000 0.60410  0.35440  0.46110  Biso   1.000  Cl
  Cl16     1.0000 0.35440  0.75030  0.46110  Biso   1.000  Cl
  Cl17     1.0000 0.24970  0.60410  0.46110  Biso   1.000  Cl
  Cl18     1.0000 0.39590  0.64560  0.46110  Biso   1.000  Cl
  Cl19     1.0000 0.75030  0.35440  0.96110  Biso   1.000  Cl
  Cl20     1.0000 0.60410  0.24970  0.96110  Biso   1.000  Cl
  Cl21     1.0000 0.64560  0.39590  0.96110  Biso   1.000  Cl
  Cl22     1.0000 0.24970  0.64560  0.96110  Biso   1.000  Cl
  Cl23     1.0000 0.39590  0.75030  0.96110  Biso   1.000  Cl
  Cl24     1.0000 0.35440  0.60410  0.96110  Biso   1.000  Cl
  C241     1.0000 0.66670  0.33330  0.42830  Biso   1.000  C
  C242     1.0000 0.33330  0.66670  0.42830  Biso   1.000  C
  C243     1.0000 0.66670  0.33330  0.92830  Biso   1.000  C
  C244     1.0000 0.33330  0.66670  0.92830  Biso   1.000  C
