data_image0
_cell_length_a       21.0039
_cell_length_b       18.1673
_cell_length_c       18.7689
_cell_angle_alpha    90
_cell_angle_beta     90
_cell_angle_gamma    90

_symmetry_space_group_name_H-M    "P 1"
_symmetry_int_tables_number       1

loop_
  _symmetry_equiv_pos_as_xyz
  'x, y, z'

loop_
  _atom_site_label
  _atom_site_occupancy
  _atom_site_fract_x
  _atom_site_fract_y
  _atom_site_fract_z
  _atom_site_thermal_displace_type
  _atom_site_B_iso_or_equiv
  _atom_site_type_symbol
  Cu1      1.0000 0.54009  0.95691  0.46415  Biso   1.000  Cu
  Cu2      1.0000 0.04009  0.54309  0.03585  Biso   1.000  Cu
  Cu3      1.0000 0.45991  0.45690  0.53585  Biso   1.000  Cu
  Cu4      1.0000 0.95991  0.04309  0.96415  Biso   1.000  Cu
  Cu5      1.0000 0.45991  0.04309  0.53585  Biso   1.000  Cu
  Cu6      1.0000 0.95991  0.45690  0.96415  Biso   1.000  Cu
  Cu7      1.0000 0.54009  0.54309  0.46415  Biso   1.000  Cu
  Cu8      1.0000 0.04009  0.95691  0.03585  Biso   1.000  Cu
  Cu9      1.0000 0.45305  0.95814  0.97579  Biso   1.000  Cu
  Cu10     1.0000 0.95305  0.54186  0.52421  Biso   1.000  Cu
  Cu11     1.0000 0.54695  0.45814  0.02421  Biso   1.000  Cu
  Cu12     1.0000 0.04695  0.04186  0.47579  Biso   1.000  Cu
  Cu13     1.0000 0.54695  0.04186  0.02421  Biso   1.000  Cu
  Cu14     1.0000 0.04695  0.45814  0.47579  Biso   1.000  Cu
  Cu15     1.0000 0.45305  0.54186  0.97579  Biso   1.000  Cu
  Cu16     1.0000 0.95305  0.95814  0.52421  Biso   1.000  Cu
  O1       1.0000 0.58585  0.95156  0.55530  Biso   1.000  O
  O2       1.0000 0.08585  0.54844  0.94470  Biso   1.000  O
  O3       1.0000 0.41415  0.45156  0.44470  Biso   1.000  O
  O4       1.0000 0.91415  0.04844  0.05530  Biso   1.000  O
  O5       1.0000 0.41415  0.04844  0.44470  Biso   1.000  O
  O6       1.0000 0.91415  0.45156  0.05530  Biso   1.000  O
  O7       1.0000 0.58585  0.54844  0.55530  Biso   1.000  O
  O8       1.0000 0.08585  0.95156  0.94470  Biso   1.000  O
  O9       1.0000 0.51820  0.02341  0.61577  Biso   1.000  O
  O10      1.0000 0.01820  0.47659  0.88423  Biso   1.000  O
  O11      1.0000 0.48180  0.52341  0.38423  Biso   1.000  O
  O12      1.0000 0.98180  0.97659  0.11577  Biso   1.000  O
  O13      1.0000 0.48180  0.97659  0.38423  Biso   1.000  O
  O14      1.0000 0.98180  0.52341  0.11577  Biso   1.000  O
  O15      1.0000 0.51820  0.47659  0.61577  Biso   1.000  O
  O16      1.0000 0.01820  0.02341  0.88423  Biso   1.000  O
  O17      1.0000 0.50802  0.95172  0.89146  Biso   1.000  O
  O18      1.0000 0.00802  0.54828  0.60854  Biso   1.000  O
  O19      1.0000 0.49198  0.45172  0.10854  Biso   1.000  O
  O20      1.0000 0.99198  0.04828  0.39146  Biso   1.000  O
  O21      1.0000 0.49198  0.04828  0.10854  Biso   1.000  O
  O22      1.0000 0.99198  0.45172  0.39146  Biso   1.000  O
  O23      1.0000 0.50802  0.54828  0.89146  Biso   1.000  O
  O24      1.0000 0.00802  0.95172  0.60854  Biso   1.000  O
  O25      1.0000 0.58813  0.02113  0.93220  Biso   1.000  O
  O26      1.0000 0.08813  0.47887  0.56780  Biso   1.000  O
  O27      1.0000 0.41187  0.52113  0.06780  Biso   1.000  O
  O28      1.0000 0.91187  0.97887  0.43220  Biso   1.000  O
  O29      1.0000 0.41187  0.97887  0.06780  Biso   1.000  O
  O30      1.0000 0.91187  0.52113  0.43220  Biso   1.000  O
  O31      1.0000 0.58813  0.47887  0.93220  Biso   1.000  O
  O32      1.0000 0.08813  0.02113  0.56780  Biso   1.000  O
  O33      1.0000 0.48324  0.88012  0.49982  Biso   1.000  O
  O34      1.0000 0.98324  0.61988  0.00018  Biso   1.000  O
  O35      1.0000 0.51676  0.38012  0.50018  Biso   1.000  O
  O36      1.0000 0.01676  0.11988  0.99982  Biso   1.000  O
  O37      1.0000 0.51676  0.11988  0.50018  Biso   1.000  O
  O38      1.0000 0.01676  0.38012  0.99982  Biso   1.000  O
  O39      1.0000 0.48324  0.61988  0.49982  Biso   1.000  O
  O40      1.0000 0.98324  0.88012  0.00018  Biso   1.000  O
  O41      1.0000 0.41517  0.95171  0.56039  Biso   1.000  O
  O42      1.0000 0.91517  0.54829  0.93961  Biso   1.000  O
  O43      1.0000 0.58483  0.45171  0.43961  Biso   1.000  O
  O44      1.0000 0.08483  0.04829  0.06039  Biso   1.000  O
  O45      1.0000 0.58483  0.04829  0.43961  Biso   1.000  O
  O46      1.0000 0.08483  0.45171  0.06039  Biso   1.000  O
  O47      1.0000 0.41517  0.54829  0.56039  Biso   1.000  O
  O48      1.0000 0.91517  0.95171  0.93961  Biso   1.000  O
  O49      1.0000 0.50379  0.88121  0.02103  Biso   1.000  O
  O50      1.0000 0.00379  0.61879  0.47897  Biso   1.000  O
  O51      1.0000 0.49621  0.38121  0.97897  Biso   1.000  O
  O52      1.0000 0.99621  0.11879  0.52103  Biso   1.000  O
  O53      1.0000 0.49621  0.11879  0.97897  Biso   1.000  O
  O54      1.0000 0.99621  0.38121  0.52103  Biso   1.000  O
  O55      1.0000 0.50379  0.61879  0.02103  Biso   1.000  O
  O56      1.0000 0.00379  0.88121  0.47897  Biso   1.000  O
  O57      1.0000 0.58387  0.95068  0.06156  Biso   1.000  O
  O58      1.0000 0.08387  0.54932  0.43844  Biso   1.000  O
  O59      1.0000 0.41613  0.45068  0.93844  Biso   1.000  O
  O60      1.0000 0.91613  0.04932  0.56156  Biso   1.000  O
  O61      1.0000 0.41613  0.04932  0.93844  Biso   1.000  O
  O62      1.0000 0.91613  0.45068  0.56156  Biso   1.000  O
  O63      1.0000 0.58387  0.54932  0.06156  Biso   1.000  O
  O64      1.0000 0.08387  0.95068  0.43844  Biso   1.000  O
  O65      1.0000 0.59915  0.88562  0.40207  Biso   1.000  O
  O66      1.0000 0.09915  0.61438  0.09793  Biso   1.000  O
  O67      1.0000 0.40085  0.38562  0.59793  Biso   1.000  O
  O68      1.0000 0.90085  0.11438  0.90207  Biso   1.000  O
  O69      1.0000 0.40085  0.11438  0.59793  Biso   1.000  O
  O70      1.0000 0.90085  0.38562  0.90207  Biso   1.000  O
  O71      1.0000 0.59915  0.61438  0.40207  Biso   1.000  O
  O72      1.0000 0.09915  0.88562  0.09793  Biso   1.000  O
  H1       1.0000 0.62560  0.86710  0.42910  Biso   1.000  H
  H2       1.0000 0.12560  0.63290  0.07090  Biso   1.000  H
  H3       1.0000 0.37440  0.36710  0.57090  Biso   1.000  H
  H4       1.0000 0.87440  0.13290  0.92910  Biso   1.000  H
  H5       1.0000 0.37440  0.13290  0.57090  Biso   1.000  H
  H6       1.0000 0.87440  0.36710  0.92910  Biso   1.000  H
  H7       1.0000 0.62560  0.63290  0.42910  Biso   1.000  H
  H8       1.0000 0.12560  0.86710  0.07090  Biso   1.000  H
  O73      1.0000 0.37965  0.88869  0.93368  Biso   1.000  O
  O74      1.0000 0.87965  0.61131  0.56632  Biso   1.000  O
  O75      1.0000 0.62035  0.38869  0.06632  Biso   1.000  O
  O76      1.0000 0.12035  0.11131  0.43368  Biso   1.000  O
  O77      1.0000 0.62035  0.11131  0.06632  Biso   1.000  O
  O78      1.0000 0.12035  0.38869  0.43368  Biso   1.000  O
  O79      1.0000 0.37965  0.61131  0.93368  Biso   1.000  O
  O80      1.0000 0.87965  0.88869  0.56632  Biso   1.000  O
  H9       1.0000 0.34500  0.89520  0.95620  Biso   1.000  H
  H10      1.0000 0.84500  0.60480  0.54380  Biso   1.000  H
  H11      1.0000 0.65500  0.39520  0.04380  Biso   1.000  H
  H12      1.0000 0.15500  0.10480  0.45620  Biso   1.000  H
  H13      1.0000 0.65500  0.10480  0.04380  Biso   1.000  H
  H14      1.0000 0.15500  0.39520  0.45620  Biso   1.000  H
  H15      1.0000 0.34500  0.60480  0.95620  Biso   1.000  H
  H16      1.0000 0.84500  0.89520  0.54380  Biso   1.000  H
  B1       1.0000 0.55658  0.93358  0.74822  Biso   1.000  B
  B2       1.0000 0.05658  0.56642  0.75178  Biso   1.000  B
  B3       1.0000 0.44342  0.43358  0.25178  Biso   1.000  B
  B4       1.0000 0.94342  0.06642  0.24822  Biso   1.000  B
  B5       1.0000 0.44342  0.06642  0.25178  Biso   1.000  B
  B6       1.0000 0.94342  0.43358  0.24822  Biso   1.000  B
  B7       1.0000 0.55658  0.56642  0.74822  Biso   1.000  B
  B8       1.0000 0.05658  0.93358  0.75178  Biso   1.000  B
  H17      1.0000 0.50380  0.92500  0.74700  Biso   1.000  H
  H18      1.0000 0.00380  0.57500  0.75300  Biso   1.000  H
  H19      1.0000 0.49620  0.42500  0.25300  Biso   1.000  H
  H20      1.0000 0.99620  0.07500  0.24700  Biso   1.000  H
  H21      1.0000 0.49620  0.07500  0.25300  Biso   1.000  H
  H22      1.0000 0.99620  0.42500  0.24700  Biso   1.000  H
  H23      1.0000 0.50380  0.57500  0.74700  Biso   1.000  H
  H24      1.0000 0.00380  0.92500  0.75300  Biso   1.000  H
  B9       1.0000 0.59053  0.02400  0.74972  Biso   1.000  B
  B10      1.0000 0.09053  0.47600  0.75028  Biso   1.000  B
  B11      1.0000 0.40947  0.52400  0.25028  Biso   1.000  B
  B12      1.0000 0.90947  0.97600  0.24972  Biso   1.000  B
  B13      1.0000 0.40947  0.97600  0.25028  Biso   1.000  B
  B14      1.0000 0.90947  0.52400  0.24972  Biso   1.000  B
  B15      1.0000 0.59053  0.47600  0.74972  Biso   1.000  B
  B16      1.0000 0.09053  0.02400  0.75028  Biso   1.000  B
  H25      1.0000 0.56010  0.07460  0.74970  Biso   1.000  H
  H26      1.0000 0.06010  0.42540  0.75030  Biso   1.000  H
  H27      1.0000 0.43990  0.57460  0.25030  Biso   1.000  H
  H28      1.0000 0.93990  0.92540  0.24970  Biso   1.000  H
  H29      1.0000 0.43990  0.92540  0.25030  Biso   1.000  H
  H30      1.0000 0.93990  0.57460  0.24970  Biso   1.000  H
  H31      1.0000 0.56010  0.42540  0.74970  Biso   1.000  H
  H32      1.0000 0.06010  0.07460  0.75030  Biso   1.000  H
  B17      1.0000 0.66398  0.02060  0.70330  Biso   1.000  B
  B18      1.0000 0.16398  0.47940  0.79670  Biso   1.000  B
  B19      1.0000 0.33602  0.52060  0.29670  Biso   1.000  B
  B20      1.0000 0.83602  0.97940  0.20330  Biso   1.000  B
  B21      1.0000 0.33602  0.97940  0.29670  Biso   1.000  B
  B22      1.0000 0.83602  0.52060  0.20330  Biso   1.000  B
  B23      1.0000 0.66398  0.47940  0.70330  Biso   1.000  B
  B24      1.0000 0.16398  0.02060  0.79670  Biso   1.000  B
  H33      1.0000 0.68190  0.06860  0.67160  Biso   1.000  H
  H34      1.0000 0.18190  0.43140  0.82840  Biso   1.000  H
  H35      1.0000 0.31810  0.56860  0.32840  Biso   1.000  H
  H36      1.0000 0.81810  0.93140  0.17160  Biso   1.000  H
  H37      1.0000 0.31810  0.93140  0.32840  Biso   1.000  H
  H38      1.0000 0.81810  0.56860  0.17160  Biso   1.000  H
  H39      1.0000 0.68190  0.43140  0.67160  Biso   1.000  H
  H40      1.0000 0.18190  0.06860  0.82840  Biso   1.000  H
  B25      1.0000 0.67594  0.92750  0.67470  Biso   1.000  B
  B26      1.0000 0.17594  0.57250  0.82530  Biso   1.000  B
  B27      1.0000 0.32406  0.42750  0.32530  Biso   1.000  B
  B28      1.0000 0.82406  0.07250  0.17470  Biso   1.000  B
  B29      1.0000 0.32406  0.07250  0.32530  Biso   1.000  B
  B30      1.0000 0.82406  0.42750  0.17470  Biso   1.000  B
  B31      1.0000 0.67594  0.57250  0.67470  Biso   1.000  B
  B32      1.0000 0.17594  0.92750  0.82530  Biso   1.000  B
  H41      1.0000 0.70200  0.91460  0.62420  Biso   1.000  H
  H42      1.0000 0.20200  0.58540  0.87580  Biso   1.000  H
  H43      1.0000 0.29800  0.41460  0.37580  Biso   1.000  H
  H44      1.0000 0.79800  0.08540  0.12420  Biso   1.000  H
  H45      1.0000 0.29800  0.08540  0.37580  Biso   1.000  H
  H46      1.0000 0.79800  0.41460  0.12420  Biso   1.000  H
  H47      1.0000 0.70200  0.58540  0.62420  Biso   1.000  H
  H48      1.0000 0.20200  0.91460  0.87580  Biso   1.000  H
  B33      1.0000 0.60936  0.87420  0.70187  Biso   1.000  B
  B34      1.0000 0.10936  0.62580  0.79813  Biso   1.000  B
  B35      1.0000 0.39064  0.37420  0.29813  Biso   1.000  B
  B36      1.0000 0.89064  0.12580  0.20187  Biso   1.000  B
  B37      1.0000 0.39064  0.12580  0.29813  Biso   1.000  B
  B38      1.0000 0.89064  0.37420  0.20187  Biso   1.000  B
  B39      1.0000 0.60936  0.62580  0.70187  Biso   1.000  B
  B40      1.0000 0.10936  0.87420  0.79813  Biso   1.000  B
  H49      1.0000 0.59170  0.82680  0.66930  Biso   1.000  H
  H50      1.0000 0.09170  0.67320  0.83070  Biso   1.000  H
  H51      1.0000 0.40830  0.32680  0.33070  Biso   1.000  H
  H52      1.0000 0.90830  0.17320  0.16930  Biso   1.000  H
  H53      1.0000 0.40830  0.17320  0.33070  Biso   1.000  H
  H54      1.0000 0.90830  0.32680  0.16930  Biso   1.000  H
  H55      1.0000 0.59170  0.67320  0.66930  Biso   1.000  H
  H56      1.0000 0.09170  0.82680  0.83070  Biso   1.000  H
  B41      1.0000 0.66267  0.02030  0.79797  Biso   1.000  B
  B42      1.0000 0.16267  0.47970  0.70203  Biso   1.000  B
  B43      1.0000 0.33733  0.52030  0.20203  Biso   1.000  B
  B44      1.0000 0.83733  0.97970  0.29797  Biso   1.000  B
  B45      1.0000 0.33733  0.97970  0.20203  Biso   1.000  B
  B46      1.0000 0.83733  0.52030  0.29797  Biso   1.000  B
  B47      1.0000 0.66267  0.47970  0.79797  Biso   1.000  B
  B48      1.0000 0.16267  0.02030  0.70203  Biso   1.000  B
  H57      1.0000 0.67990  0.06810  0.83040  Biso   1.000  H
  H58      1.0000 0.17990  0.43190  0.66960  Biso   1.000  H
  H59      1.0000 0.32010  0.56810  0.16960  Biso   1.000  H
  H60      1.0000 0.82010  0.93190  0.33040  Biso   1.000  H
  H61      1.0000 0.32010  0.93190  0.16960  Biso   1.000  H
  H62      1.0000 0.82010  0.56810  0.33040  Biso   1.000  H
  H63      1.0000 0.67990  0.43190  0.83040  Biso   1.000  H
  H64      1.0000 0.17990  0.06810  0.66960  Biso   1.000  H
  B49      1.0000 0.71543  0.96080  0.75150  Biso   1.000  B
  B50      1.0000 0.21543  0.53920  0.74850  Biso   1.000  B
  B51      1.0000 0.28457  0.46080  0.24850  Biso   1.000  B
  B52      1.0000 0.78457  0.03920  0.25150  Biso   1.000  B
  B53      1.0000 0.28457  0.03920  0.24850  Biso   1.000  B
  B54      1.0000 0.78457  0.46080  0.25150  Biso   1.000  B
  B55      1.0000 0.71543  0.53920  0.75150  Biso   1.000  B
  B56      1.0000 0.21543  0.96080  0.74850  Biso   1.000  B
  H65      1.0000 0.76820  0.96970  0.75260  Biso   1.000  H
  H66      1.0000 0.26820  0.53030  0.74740  Biso   1.000  H
  H67      1.0000 0.23180  0.46970  0.24740  Biso   1.000  H
  H68      1.0000 0.73180  0.03030  0.25260  Biso   1.000  H
  H69      1.0000 0.23180  0.03030  0.24740  Biso   1.000  H
  H70      1.0000 0.73180  0.46970  0.25260  Biso   1.000  H
  H71      1.0000 0.76820  0.53030  0.75260  Biso   1.000  H
  H72      1.0000 0.26820  0.96970  0.74740  Biso   1.000  H
  B57      1.0000 0.68170  0.87050  0.75080  Biso   1.000  B
  B58      1.0000 0.18170  0.62950  0.74920  Biso   1.000  B
  B59      1.0000 0.31830  0.37050  0.24920  Biso   1.000  B
  B60      1.0000 0.81830  0.12950  0.25080  Biso   1.000  B
  B61      1.0000 0.31830  0.12950  0.24920  Biso   1.000  B
  B62      1.0000 0.81830  0.37050  0.25080  Biso   1.000  B
  B63      1.0000 0.68170  0.62950  0.75080  Biso   1.000  B
  B64      1.0000 0.18170  0.87050  0.74920  Biso   1.000  B
  H73      1.0000 0.71210  0.81980  0.75160  Biso   1.000  H
  H74      1.0000 0.21210  0.68020  0.74840  Biso   1.000  H
  H75      1.0000 0.28790  0.31980  0.24840  Biso   1.000  H
  H76      1.0000 0.78790  0.18020  0.25160  Biso   1.000  H
  H77      1.0000 0.28790  0.18020  0.24840  Biso   1.000  H
  H78      1.0000 0.78790  0.31980  0.25160  Biso   1.000  H
  H79      1.0000 0.71210  0.68020  0.75160  Biso   1.000  H
  H80      1.0000 0.21210  0.81980  0.74840  Biso   1.000  H
  B65      1.0000 0.60748  0.87420  0.79610  Biso   1.000  B
  B66      1.0000 0.10748  0.62580  0.70390  Biso   1.000  B
  B67      1.0000 0.39252  0.37420  0.20390  Biso   1.000  B
  B68      1.0000 0.89252  0.12580  0.29610  Biso   1.000  B
  B69      1.0000 0.39252  0.12580  0.20390  Biso   1.000  B
  B70      1.0000 0.89252  0.37420  0.29610  Biso   1.000  B
  B71      1.0000 0.60748  0.62580  0.79610  Biso   1.000  B
  B72      1.0000 0.10748  0.87420  0.70390  Biso   1.000  B
  H81      1.0000 0.58840  0.82660  0.82740  Biso   1.000  H
  H82      1.0000 0.08840  0.67340  0.67260  Biso   1.000  H
  H83      1.0000 0.41160  0.32660  0.17260  Biso   1.000  H
  H84      1.0000 0.91160  0.17340  0.32740  Biso   1.000  H
  H85      1.0000 0.41160  0.17340  0.17260  Biso   1.000  H
  H86      1.0000 0.91160  0.32660  0.32740  Biso   1.000  H
  H87      1.0000 0.58840  0.67340  0.82740  Biso   1.000  H
  H88      1.0000 0.08840  0.82660  0.67260  Biso   1.000  H
  B73      1.0000 0.67323  0.92740  0.82665  Biso   1.000  B
  B74      1.0000 0.17323  0.57260  0.67335  Biso   1.000  B
  B75      1.0000 0.32677  0.42740  0.17335  Biso   1.000  B
  B76      1.0000 0.82677  0.07260  0.32665  Biso   1.000  B
  B77      1.0000 0.32677  0.07260  0.17335  Biso   1.000  B
  B78      1.0000 0.82677  0.42740  0.32665  Biso   1.000  B
  B79      1.0000 0.67323  0.57260  0.82665  Biso   1.000  B
  B80      1.0000 0.17323  0.92740  0.67335  Biso   1.000  B
  H89      1.0000 0.69750  0.91440  0.87830  Biso   1.000  H
  H90      1.0000 0.19750  0.58560  0.62170  Biso   1.000  H
  H91      1.0000 0.30250  0.41440  0.12170  Biso   1.000  H
  H92      1.0000 0.80250  0.08560  0.37830  Biso   1.000  H
  H93      1.0000 0.30250  0.08560  0.12170  Biso   1.000  H
  H94      1.0000 0.80250  0.41440  0.37830  Biso   1.000  H
  H95      1.0000 0.69750  0.58560  0.87830  Biso   1.000  H
  H96      1.0000 0.19750  0.91440  0.62170  Biso   1.000  H
  B81      1.0000 0.33040  0.79890  0.53217  Biso   1.000  B
  B82      1.0000 0.83040  0.70110  0.96783  Biso   1.000  B
  B83      1.0000 0.66960  0.29890  0.46783  Biso   1.000  B
  B84      1.0000 0.16960  0.20110  0.03217  Biso   1.000  B
  B85      1.0000 0.66960  0.20110  0.46783  Biso   1.000  B
  B86      1.0000 0.16960  0.29890  0.03217  Biso   1.000  B
  B87      1.0000 0.33040  0.70110  0.53217  Biso   1.000  B
  B88      1.0000 0.83040  0.79890  0.96783  Biso   1.000  B
  H97      1.0000 0.30360  0.83190  0.49170  Biso   1.000  H
  H98      1.0000 0.80360  0.66810  0.00830  Biso   1.000  H
  H99      1.0000 0.69640  0.33190  0.50830  Biso   1.000  H
  H100     1.0000 0.19640  0.16810  0.99170  Biso   1.000  H
  H101     1.0000 0.69640  0.16810  0.50830  Biso   1.000  H
  H102     1.0000 0.19640  0.33190  0.99170  Biso   1.000  H
  H103     1.0000 0.30360  0.66810  0.49170  Biso   1.000  H
  H104     1.0000 0.80360  0.83190  0.00830  Biso   1.000  H
  B89      1.0000 0.33824  0.82896  0.62255  Biso   1.000  B
  B90      1.0000 0.83824  0.67104  0.87745  Biso   1.000  B
  B91      1.0000 0.66176  0.32896  0.37745  Biso   1.000  B
  B92      1.0000 0.16176  0.17104  0.12255  Biso   1.000  B
  B93      1.0000 0.66176  0.17104  0.37745  Biso   1.000  B
  B94      1.0000 0.16176  0.32896  0.12255  Biso   1.000  B
  B95      1.0000 0.33824  0.67104  0.62255  Biso   1.000  B
  B96      1.0000 0.83824  0.82896  0.87745  Biso   1.000  B
  H105     1.0000 0.31640  0.88180  0.64110  Biso   1.000  H
  H106     1.0000 0.81640  0.61820  0.85890  Biso   1.000  H
  H107     1.0000 0.68360  0.38180  0.35890  Biso   1.000  H
  H108     1.0000 0.18360  0.11820  0.14110  Biso   1.000  H
  H109     1.0000 0.68360  0.11820  0.35890  Biso   1.000  H
  H110     1.0000 0.18360  0.38180  0.14110  Biso   1.000  H
  H111     1.0000 0.31640  0.61820  0.64110  Biso   1.000  H
  H112     1.0000 0.81640  0.88180  0.85890  Biso   1.000  H
  B97      1.0000 0.41404  0.79927  0.65526  Biso   1.000  B
  B98      1.0000 0.91404  0.70073  0.84474  Biso   1.000  B
  B99      1.0000 0.58596  0.29927  0.34474  Biso   1.000  B
  B100     1.0000 0.08596  0.20073  0.15526  Biso   1.000  B
  B101     1.0000 0.58596  0.20073  0.34474  Biso   1.000  B
  B102     1.0000 0.08596  0.29927  0.15526  Biso   1.000  B
  B103     1.0000 0.41404  0.70073  0.65526  Biso   1.000  B
  B104     1.0000 0.91404  0.79927  0.84474  Biso   1.000  B
  H113     1.0000 0.44160  0.83250  0.69490  Biso   1.000  H
  H114     1.0000 0.94160  0.66750  0.80510  Biso   1.000  H
  H115     1.0000 0.55840  0.33250  0.30510  Biso   1.000  H
  H116     1.0000 0.05840  0.16750  0.19490  Biso   1.000  H
  H117     1.0000 0.55840  0.16750  0.30510  Biso   1.000  H
  H118     1.0000 0.05840  0.33250  0.19490  Biso   1.000  H
  H119     1.0000 0.44160  0.66750  0.69490  Biso   1.000  H
  H120     1.0000 0.94160  0.83250  0.80510  Biso   1.000  H
  B105     1.0000 0.45210  0.75000  0.58570  Biso   1.000  B
  B106     1.0000 0.95210  0.75000  0.91430  Biso   1.000  B
  B107     1.0000 0.54790  0.25000  0.41430  Biso   1.000  B
  B108     1.0000 0.04790  0.25000  0.08570  Biso   1.000  B
  H121     1.0000 0.50510  0.75000  0.57980  Biso   1.000  H
  H122     1.0000 0.00510  0.75000  0.92020  Biso   1.000  H
  H123     1.0000 0.49490  0.25000  0.42020  Biso   1.000  H
  H124     1.0000 0.99490  0.25000  0.07980  Biso   1.000  H
  B109     1.0000 0.40090  0.75000  0.51010  Biso   1.000  B
  B110     1.0000 0.90090  0.75000  0.98990  Biso   1.000  B
  B111     1.0000 0.59910  0.25000  0.48990  Biso   1.000  B
  B112     1.0000 0.09910  0.25000  0.01010  Biso   1.000  B
  H125     1.0000 0.42050  0.75000  0.45470  Biso   1.000  H
  H126     1.0000 0.92050  0.75000  0.04530  Biso   1.000  H
  H127     1.0000 0.57950  0.25000  0.54530  Biso   1.000  H
  H128     1.0000 0.07950  0.25000  0.95470  Biso   1.000  H
  B113     1.0000 0.29150  0.75000  0.60240  Biso   1.000  B
  B114     1.0000 0.79150  0.75000  0.89760  Biso   1.000  B
  B115     1.0000 0.70850  0.25000  0.39760  Biso   1.000  B
  B116     1.0000 0.20850  0.25000  0.10240  Biso   1.000  B
  H129     1.0000 0.23840  0.75000  0.60810  Biso   1.000  H
  H130     1.0000 0.73840  0.75000  0.89190  Biso   1.000  H
  H131     1.0000 0.76160  0.25000  0.39190  Biso   1.000  H
  H132     1.0000 0.26160  0.25000  0.10810  Biso   1.000  H
  B117     1.0000 0.34300  0.75000  0.67830  Biso   1.000  B
  B118     1.0000 0.84300  0.75000  0.82170  Biso   1.000  B
  B119     1.0000 0.65700  0.25000  0.32170  Biso   1.000  B
  B120     1.0000 0.15700  0.25000  0.17830  Biso   1.000  B
  H133     1.0000 0.32380  0.75000  0.73400  Biso   1.000  H
  H134     1.0000 0.82380  0.75000  0.76600  Biso   1.000  H
  H135     1.0000 0.67620  0.25000  0.26600  Biso   1.000  H
  H136     1.0000 0.17620  0.25000  0.23400  Biso   1.000  H
  B121     1.0000 0.57694  0.79890  0.16799  Biso   1.000  B
  B122     1.0000 0.07694  0.70110  0.33201  Biso   1.000  B
  B123     1.0000 0.42306  0.29890  0.83201  Biso   1.000  B
  B124     1.0000 0.92306  0.20110  0.66799  Biso   1.000  B
  B125     1.0000 0.42306  0.20110  0.83201  Biso   1.000  B
  B126     1.0000 0.92306  0.29890  0.66799  Biso   1.000  B
  B127     1.0000 0.57694  0.70110  0.16799  Biso   1.000  B
  B128     1.0000 0.07694  0.79890  0.33201  Biso   1.000  B
  H137     1.0000 0.54910  0.83200  0.20750  Biso   1.000  H
  H138     1.0000 0.04910  0.66800  0.29250  Biso   1.000  H
  H139     1.0000 0.45090  0.33200  0.79250  Biso   1.000  H
  H140     1.0000 0.95090  0.16800  0.70750  Biso   1.000  H
  H141     1.0000 0.45090  0.16800  0.79250  Biso   1.000  H
  H142     1.0000 0.95090  0.33200  0.70750  Biso   1.000  H
  H143     1.0000 0.54910  0.66800  0.20750  Biso   1.000  H
  H144     1.0000 0.04910  0.83200  0.29250  Biso   1.000  H
  B129     1.0000 0.65259  0.82870  0.13610  Biso   1.000  B
  B130     1.0000 0.15259  0.67130  0.36390  Biso   1.000  B
  B131     1.0000 0.34741  0.32870  0.86390  Biso   1.000  B
  B132     1.0000 0.84741  0.17130  0.63610  Biso   1.000  B
  B133     1.0000 0.34741  0.17130  0.86390  Biso   1.000  B
  B134     1.0000 0.84741  0.32870  0.63610  Biso   1.000  B
  B135     1.0000 0.65259  0.67130  0.13610  Biso   1.000  B
  B136     1.0000 0.15259  0.82870  0.36390  Biso   1.000  B
  H145     1.0000 0.67430  0.88160  0.15480  Biso   1.000  H
  H146     1.0000 0.17430  0.61840  0.34520  Biso   1.000  H
  H147     1.0000 0.32570  0.38160  0.84520  Biso   1.000  H
  H148     1.0000 0.82570  0.11840  0.65480  Biso   1.000  H
  H149     1.0000 0.32570  0.11840  0.84520  Biso   1.000  H
  H150     1.0000 0.82570  0.38160  0.65480  Biso   1.000  H
  H151     1.0000 0.67430  0.61840  0.15480  Biso   1.000  H
  H152     1.0000 0.17430  0.88160  0.34520  Biso   1.000  H
  B137     1.0000 0.66123  0.79850  0.04650  Biso   1.000  B
  B138     1.0000 0.16123  0.70150  0.45350  Biso   1.000  B
  B139     1.0000 0.33877  0.29850  0.95350  Biso   1.000  B
  B140     1.0000 0.83877  0.20150  0.54650  Biso   1.000  B
  B141     1.0000 0.33877  0.20150  0.95350  Biso   1.000  B
  B142     1.0000 0.83877  0.29850  0.54650  Biso   1.000  B
  B143     1.0000 0.66123  0.70150  0.04650  Biso   1.000  B
  B144     1.0000 0.16123  0.79850  0.45350  Biso   1.000  B
  H153     1.0000 0.68850  0.83160  0.00630  Biso   1.000  H
  H154     1.0000 0.18850  0.66840  0.49370  Biso   1.000  H
  H155     1.0000 0.31150  0.33160  0.99370  Biso   1.000  H
  H156     1.0000 0.81150  0.16840  0.50630  Biso   1.000  H
  H157     1.0000 0.31150  0.16840  0.99370  Biso   1.000  H
  H158     1.0000 0.81150  0.33160  0.50630  Biso   1.000  H
  H159     1.0000 0.68850  0.66840  0.00630  Biso   1.000  H
  H160     1.0000 0.18850  0.83160  0.49370  Biso   1.000  H
  B145     1.0000 0.59140  0.75000  0.02300  Biso   1.000  B
  B146     1.0000 0.09140  0.75000  0.47700  Biso   1.000  B
  B147     1.0000 0.40860  0.25000  0.97700  Biso   1.000  B
  B148     1.0000 0.90860  0.25000  0.52300  Biso   1.000  B
  H161     1.0000 0.57260  0.75000  0.96710  Biso   1.000  H
  H162     1.0000 0.07260  0.75000  0.53290  Biso   1.000  H
  H163     1.0000 0.42740  0.25000  0.03290  Biso   1.000  H
  H164     1.0000 0.92740  0.25000  0.46710  Biso   1.000  H
  B149     1.0000 0.53890  0.75000  0.09810  Biso   1.000  B
  B150     1.0000 0.03890  0.75000  0.40190  Biso   1.000  B
  B151     1.0000 0.46110  0.25000  0.90190  Biso   1.000  B
  B152     1.0000 0.96110  0.25000  0.59810  Biso   1.000  B
  H165     1.0000 0.48590  0.75000  0.09160  Biso   1.000  H
  H166     1.0000 0.98590  0.75000  0.40840  Biso   1.000  H
  H167     1.0000 0.51410  0.25000  0.90840  Biso   1.000  H
  H168     1.0000 0.01410  0.25000  0.59160  Biso   1.000  H
  B153     1.0000 0.64720  0.75000  0.19180  Biso   1.000  B
  B154     1.0000 0.14720  0.75000  0.30820  Biso   1.000  B
  B155     1.0000 0.35280  0.25000  0.80820  Biso   1.000  B
  B156     1.0000 0.85280  0.25000  0.69180  Biso   1.000  B
  H169     1.0000 0.66570  0.75000  0.24770  Biso   1.000  H
  H170     1.0000 0.16570  0.75000  0.25230  Biso   1.000  H
  H171     1.0000 0.33430  0.25000  0.75230  Biso   1.000  H
  H172     1.0000 0.83430  0.25000  0.74770  Biso   1.000  H
  B157     1.0000 0.69950  0.75000  0.11640  Biso   1.000  B
  B158     1.0000 0.19950  0.75000  0.38360  Biso   1.000  B
  B159     1.0000 0.30050  0.25000  0.88360  Biso   1.000  B
  B160     1.0000 0.80050  0.25000  0.61640  Biso   1.000  B
  H173     1.0000 0.75250  0.75000  0.12260  Biso   1.000  H
  H174     1.0000 0.25250  0.75000  0.37740  Biso   1.000  H
  H175     1.0000 0.24750  0.25000  0.87740  Biso   1.000  H
  H176     1.0000 0.74750  0.25000  0.62260  Biso   1.000  H
  C1       1.0000 0.60094  0.96553  0.67929  Biso   1.000  C
  C2       1.0000 0.10094  0.53447  0.82071  Biso   1.000  C
  C3       1.0000 0.39906  0.46553  0.32071  Biso   1.000  C
  C4       1.0000 0.89906  0.03447  0.17929  Biso   1.000  C
  C5       1.0000 0.39906  0.03447  0.32071  Biso   1.000  C
  C6       1.0000 0.89906  0.46553  0.17929  Biso   1.000  C
  C7       1.0000 0.60094  0.53447  0.67929  Biso   1.000  C
  C8       1.0000 0.10094  0.96553  0.82071  Biso   1.000  C
  C9       1.0000 0.56541  0.98227  0.61048  Biso   1.000  C
  C10      1.0000 0.06541  0.51773  0.88952  Biso   1.000  C
  C11      1.0000 0.43459  0.48227  0.38952  Biso   1.000  C
  C12      1.0000 0.93459  0.01773  0.11048  Biso   1.000  C
  C13      1.0000 0.43459  0.01773  0.38952  Biso   1.000  C
  C14      1.0000 0.93459  0.48227  0.11048  Biso   1.000  C
  C15      1.0000 0.56541  0.51773  0.61048  Biso   1.000  C
  C16      1.0000 0.06541  0.98227  0.88952  Biso   1.000  C
  C17      1.0000 0.59872  0.96514  0.81931  Biso   1.000  C
  C18      1.0000 0.09872  0.53486  0.68069  Biso   1.000  C
  C19      1.0000 0.40128  0.46514  0.18069  Biso   1.000  C
  C20      1.0000 0.90128  0.03486  0.31931  Biso   1.000  C
  C21      1.0000 0.40128  0.03486  0.18069  Biso   1.000  C
  C22      1.0000 0.90128  0.46514  0.31931  Biso   1.000  C
  C23      1.0000 0.59872  0.53486  0.81931  Biso   1.000  C
  C24      1.0000 0.09872  0.96514  0.68069  Biso   1.000  C
  C25      1.0000 0.56165  0.98132  0.88712  Biso   1.000  C
  C26      1.0000 0.06165  0.51868  0.61288  Biso   1.000  C
  C27      1.0000 0.43835  0.48132  0.11288  Biso   1.000  C
  C28      1.0000 0.93835  0.01868  0.38712  Biso   1.000  C
  C29      1.0000 0.43835  0.01868  0.11288  Biso   1.000  C
  C30      1.0000 0.93835  0.48132  0.38712  Biso   1.000  C
  C31      1.0000 0.56165  0.51868  0.88712  Biso   1.000  C
  C32      1.0000 0.06165  0.98132  0.61288  Biso   1.000  C
  C33      1.0000 0.40351  0.82209  0.56723  Biso   1.000  C
  C34      1.0000 0.90351  0.67791  0.93277  Biso   1.000  C
  C35      1.0000 0.59649  0.32209  0.43277  Biso   1.000  C
  C36      1.0000 0.09649  0.17791  0.06723  Biso   1.000  C
  C37      1.0000 0.59649  0.17791  0.43277  Biso   1.000  C
  C38      1.0000 0.09649  0.32209  0.06723  Biso   1.000  C
  C39      1.0000 0.40351  0.67791  0.56723  Biso   1.000  C
  C40      1.0000 0.90351  0.82209  0.93277  Biso   1.000  C
  C41      1.0000 0.43649  0.89111  0.53984  Biso   1.000  C
  C42      1.0000 0.93649  0.60889  0.96016  Biso   1.000  C
  C43      1.0000 0.56351  0.39111  0.46016  Biso   1.000  C
  C44      1.0000 0.06351  0.10889  0.03984  Biso   1.000  C
  C45      1.0000 0.56351  0.10889  0.46016  Biso   1.000  C
  C46      1.0000 0.06351  0.39111  0.03984  Biso   1.000  C
  C47      1.0000 0.43649  0.60889  0.53984  Biso   1.000  C
  C48      1.0000 0.93649  0.89111  0.96016  Biso   1.000  C
  C49      1.0000 0.58809  0.82199  0.08030  Biso   1.000  C
  C50      1.0000 0.08809  0.67801  0.41970  Biso   1.000  C
  C51      1.0000 0.41191  0.32199  0.91970  Biso   1.000  C
  C52      1.0000 0.91191  0.17801  0.58030  Biso   1.000  C
  C53      1.0000 0.41191  0.17801  0.91970  Biso   1.000  C
  C54      1.0000 0.91191  0.32199  0.58030  Biso   1.000  C
  C55      1.0000 0.58809  0.67801  0.08030  Biso   1.000  C
  C56      1.0000 0.08809  0.82199  0.41970  Biso   1.000  C
  C57      1.0000 0.55566  0.89122  0.05189  Biso   1.000  C
  C58      1.0000 0.05566  0.60878  0.44811  Biso   1.000  C
  C59      1.0000 0.44434  0.39122  0.94811  Biso   1.000  C
  C60      1.0000 0.94434  0.10878  0.55189  Biso   1.000  C
  C61      1.0000 0.44434  0.10878  0.94811  Biso   1.000  C
  C62      1.0000 0.94434  0.39122  0.55189  Biso   1.000  C
  C63      1.0000 0.55566  0.60878  0.05189  Biso   1.000  C
  C64      1.0000 0.05566  0.89122  0.44811  Biso   1.000  C
  C65      1.0000 0.62840  0.91350  0.33880  Biso   1.000  C
  C66      1.0000 0.12840  0.58650  0.16120  Biso   1.000  C
  C67      1.0000 0.37160  0.41350  0.66120  Biso   1.000  C
  C68      1.0000 0.87160  0.08650  0.83880  Biso   1.000  C
  C69      1.0000 0.37160  0.08650  0.66120  Biso   1.000  C
  C70      1.0000 0.87160  0.41350  0.83880  Biso   1.000  C
  C71      1.0000 0.62840  0.58650  0.33880  Biso   1.000  C
  C72      1.0000 0.12840  0.91350  0.16120  Biso   1.000  C
  H177     1.0000 0.59530  0.92860  0.30490  Biso   1.000  H
  H178     1.0000 0.09530  0.57140  0.19510  Biso   1.000  H
  H179     1.0000 0.40470  0.42860  0.69510  Biso   1.000  H
  H180     1.0000 0.90470  0.07140  0.80490  Biso   1.000  H
  H181     1.0000 0.40470  0.07140  0.69510  Biso   1.000  H
  H182     1.0000 0.90470  0.42860  0.80490  Biso   1.000  H
  H183     1.0000 0.59530  0.57140  0.30490  Biso   1.000  H
  H184     1.0000 0.09530  0.92860  0.19510  Biso   1.000  H
  H185     1.0000 0.65480  0.87500  0.31720  Biso   1.000  H
  H186     1.0000 0.15480  0.62500  0.18280  Biso   1.000  H
  H187     1.0000 0.34520  0.37500  0.68280  Biso   1.000  H
  H188     1.0000 0.84520  0.12500  0.81720  Biso   1.000  H
  H189     1.0000 0.34520  0.12500  0.68280  Biso   1.000  H
  H190     1.0000 0.84520  0.37500  0.81720  Biso   1.000  H
  H191     1.0000 0.65480  0.62500  0.31720  Biso   1.000  H
  H192     1.0000 0.15480  0.87500  0.18280  Biso   1.000  H
  H193     1.0000 0.65500  0.95600  0.35080  Biso   1.000  H
  H194     1.0000 0.15500  0.54400  0.14920  Biso   1.000  H
  H195     1.0000 0.34500  0.45600  0.64920  Biso   1.000  H
  H196     1.0000 0.84500  0.04400  0.85080  Biso   1.000  H
  H197     1.0000 0.34500  0.04400  0.64920  Biso   1.000  H
  H198     1.0000 0.84500  0.45600  0.85080  Biso   1.000  H
  H199     1.0000 0.65500  0.54400  0.35080  Biso   1.000  H
  H200     1.0000 0.15500  0.95600  0.14920  Biso   1.000  H
  C73      1.0000 0.35960  0.90390  0.85960  Biso   1.000  C
  C74      1.0000 0.85960  0.59610  0.64040  Biso   1.000  C
  C75      1.0000 0.64040  0.40390  0.14040  Biso   1.000  C
  C76      1.0000 0.14040  0.09610  0.35960  Biso   1.000  C
  C77      1.0000 0.64040  0.09610  0.14040  Biso   1.000  C
  C78      1.0000 0.14040  0.40390  0.35960  Biso   1.000  C
  C79      1.0000 0.35960  0.59610  0.85960  Biso   1.000  C
  C80      1.0000 0.85960  0.90390  0.64040  Biso   1.000  C
  H201     1.0000 0.33920  0.95230  0.85730  Biso   1.000  H
  H202     1.0000 0.83920  0.54770  0.64270  Biso   1.000  H
  H203     1.0000 0.66080  0.45230  0.14270  Biso   1.000  H
  H204     1.0000 0.16080  0.04770  0.35730  Biso   1.000  H
  H205     1.0000 0.66080  0.04770  0.14270  Biso   1.000  H
  H206     1.0000 0.16080  0.45230  0.35730  Biso   1.000  H
  H207     1.0000 0.33920  0.54770  0.85730  Biso   1.000  H
  H208     1.0000 0.83920  0.95230  0.64270  Biso   1.000  H
  H209     1.0000 0.32950  0.86610  0.84390  Biso   1.000  H
  H210     1.0000 0.82950  0.63390  0.65610  Biso   1.000  H
  H211     1.0000 0.67050  0.36610  0.15610  Biso   1.000  H
  H212     1.0000 0.17050  0.13390  0.34390  Biso   1.000  H
  H213     1.0000 0.67050  0.13390  0.15610  Biso   1.000  H
  H214     1.0000 0.17050  0.36610  0.34390  Biso   1.000  H
  H215     1.0000 0.32950  0.63390  0.84390  Biso   1.000  H
  H216     1.0000 0.82950  0.86610  0.65610  Biso   1.000  H
  H217     1.0000 0.39700  0.90350  0.82830  Biso   1.000  H
  H218     1.0000 0.89700  0.59650  0.67170  Biso   1.000  H
  H219     1.0000 0.60300  0.40350  0.17170  Biso   1.000  H
  H220     1.0000 0.10300  0.09650  0.32830  Biso   1.000  H
  H221     1.0000 0.60300  0.09650  0.17170  Biso   1.000  H
  H222     1.0000 0.10300  0.40350  0.32830  Biso   1.000  H
  H223     1.0000 0.39700  0.59650  0.82830  Biso   1.000  H
  H224     1.0000 0.89700  0.90350  0.67170  Biso   1.000  H
  C81      1.0000 0.52370  0.25000  0.67390  Biso   1.000  C
  C82      1.0000 0.02370  0.25000  0.82610  Biso   1.000  C
  C83      1.0000 0.47630  0.75000  0.32610  Biso   1.000  C
  C84      1.0000 0.97630  0.75000  0.17390  Biso   1.000  C
  O81      1.0000 0.46180  0.25000  0.63900  Biso   1.000  O
  O82      1.0000 0.96180  0.25000  0.86100  Biso   1.000  O
  O83      1.0000 0.53820  0.75000  0.36100  Biso   1.000  O
  O84      1.0000 0.03820  0.75000  0.13900  Biso   1.000  O
  C85      1.0000 0.25490  0.01690  0.50980  Biso   1.000  C
  C86      1.0000 0.75490  0.48310  0.99020  Biso   1.000  C
  C87      1.0000 0.74510  0.51690  0.49020  Biso   1.000  C
  C88      1.0000 0.24510  0.98310  0.00980  Biso   1.000  C
  C89      1.0000 0.74510  0.98310  0.49020  Biso   1.000  C
  C90      1.0000 0.24510  0.51690  0.00980  Biso   1.000  C
  C91      1.0000 0.25490  0.48310  0.50980  Biso   1.000  C
  C92      1.0000 0.75490  0.01690  0.99020  Biso   1.000  C
  H225     1.0000 0.26810  0.00640  0.55880  Biso   1.000  H
  H226     1.0000 0.76810  0.49360  0.94120  Biso   1.000  H
  H227     1.0000 0.73190  0.50640  0.44120  Biso   1.000  H
  H228     1.0000 0.23190  0.99360  0.05880  Biso   1.000  H
  H229     1.0000 0.73190  0.99360  0.44120  Biso   1.000  H
  H230     1.0000 0.23190  0.50640  0.05880  Biso   1.000  H
  H231     1.0000 0.26810  0.49360  0.55880  Biso   1.000  H
  H232     1.0000 0.76810  0.00640  0.94120  Biso   1.000  H
  H233     1.0000 0.29130  0.01100  0.47770  Biso   1.000  H
  H234     1.0000 0.79130  0.48900  0.02230  Biso   1.000  H
  H235     1.0000 0.70870  0.51100  0.52230  Biso   1.000  H
  H236     1.0000 0.20870  0.98900  0.97770  Biso   1.000  H
  H237     1.0000 0.70870  0.98900  0.52230  Biso   1.000  H
  H238     1.0000 0.20870  0.51100  0.97770  Biso   1.000  H
  H239     1.0000 0.29130  0.48900  0.47770  Biso   1.000  H
  H240     1.0000 0.79130  0.01100  0.02230  Biso   1.000  H
  H241     1.0000 0.22100  0.98270  0.49580  Biso   1.000  H
  H242     1.0000 0.72100  0.51730  0.00420  Biso   1.000  H
  H243     1.0000 0.77900  0.48270  0.50420  Biso   1.000  H
  H244     1.0000 0.27900  0.01730  0.99580  Biso   1.000  H
  H245     1.0000 0.77900  0.01730  0.50420  Biso   1.000  H
  H246     1.0000 0.27900  0.48270  0.99580  Biso   1.000  H
  H247     1.0000 0.22100  0.51730  0.49580  Biso   1.000  H
  H248     1.0000 0.72100  0.98270  0.00420  Biso   1.000  H
  O85      1.0000 0.23220  0.08920  0.50550  Biso   1.000  O
  O86      1.0000 0.73220  0.41080  0.99450  Biso   1.000  O
  O87      1.0000 0.76780  0.58920  0.49450  Biso   1.000  O
  O88      1.0000 0.26780  0.91080  0.00550  Biso   1.000  O
  O89      1.0000 0.76780  0.91080  0.49450  Biso   1.000  O
  O90      1.0000 0.26780  0.58920  0.00550  Biso   1.000  O
  O91      1.0000 0.23220  0.41080  0.50550  Biso   1.000  O
  O92      1.0000 0.73220  0.08920  0.99450  Biso   1.000  O
  H249     1.0000 0.23280  0.10380  0.55070  Biso   1.000  H
  H250     1.0000 0.73280  0.39620  0.94930  Biso   1.000  H
  H251     1.0000 0.76720  0.60380  0.44930  Biso   1.000  H
  H252     1.0000 0.26720  0.89620  0.05070  Biso   1.000  H
  H253     1.0000 0.76720  0.89620  0.44930  Biso   1.000  H
  H254     1.0000 0.26720  0.60380  0.05070  Biso   1.000  H
  H255     1.0000 0.23280  0.39620  0.55070  Biso   1.000  H
  H256     1.0000 0.73280  0.10380  0.94930  Biso   1.000  H
  C93      1.0000 0.04020  0.25000  0.36230  Biso   1.000  C
  C94      1.0000 0.54020  0.25000  0.13770  Biso   1.000  C
  C95      1.0000 0.95980  0.75000  0.63770  Biso   1.000  C
  C96      1.0000 0.45980  0.75000  0.86230  Biso   1.000  C
  O93      1.0000 0.08360  0.25000  0.41780  Biso   1.000  O
  O94      1.0000 0.58360  0.25000  0.08220  Biso   1.000  O
  O95      1.0000 0.91640  0.75000  0.58220  Biso   1.000  O
  O96      1.0000 0.41640  0.75000  0.91780  Biso   1.000  O
  H257     1.0000 0.51840  0.23830  0.72450  Biso   1.000  H
  H258     1.0000 0.01840  0.26170  0.77550  Biso   1.000  H
  H259     1.0000 0.48160  0.73830  0.27550  Biso   1.000  H
  H260     1.0000 0.98160  0.76170  0.22450  Biso   1.000  H
  H261     1.0000 0.48160  0.76170  0.27550  Biso   1.000  H
  H262     1.0000 0.98160  0.73830  0.22450  Biso   1.000  H
  H263     1.0000 0.51840  0.26170  0.72450  Biso   1.000  H
  H264     1.0000 0.01840  0.23830  0.77550  Biso   1.000  H
  H265     1.0000 0.34750  0.29900  0.49110  Biso   1.000  H
  H266     1.0000 0.84750  0.20100  0.00890  Biso   1.000  H
  H267     1.0000 0.65250  0.79900  0.50890  Biso   1.000  H
  H268     1.0000 0.15250  0.70100  0.99110  Biso   1.000  H
  H269     1.0000 0.65250  0.70100  0.50890  Biso   1.000  H
  H270     1.0000 0.15250  0.79900  0.99110  Biso   1.000  H
  H271     1.0000 0.34750  0.20100  0.49110  Biso   1.000  H
  H272     1.0000 0.84750  0.29900  0.00890  Biso   1.000  H
  H273     1.0000 0.31050  0.25330  0.43120  Biso   1.000  H
  H274     1.0000 0.81050  0.24670  0.06880  Biso   1.000  H
  H275     1.0000 0.68950  0.75330  0.56880  Biso   1.000  H
  H276     1.0000 0.18950  0.74670  0.93120  Biso   1.000  H
  H277     1.0000 0.68950  0.74670  0.56880  Biso   1.000  H
  H278     1.0000 0.18950  0.75330  0.93120  Biso   1.000  H
  H279     1.0000 0.31050  0.24670  0.43120  Biso   1.000  H
  H280     1.0000 0.81050  0.25330  0.06880  Biso   1.000  H
  H281     1.0000 0.38160  0.23090  0.45290  Biso   1.000  H
  H282     1.0000 0.88160  0.26910  0.04710  Biso   1.000  H
  H283     1.0000 0.61840  0.73090  0.54710  Biso   1.000  H
  H284     1.0000 0.11840  0.76910  0.95290  Biso   1.000  H
  H285     1.0000 0.61840  0.76910  0.54710  Biso   1.000  H
  H286     1.0000 0.11840  0.73090  0.95290  Biso   1.000  H
  H287     1.0000 0.38160  0.26910  0.45290  Biso   1.000  H
  H288     1.0000 0.88160  0.23090  0.04710  Biso   1.000  H
  O97      1.0000 0.31450  0.19770  0.52840  Biso   1.000  O
  O98      1.0000 0.81450  0.30230  0.97160  Biso   1.000  O
  O99      1.0000 0.68550  0.69770  0.47160  Biso   1.000  O
  O100     1.0000 0.18550  0.80230  0.02840  Biso   1.000  O
  O101     1.0000 0.68550  0.80230  0.47160  Biso   1.000  O
  O102     1.0000 0.18550  0.69770  0.02840  Biso   1.000  O
  O103     1.0000 0.31450  0.30230  0.52840  Biso   1.000  O
  O104     1.0000 0.81450  0.19770  0.97160  Biso   1.000  O
  H289     1.0000 0.28810  0.16300  0.52120  Biso   1.000  H
  H290     1.0000 0.78810  0.33700  0.97880  Biso   1.000  H
  H291     1.0000 0.71190  0.66300  0.47880  Biso   1.000  H
  H292     1.0000 0.21190  0.83700  0.02120  Biso   1.000  H
  H293     1.0000 0.71190  0.83700  0.47880  Biso   1.000  H
  H294     1.0000 0.21190  0.66300  0.02120  Biso   1.000  H
  H295     1.0000 0.28810  0.33700  0.52120  Biso   1.000  H
  H296     1.0000 0.78810  0.16300  0.97880  Biso   1.000  H
  H297     1.0000 0.17800  0.26220  0.66770  Biso   1.000  H
  H298     1.0000 0.67800  0.23780  0.83230  Biso   1.000  H
  H299     1.0000 0.82200  0.76220  0.33230  Biso   1.000  H
  H300     1.0000 0.32200  0.73780  0.16770  Biso   1.000  H
  H301     1.0000 0.82200  0.73780  0.33230  Biso   1.000  H
  H302     1.0000 0.32200  0.76220  0.16770  Biso   1.000  H
  H303     1.0000 0.17800  0.23780  0.66770  Biso   1.000  H
  H304     1.0000 0.67800  0.26220  0.83230  Biso   1.000  H
  O105     1.0000 0.24120  0.20780  0.60160  Biso   1.000  O
  O106     1.0000 0.74120  0.29220  0.89840  Biso   1.000  O
  O107     1.0000 0.75880  0.70780  0.39840  Biso   1.000  O
  O108     1.0000 0.25880  0.79220  0.10160  Biso   1.000  O
  O109     1.0000 0.75880  0.79220  0.39840  Biso   1.000  O
  O110     1.0000 0.25880  0.70780  0.10160  Biso   1.000  O
  O111     1.0000 0.24120  0.29220  0.60160  Biso   1.000  O
  O112     1.0000 0.74120  0.20780  0.89840  Biso   1.000  O
  H305     1.0000 0.26570  0.19710  0.63420  Biso   1.000  H
  H306     1.0000 0.76570  0.30290  0.86580  Biso   1.000  H
  H307     1.0000 0.73430  0.69710  0.36580  Biso   1.000  H
  H308     1.0000 0.23430  0.80290  0.13420  Biso   1.000  H
  H309     1.0000 0.73430  0.80290  0.36580  Biso   1.000  H
  H310     1.0000 0.23430  0.69710  0.13420  Biso   1.000  H
  H311     1.0000 0.26570  0.30290  0.63420  Biso   1.000  H
  H312     1.0000 0.76570  0.19710  0.86580  Biso   1.000  H
  C97      1.0000 0.18000  0.25000  0.61690  Biso   1.000  C
  C98      1.0000 0.68000  0.25000  0.88310  Biso   1.000  C
  C99      1.0000 0.82000  0.75000  0.38310  Biso   1.000  C
  C100     1.0000 0.32000  0.75000  0.11690  Biso   1.000  C
  H313     1.0000 0.14320  0.21950  0.60400  Biso   1.000  H
  H314     1.0000 0.64320  0.28050  0.89600  Biso   1.000  H
  H315     1.0000 0.85680  0.71950  0.39600  Biso   1.000  H
  H316     1.0000 0.35680  0.78050  0.10400  Biso   1.000  H
  H317     1.0000 0.85680  0.78050  0.39600  Biso   1.000  H
  H318     1.0000 0.35680  0.71950  0.10400  Biso   1.000  H
  H319     1.0000 0.14320  0.28050  0.60400  Biso   1.000  H
  H320     1.0000 0.64320  0.21950  0.89600  Biso   1.000  H
  H321     1.0000 0.17940  0.29540  0.58870  Biso   1.000  H
  H322     1.0000 0.67940  0.20460  0.91130  Biso   1.000  H
  H323     1.0000 0.82060  0.79540  0.41130  Biso   1.000  H
  H324     1.0000 0.32060  0.70460  0.08870  Biso   1.000  H
  H325     1.0000 0.82060  0.70460  0.41130  Biso   1.000  H
  H326     1.0000 0.32060  0.79540  0.08870  Biso   1.000  H
  H327     1.0000 0.17940  0.20460  0.58870  Biso   1.000  H
  H328     1.0000 0.67940  0.29540  0.91130  Biso   1.000  H
  C101     1.0000 0.34090  0.25000  0.47060  Biso   1.000  C
  C102     1.0000 0.84090  0.25000  0.02940  Biso   1.000  C
  C103     1.0000 0.65910  0.75000  0.52940  Biso   1.000  C
  C104     1.0000 0.15910  0.75000  0.97060  Biso   1.000  C
  H329     1.0000 0.00210  0.22260  0.37650  Biso   1.000  H
  H330     1.0000 0.50210  0.27740  0.12350  Biso   1.000  H
  H331     1.0000 0.99790  0.72260  0.62350  Biso   1.000  H
  H332     1.0000 0.49790  0.77740  0.87650  Biso   1.000  H
  H333     1.0000 0.99790  0.77740  0.62350  Biso   1.000  H
  H334     1.0000 0.49790  0.72260  0.87650  Biso   1.000  H
  H335     1.0000 0.00210  0.27740  0.37650  Biso   1.000  H
  H336     1.0000 0.50210  0.22260  0.12350  Biso   1.000  H
  H337     1.0000 0.05940  0.22650  0.32040  Biso   1.000  H
  H338     1.0000 0.55940  0.27350  0.17960  Biso   1.000  H
  H339     1.0000 0.94060  0.72650  0.67960  Biso   1.000  H
  H340     1.0000 0.44060  0.77350  0.82040  Biso   1.000  H
  H341     1.0000 0.94060  0.77350  0.67960  Biso   1.000  H
  H342     1.0000 0.44060  0.72650  0.82040  Biso   1.000  H
  H343     1.0000 0.05940  0.27350  0.32040  Biso   1.000  H
  H344     1.0000 0.55940  0.22650  0.17960  Biso   1.000  H
  H345     1.0000 0.02850  0.30080  0.35060  Biso   1.000  H
  H346     1.0000 0.52850  0.19920  0.14940  Biso   1.000  H
  H347     1.0000 0.97150  0.80080  0.64940  Biso   1.000  H
  H348     1.0000 0.47150  0.69920  0.85060  Biso   1.000  H
  H349     1.0000 0.97150  0.69920  0.64940  Biso   1.000  H
  H350     1.0000 0.47150  0.80080  0.85060  Biso   1.000  H
  H351     1.0000 0.02850  0.19920  0.35060  Biso   1.000  H
  H352     1.0000 0.52850  0.30080  0.14940  Biso   1.000  H
  H353     1.0000 0.54330  0.29870  0.66900  Biso   1.000  H
  H354     1.0000 0.04330  0.20130  0.83100  Biso   1.000  H
  H355     1.0000 0.45670  0.79870  0.33100  Biso   1.000  H
  H356     1.0000 0.95670  0.70130  0.16900  Biso   1.000  H
  H357     1.0000 0.45670  0.70130  0.33100  Biso   1.000  H
  H358     1.0000 0.95670  0.79870  0.16900  Biso   1.000  H
  H359     1.0000 0.54330  0.20130  0.66900  Biso   1.000  H
  H360     1.0000 0.04330  0.29870  0.83100  Biso   1.000  H
  H361     1.0000 0.55110  0.21300  0.65150  Biso   1.000  H
  H362     1.0000 0.05110  0.28700  0.84850  Biso   1.000  H
  H363     1.0000 0.44890  0.71300  0.34850  Biso   1.000  H
  H364     1.0000 0.94890  0.78700  0.15150  Biso   1.000  H
  H365     1.0000 0.44890  0.78700  0.34850  Biso   1.000  H
  H366     1.0000 0.94890  0.71300  0.15150  Biso   1.000  H
  H367     1.0000 0.55110  0.28700  0.65150  Biso   1.000  H
  H368     1.0000 0.05110  0.21300  0.84850  Biso   1.000  H
  H369     1.0000 0.45880  0.21290  0.61260  Biso   1.000  H
  H370     1.0000 0.95880  0.28710  0.88740  Biso   1.000  H
  H371     1.0000 0.54120  0.71290  0.38740  Biso   1.000  H
  H372     1.0000 0.04120  0.78710  0.11260  Biso   1.000  H
  H373     1.0000 0.54120  0.78710  0.38740  Biso   1.000  H
  H374     1.0000 0.04120  0.71290  0.11260  Biso   1.000  H
  H375     1.0000 0.45880  0.28710  0.61260  Biso   1.000  H
  H376     1.0000 0.95880  0.21290  0.88740  Biso   1.000  H
  H377     1.0000 0.09560  0.20560  0.42240  Biso   1.000  H
  H378     1.0000 0.59560  0.29440  0.07760  Biso   1.000  H
  H379     1.0000 0.90440  0.70560  0.57760  Biso   1.000  H
  H380     1.0000 0.40440  0.79440  0.92240  Biso   1.000  H
  H381     1.0000 0.90440  0.79440  0.57760  Biso   1.000  H
  H382     1.0000 0.40440  0.70560  0.92240  Biso   1.000  H
  H383     1.0000 0.09560  0.29440  0.42240  Biso   1.000  H
  H384     1.0000 0.59560  0.20560  0.07760  Biso   1.000  H
