data_image0
_cell_length_a       14.939
_cell_length_b       30.516
_cell_length_c       15.694
_cell_angle_alpha    90
_cell_angle_beta     90
_cell_angle_gamma    90

_symmetry_space_group_name_H-M    "P 1"
_symmetry_int_tables_number       1

loop_
  _symmetry_equiv_pos_as_xyz
  'x, y, z'

loop_
  _atom_site_label
  _atom_site_occupancy
  _atom_site_fract_x
  _atom_site_fract_y
  _atom_site_fract_z
  _atom_site_thermal_displace_type
  _atom_site_B_iso_or_equiv
  _atom_site_type_symbol
  Cu1      1.0000 0.27066  0.75000  0.07213  Biso   1.000  Cu
  Cu2      1.0000 0.22934  0.25000  0.57213  Biso   1.000  Cu
  Cu3      1.0000 0.72934  0.25000  0.92787  Biso   1.000  Cu
  Cu4      1.0000 0.77066  0.75000  0.42787  Biso   1.000  Cu
  Cu5      1.0000 0.27426  0.75000  0.29947  Biso   1.000  Cu
  Cu6      1.0000 0.22574  0.25000  0.79947  Biso   1.000  Cu
  Cu7      1.0000 0.72574  0.25000  0.70053  Biso   1.000  Cu
  Cu8      1.0000 0.77426  0.75000  0.20053  Biso   1.000  Cu
  Cu9      1.0000 0.30053  0.75000  0.53206  Biso   1.000  Cu
  Cu10     1.0000 0.19947  0.25000  0.03206  Biso   1.000  Cu
  Cu11     1.0000 0.69947  0.25000  0.46794  Biso   1.000  Cu
  Cu12     1.0000 0.80053  0.75000  0.96794  Biso   1.000  Cu
  Cu13     1.0000 0.21796  0.25000  0.33555  Biso   1.000  Cu
  Cu14     1.0000 0.28204  0.75000  0.83555  Biso   1.000  Cu
  Cu15     1.0000 0.78204  0.75000  0.66445  Biso   1.000  Cu
  Cu16     1.0000 0.71796  0.25000  0.16445  Biso   1.000  Cu
  O1       1.0000 0.38543  0.53057  0.10645  Biso   1.000  O
  O2       1.0000 0.11457  0.46943  0.60645  Biso   1.000  O
  O3       1.0000 0.61457  0.03057  0.89355  Biso   1.000  O
  O4       1.0000 0.88543  0.96943  0.39355  Biso   1.000  O
  O5       1.0000 0.61457  0.46943  0.89355  Biso   1.000  O
  O6       1.0000 0.88543  0.53057  0.39355  Biso   1.000  O
  O7       1.0000 0.38543  0.96943  0.10645  Biso   1.000  O
  O8       1.0000 0.11457  0.03057  0.60645  Biso   1.000  O
  O9       1.0000 0.11268  0.46826  0.10812  Biso   1.000  O
  O10      1.0000 0.38732  0.53174  0.60812  Biso   1.000  O
  O11      1.0000 0.88732  0.96826  0.89188  Biso   1.000  O
  O12      1.0000 0.61268  0.03174  0.39188  Biso   1.000  O
  O13      1.0000 0.88732  0.53174  0.89188  Biso   1.000  O
  O14      1.0000 0.61268  0.46826  0.39188  Biso   1.000  O
  O15      1.0000 0.11268  0.03174  0.10812  Biso   1.000  O
  O16      1.0000 0.38732  0.96826  0.60812  Biso   1.000  O
  O17      1.0000 0.14624  0.68004  0.00111  Biso   1.000  O
  O18      1.0000 0.35376  0.31996  0.50111  Biso   1.000  O
  O19      1.0000 0.85376  0.18004  0.99889  Biso   1.000  O
  O20      1.0000 0.64624  0.81996  0.49889  Biso   1.000  O
  O21      1.0000 0.85376  0.31996  0.99889  Biso   1.000  O
  O22      1.0000 0.64624  0.68004  0.49889  Biso   1.000  O
  O23      1.0000 0.14624  0.81996  0.00111  Biso   1.000  O
  O24      1.0000 0.35376  0.18004  0.50111  Biso   1.000  O
  O25      1.0000 0.27586  0.68684  0.07019  Biso   1.000  O
  O26      1.0000 0.22414  0.31316  0.57019  Biso   1.000  O
  O27      1.0000 0.72414  0.18684  0.92981  Biso   1.000  O
  O28      1.0000 0.77586  0.81316  0.42981  Biso   1.000  O
  O29      1.0000 0.72414  0.31316  0.92981  Biso   1.000  O
  O30      1.0000 0.77586  0.68684  0.42981  Biso   1.000  O
  O31      1.0000 0.27586  0.81316  0.07019  Biso   1.000  O
  O32      1.0000 0.22414  0.18684  0.57019  Biso   1.000  O
  O33      1.0000 0.33972  0.31814  0.98308  Biso   1.000  O
  O34      1.0000 0.16028  0.68186  0.48308  Biso   1.000  O
  O35      1.0000 0.66028  0.81814  0.01692  Biso   1.000  O
  O36      1.0000 0.83972  0.18186  0.51692  Biso   1.000  O
  O37      1.0000 0.66028  0.68186  0.01692  Biso   1.000  O
  O38      1.0000 0.83972  0.31814  0.51692  Biso   1.000  O
  O39      1.0000 0.33972  0.18186  0.98308  Biso   1.000  O
  O40      1.0000 0.16028  0.81814  0.48308  Biso   1.000  O
  O41      1.0000 0.19956  0.31323  0.03026  Biso   1.000  O
  O42      1.0000 0.30044  0.68677  0.53026  Biso   1.000  O
  O43      1.0000 0.80044  0.81323  0.96974  Biso   1.000  O
  O44      1.0000 0.69956  0.18677  0.46974  Biso   1.000  O
  O45      1.0000 0.80044  0.68677  0.96974  Biso   1.000  O
  O46      1.0000 0.69956  0.31323  0.46974  Biso   1.000  O
  O47      1.0000 0.19956  0.18677  0.03026  Biso   1.000  O
  O48      1.0000 0.30044  0.81323  0.53026  Biso   1.000  O
  O49      1.0000 0.32296  0.31580  0.23323  Biso   1.000  O
  O50      1.0000 0.17704  0.68420  0.73323  Biso   1.000  O
  O51      1.0000 0.67704  0.81580  0.76677  Biso   1.000  O
  O52      1.0000 0.82296  0.18420  0.26677  Biso   1.000  O
  O53      1.0000 0.67704  0.68420  0.76677  Biso   1.000  O
  O54      1.0000 0.82296  0.31580  0.26677  Biso   1.000  O
  O55      1.0000 0.32296  0.18420  0.23323  Biso   1.000  O
  O56      1.0000 0.17704  0.81580  0.73323  Biso   1.000  O
  O57      1.0000 0.21577  0.31283  0.33192  Biso   1.000  O
  O58      1.0000 0.28423  0.68717  0.83192  Biso   1.000  O
  O59      1.0000 0.78423  0.81283  0.66808  Biso   1.000  O
  O60      1.0000 0.71577  0.18717  0.16808  Biso   1.000  O
  O61      1.0000 0.78423  0.68717  0.66808  Biso   1.000  O
  O62      1.0000 0.71577  0.31283  0.16808  Biso   1.000  O
  O63      1.0000 0.21577  0.18717  0.33192  Biso   1.000  O
  O64      1.0000 0.28423  0.81283  0.83192  Biso   1.000  O
  O65      1.0000 0.14503  0.67880  0.24017  Biso   1.000  O
  O66      1.0000 0.35497  0.32120  0.74017  Biso   1.000  O
  O67      1.0000 0.85497  0.17880  0.75983  Biso   1.000  O
  O68      1.0000 0.64503  0.82120  0.25983  Biso   1.000  O
  O69      1.0000 0.85497  0.32120  0.75983  Biso   1.000  O
  O70      1.0000 0.64503  0.67880  0.25983  Biso   1.000  O
  O71      1.0000 0.14503  0.82120  0.24017  Biso   1.000  O
  O72      1.0000 0.35497  0.17880  0.74017  Biso   1.000  O
  O73      1.0000 0.27983  0.68683  0.29867  Biso   1.000  O
  O74      1.0000 0.22017  0.31317  0.79867  Biso   1.000  O
  O75      1.0000 0.72017  0.18683  0.70133  Biso   1.000  O
  O76      1.0000 0.77983  0.81317  0.20133  Biso   1.000  O
  O77      1.0000 0.72017  0.31317  0.70133  Biso   1.000  O
  O78      1.0000 0.77983  0.68683  0.20133  Biso   1.000  O
  O79      1.0000 0.27983  0.81317  0.29867  Biso   1.000  O
  O80      1.0000 0.22017  0.18683  0.79867  Biso   1.000  O
  O81      1.0000 0.11005  0.46893  0.36089  Biso   1.000  O
  O82      1.0000 0.38995  0.53107  0.86089  Biso   1.000  O
  O83      1.0000 0.88995  0.96893  0.63911  Biso   1.000  O
  O84      1.0000 0.61005  0.03107  0.13911  Biso   1.000  O
  O85      1.0000 0.88995  0.53107  0.63911  Biso   1.000  O
  O86      1.0000 0.61005  0.46893  0.13911  Biso   1.000  O
  O87      1.0000 0.11005  0.03107  0.36089  Biso   1.000  O
  O88      1.0000 0.38995  0.96893  0.86089  Biso   1.000  O
  O89      1.0000 0.38373  0.53045  0.35351  Biso   1.000  O
  O90      1.0000 0.11627  0.46955  0.85351  Biso   1.000  O
  O91      1.0000 0.61627  0.03045  0.64649  Biso   1.000  O
  O92      1.0000 0.88373  0.96955  0.14649  Biso   1.000  O
  O93      1.0000 0.61627  0.46955  0.64649  Biso   1.000  O
  O94      1.0000 0.88373  0.53045  0.14649  Biso   1.000  O
  O95      1.0000 0.38373  0.96955  0.35351  Biso   1.000  O
  O96      1.0000 0.11627  0.03045  0.85351  Biso   1.000  O
  C1       1.0000 0.18462  0.44735  0.07179  Biso   1.000  C
  C2       1.0000 0.31538  0.55265  0.57179  Biso   1.000  C
  C3       1.0000 0.81538  0.94735  0.92821  Biso   1.000  C
  C4       1.0000 0.68462  0.05265  0.42821  Biso   1.000  C
  C5       1.0000 0.81538  0.55265  0.92821  Biso   1.000  C
  C6       1.0000 0.68462  0.44735  0.42821  Biso   1.000  C
  C7       1.0000 0.18462  0.05265  0.07179  Biso   1.000  C
  C8       1.0000 0.31538  0.94735  0.57179  Biso   1.000  C
  C9       1.0000 0.19110  0.40255  0.06513  Biso   1.000  C
  C10      1.0000 0.30890  0.59745  0.56513  Biso   1.000  C
  C11      1.0000 0.80890  0.90255  0.93487  Biso   1.000  C
  C12      1.0000 0.69110  0.09745  0.43487  Biso   1.000  C
  C13      1.0000 0.80890  0.59745  0.93487  Biso   1.000  C
  C14      1.0000 0.69110  0.40255  0.43487  Biso   1.000  C
  C15      1.0000 0.19110  0.09745  0.06513  Biso   1.000  C
  C16      1.0000 0.30890  0.90255  0.56513  Biso   1.000  C
  H1       1.0000 0.14570  0.38490  0.08660  Biso   1.000  H
  H2       1.0000 0.35430  0.61510  0.58660  Biso   1.000  H
  H3       1.0000 0.85430  0.88490  0.91340  Biso   1.000  H
  H4       1.0000 0.64570  0.11510  0.41340  Biso   1.000  H
  H5       1.0000 0.85430  0.61510  0.91340  Biso   1.000  H
  H6       1.0000 0.64570  0.38490  0.41340  Biso   1.000  H
  H7       1.0000 0.14570  0.11510  0.08660  Biso   1.000  H
  H8       1.0000 0.35430  0.88490  0.58660  Biso   1.000  H
  C17      1.0000 0.26606  0.38342  0.02608  Biso   1.000  C
  C18      1.0000 0.23394  0.61658  0.52608  Biso   1.000  C
  C19      1.0000 0.73394  0.88342  0.97392  Biso   1.000  C
  C20      1.0000 0.76606  0.11658  0.47392  Biso   1.000  C
  C21      1.0000 0.73394  0.61658  0.97392  Biso   1.000  C
  C22      1.0000 0.76606  0.38342  0.47392  Biso   1.000  C
  C23      1.0000 0.26606  0.11658  0.02608  Biso   1.000  C
  C24      1.0000 0.23394  0.88342  0.52608  Biso   1.000  C
  C25      1.0000 0.33419  0.41011  0.99525  Biso   1.000  C
  C26      1.0000 0.16581  0.58989  0.49525  Biso   1.000  C
  C27      1.0000 0.66581  0.91011  0.00475  Biso   1.000  C
  C28      1.0000 0.83419  0.08989  0.50475  Biso   1.000  C
  C29      1.0000 0.66581  0.58989  0.00475  Biso   1.000  C
  C30      1.0000 0.83419  0.41011  0.50475  Biso   1.000  C
  C31      1.0000 0.33419  0.08989  0.99525  Biso   1.000  C
  C32      1.0000 0.16581  0.91011  0.49525  Biso   1.000  C
  H9       1.0000 0.38450  0.39780  0.96980  Biso   1.000  H
  H10      1.0000 0.11550  0.60220  0.46980  Biso   1.000  H
  H11      1.0000 0.61550  0.89780  0.03020  Biso   1.000  H
  H12      1.0000 0.88450  0.10220  0.53020  Biso   1.000  H
  H13      1.0000 0.61550  0.60220  0.03020  Biso   1.000  H
  H14      1.0000 0.88450  0.39780  0.53020  Biso   1.000  H
  H15      1.0000 0.38450  0.10220  0.96980  Biso   1.000  H
  H16      1.0000 0.11550  0.89780  0.46980  Biso   1.000  H
  C33      1.0000 0.32659  0.45511  0.00267  Biso   1.000  C
  C34      1.0000 0.17341  0.54489  0.50267  Biso   1.000  C
  C35      1.0000 0.67341  0.95511  0.99733  Biso   1.000  C
  C36      1.0000 0.82659  0.04489  0.49733  Biso   1.000  C
  C37      1.0000 0.67341  0.54489  0.99733  Biso   1.000  C
  C38      1.0000 0.82659  0.45511  0.49733  Biso   1.000  C
  C39      1.0000 0.32659  0.04489  0.00267  Biso   1.000  C
  C40      1.0000 0.17341  0.95511  0.50267  Biso   1.000  C
  H17      1.0000 0.37260  0.47270  0.98200  Biso   1.000  H
  H18      1.0000 0.12740  0.52730  0.48200  Biso   1.000  H
  H19      1.0000 0.62740  0.97270  0.01800  Biso   1.000  H
  H20      1.0000 0.87260  0.02730  0.51800  Biso   1.000  H
  H21      1.0000 0.62740  0.52730  0.01800  Biso   1.000  H
  H22      1.0000 0.87260  0.47270  0.51800  Biso   1.000  H
  H23      1.0000 0.37260  0.02730  0.98200  Biso   1.000  H
  H24      1.0000 0.12740  0.97270  0.48200  Biso   1.000  H
  C41      1.0000 0.25256  0.47514  0.03990  Biso   1.000  C
  C42      1.0000 0.24744  0.52486  0.53990  Biso   1.000  C
  C43      1.0000 0.74744  0.97514  0.96010  Biso   1.000  C
  C44      1.0000 0.75256  0.02486  0.46010  Biso   1.000  C
  C45      1.0000 0.74744  0.52486  0.96010  Biso   1.000  C
  C46      1.0000 0.75256  0.47514  0.46010  Biso   1.000  C
  C47      1.0000 0.25256  0.02486  0.03990  Biso   1.000  C
  C48      1.0000 0.24744  0.97514  0.53990  Biso   1.000  C
  C49      1.0000 0.24408  0.52359  0.04113  Biso   1.000  C
  C50      1.0000 0.25592  0.47641  0.54113  Biso   1.000  C
  C51      1.0000 0.75592  0.02359  0.95887  Biso   1.000  C
  C52      1.0000 0.74408  0.97641  0.45887  Biso   1.000  C
  C53      1.0000 0.75592  0.47641  0.95887  Biso   1.000  C
  C54      1.0000 0.74408  0.52359  0.45887  Biso   1.000  C
  C55      1.0000 0.24408  0.97641  0.04113  Biso   1.000  C
  C56      1.0000 0.25592  0.02359  0.54113  Biso   1.000  C
  C57      1.0000 0.16826  0.54358  0.00653  Biso   1.000  C
  C58      1.0000 0.33174  0.45642  0.50653  Biso   1.000  C
  C59      1.0000 0.83174  0.04358  0.99347  Biso   1.000  C
  C60      1.0000 0.66826  0.95642  0.49347  Biso   1.000  C
  C61      1.0000 0.83174  0.45642  0.99347  Biso   1.000  C
  C62      1.0000 0.66826  0.54358  0.49347  Biso   1.000  C
  C63      1.0000 0.16826  0.95642  0.00653  Biso   1.000  C
  C64      1.0000 0.33174  0.04358  0.50653  Biso   1.000  C
  H25      1.0000 0.12300  0.52610  0.98420  Biso   1.000  H
  H26      1.0000 0.37700  0.47390  0.48420  Biso   1.000  H
  H27      1.0000 0.87700  0.02610  0.01580  Biso   1.000  H
  H28      1.0000 0.62300  0.97390  0.51580  Biso   1.000  H
  H29      1.0000 0.87700  0.47390  0.01580  Biso   1.000  H
  H30      1.0000 0.62300  0.52610  0.51580  Biso   1.000  H
  H31      1.0000 0.12300  0.97390  0.98420  Biso   1.000  H
  H32      1.0000 0.37700  0.02610  0.48420  Biso   1.000  H
  C65      1.0000 0.15838  0.58866  0.00449  Biso   1.000  C
  C66      1.0000 0.34162  0.41134  0.50449  Biso   1.000  C
  C67      1.0000 0.84162  0.08866  0.99551  Biso   1.000  C
  C68      1.0000 0.65838  0.91134  0.49551  Biso   1.000  C
  C69      1.0000 0.84162  0.41134  0.99551  Biso   1.000  C
  C70      1.0000 0.65838  0.58866  0.49551  Biso   1.000  C
  C71      1.0000 0.15838  0.91134  0.00449  Biso   1.000  C
  C72      1.0000 0.34162  0.08866  0.50449  Biso   1.000  C
  H33      1.0000 0.10750  0.60110  0.98040  Biso   1.000  H
  H34      1.0000 0.39250  0.39890  0.48040  Biso   1.000  H
  H35      1.0000 0.89250  0.10110  0.01960  Biso   1.000  H
  H36      1.0000 0.60750  0.89890  0.51960  Biso   1.000  H
  H37      1.0000 0.89250  0.39890  0.01960  Biso   1.000  H
  H38      1.0000 0.60750  0.60110  0.51960  Biso   1.000  H
  H39      1.0000 0.10750  0.89890  0.98040  Biso   1.000  H
  H40      1.0000 0.39250  0.10110  0.48040  Biso   1.000  H
  C73      1.0000 0.22452  0.61530  0.03852  Biso   1.000  C
  C74      1.0000 0.27548  0.38470  0.53852  Biso   1.000  C
  C75      1.0000 0.77548  0.11530  0.96148  Biso   1.000  C
  C76      1.0000 0.72452  0.88470  0.46148  Biso   1.000  C
  C77      1.0000 0.77548  0.38470  0.96148  Biso   1.000  C
  C78      1.0000 0.72452  0.61530  0.46148  Biso   1.000  C
  C79      1.0000 0.22452  0.88470  0.03852  Biso   1.000  C
  C80      1.0000 0.27548  0.11530  0.53852  Biso   1.000  C
  C81      1.0000 0.30074  0.59634  0.07389  Biso   1.000  C
  C82      1.0000 0.19926  0.40366  0.57389  Biso   1.000  C
  C83      1.0000 0.69926  0.09634  0.92611  Biso   1.000  C
  C84      1.0000 0.80074  0.90366  0.42611  Biso   1.000  C
  C85      1.0000 0.69926  0.40366  0.92611  Biso   1.000  C
  C86      1.0000 0.80074  0.59634  0.42611  Biso   1.000  C
  C87      1.0000 0.30074  0.90366  0.07389  Biso   1.000  C
  C88      1.0000 0.19926  0.09634  0.57389  Biso   1.000  C
  H41      1.0000 0.34500  0.61400  0.09730  Biso   1.000  H
  H42      1.0000 0.15500  0.38600  0.59730  Biso   1.000  H
  H43      1.0000 0.65500  0.11400  0.90270  Biso   1.000  H
  H44      1.0000 0.84500  0.88600  0.40270  Biso   1.000  H
  H45      1.0000 0.65500  0.38600  0.90270  Biso   1.000  H
  H46      1.0000 0.84500  0.61400  0.40270  Biso   1.000  H
  H47      1.0000 0.34500  0.88600  0.09730  Biso   1.000  H
  H48      1.0000 0.15500  0.11400  0.59730  Biso   1.000  H
  C89      1.0000 0.31082  0.55142  0.07432  Biso   1.000  C
  C90      1.0000 0.18918  0.44858  0.57432  Biso   1.000  C
  C91      1.0000 0.68918  0.05142  0.92568  Biso   1.000  C
  C92      1.0000 0.81082  0.94858  0.42568  Biso   1.000  C
  C93      1.0000 0.68918  0.44858  0.92568  Biso   1.000  C
  C94      1.0000 0.81082  0.55142  0.42568  Biso   1.000  C
  C95      1.0000 0.31082  0.94858  0.07432  Biso   1.000  C
  C96      1.0000 0.18918  0.05142  0.57432  Biso   1.000  C
  C97      1.0000 0.21415  0.66386  0.03592  Biso   1.000  C
  C98      1.0000 0.28585  0.33614  0.53592  Biso   1.000  C
  C99      1.0000 0.78585  0.16386  0.96408  Biso   1.000  C
  C100     1.0000 0.71415  0.83614  0.46408  Biso   1.000  C
  C101     1.0000 0.78585  0.33614  0.96408  Biso   1.000  C
  C102     1.0000 0.71415  0.66386  0.46408  Biso   1.000  C
  C103     1.0000 0.21415  0.83614  0.03592  Biso   1.000  C
  C104     1.0000 0.28585  0.16386  0.53592  Biso   1.000  C
  C105     1.0000 0.27004  0.33500  0.01256  Biso   1.000  C
  C106     1.0000 0.22996  0.66500  0.51256  Biso   1.000  C
  C107     1.0000 0.72996  0.83500  0.98744  Biso   1.000  C
  C108     1.0000 0.77004  0.16500  0.48744  Biso   1.000  C
  C109     1.0000 0.72996  0.66500  0.98744  Biso   1.000  C
  C110     1.0000 0.77004  0.33500  0.48744  Biso   1.000  C
  C111     1.0000 0.27004  0.16500  0.01256  Biso   1.000  C
  C112     1.0000 0.22996  0.83500  0.51256  Biso   1.000  C
  C113     1.0000 0.04308  0.44193  0.14311  Biso   1.000  C
  C114     1.0000 0.45692  0.55807  0.64311  Biso   1.000  C
  C115     1.0000 0.95692  0.94193  0.85689  Biso   1.000  C
  C116     1.0000 0.54308  0.05807  0.35689  Biso   1.000  C
  C117     1.0000 0.95692  0.55807  0.85689  Biso   1.000  C
  C118     1.0000 0.54308  0.44193  0.35689  Biso   1.000  C
  C119     1.0000 0.04308  0.05807  0.14311  Biso   1.000  C
  C120     1.0000 0.45692  0.94193  0.64311  Biso   1.000  C
  H49      1.0000 0.99740  0.46050  0.16650  Biso   1.000  H
  H50      1.0000 0.50260  0.53950  0.66650  Biso   1.000  H
  H51      1.0000 0.00260  0.96050  0.83350  Biso   1.000  H
  H52      1.0000 0.49740  0.03950  0.33350  Biso   1.000  H
  H53      1.0000 0.00260  0.53950  0.83350  Biso   1.000  H
  H54      1.0000 0.49740  0.46050  0.33350  Biso   1.000  H
  H55      1.0000 0.99740  0.03950  0.16650  Biso   1.000  H
  H56      1.0000 0.50260  0.96050  0.66650  Biso   1.000  H
  H57      1.0000 0.06710  0.42360  0.18730  Biso   1.000  H
  H58      1.0000 0.43290  0.57640  0.68730  Biso   1.000  H
  H59      1.0000 0.93290  0.92360  0.81270  Biso   1.000  H
  H60      1.0000 0.56710  0.07640  0.31270  Biso   1.000  H
  H61      1.0000 0.93290  0.57640  0.81270  Biso   1.000  H
  H62      1.0000 0.56710  0.42360  0.31270  Biso   1.000  H
  H63      1.0000 0.06710  0.07640  0.18730  Biso   1.000  H
  H64      1.0000 0.43290  0.92360  0.68730  Biso   1.000  H
  H65      1.0000 0.01780  0.42390  0.09910  Biso   1.000  H
  H66      1.0000 0.48220  0.57610  0.59910  Biso   1.000  H
  H67      1.0000 0.98220  0.92390  0.90090  Biso   1.000  H
  H68      1.0000 0.51780  0.07610  0.40090  Biso   1.000  H
  H69      1.0000 0.98220  0.57610  0.90090  Biso   1.000  H
  H70      1.0000 0.51780  0.42390  0.40090  Biso   1.000  H
  H71      1.0000 0.01780  0.07610  0.09910  Biso   1.000  H
  H72      1.0000 0.48220  0.92390  0.59910  Biso   1.000  H
  C121     1.0000 0.45533  0.55722  0.13988  Biso   1.000  C
  C122     1.0000 0.04467  0.44278  0.63988  Biso   1.000  C
  C123     1.0000 0.54467  0.05722  0.86012  Biso   1.000  C
  C124     1.0000 0.95533  0.94278  0.36012  Biso   1.000  C
  C125     1.0000 0.54467  0.44278  0.86012  Biso   1.000  C
  C126     1.0000 0.95533  0.55722  0.36012  Biso   1.000  C
  C127     1.0000 0.45533  0.94278  0.13988  Biso   1.000  C
  C128     1.0000 0.04467  0.05722  0.63988  Biso   1.000  C
  H73      1.0000 0.50300  0.53890  0.16020  Biso   1.000  H
  H74      1.0000 0.99700  0.46110  0.66020  Biso   1.000  H
  H75      1.0000 0.49700  0.03890  0.83980  Biso   1.000  H
  H76      1.0000 0.00300  0.96110  0.33980  Biso   1.000  H
  H77      1.0000 0.49700  0.46110  0.83980  Biso   1.000  H
  H78      1.0000 0.00300  0.53890  0.33980  Biso   1.000  H
  H79      1.0000 0.50300  0.96110  0.16020  Biso   1.000  H
  H80      1.0000 0.99700  0.03890  0.66020  Biso   1.000  H
  H81      1.0000 0.43260  0.57460  0.18610  Biso   1.000  H
  H82      1.0000 0.06740  0.42540  0.68610  Biso   1.000  H
  H83      1.0000 0.56740  0.07460  0.81390  Biso   1.000  H
  H84      1.0000 0.93260  0.92540  0.31390  Biso   1.000  H
  H85      1.0000 0.56740  0.42540  0.81390  Biso   1.000  H
  H86      1.0000 0.93260  0.57460  0.31390  Biso   1.000  H
  H87      1.0000 0.43260  0.92540  0.18610  Biso   1.000  H
  H88      1.0000 0.06740  0.07460  0.68610  Biso   1.000  H
  H89      1.0000 0.47760  0.57620  0.09590  Biso   1.000  H
  H90      1.0000 0.02240  0.42380  0.59590  Biso   1.000  H
  H91      1.0000 0.52240  0.07620  0.90410  Biso   1.000  H
  H92      1.0000 0.97760  0.92380  0.40410  Biso   1.000  H
  H93      1.0000 0.52240  0.42380  0.90410  Biso   1.000  H
  H94      1.0000 0.97760  0.57620  0.40410  Biso   1.000  H
  H95      1.0000 0.47760  0.92380  0.09590  Biso   1.000  H
  H96      1.0000 0.02240  0.07620  0.59590  Biso   1.000  H
  C129     1.0000 0.18290  0.44761  0.32689  Biso   1.000  C
  C130     1.0000 0.31710  0.55239  0.82689  Biso   1.000  C
  C131     1.0000 0.81710  0.94761  0.67311  Biso   1.000  C
  C132     1.0000 0.68290  0.05239  0.17311  Biso   1.000  C
  C133     1.0000 0.81710  0.55239  0.67311  Biso   1.000  C
  C134     1.0000 0.68290  0.44761  0.17311  Biso   1.000  C
  C135     1.0000 0.18290  0.05239  0.32689  Biso   1.000  C
  C136     1.0000 0.31710  0.94761  0.82689  Biso   1.000  C
  C137     1.0000 0.19065  0.40267  0.32605  Biso   1.000  C
  C138     1.0000 0.30935  0.59733  0.82605  Biso   1.000  C
  C139     1.0000 0.80935  0.90267  0.67395  Biso   1.000  C
  C140     1.0000 0.69065  0.09733  0.17395  Biso   1.000  C
  C141     1.0000 0.80935  0.59733  0.67395  Biso   1.000  C
  C142     1.0000 0.69065  0.40267  0.17395  Biso   1.000  C
  C143     1.0000 0.19065  0.09733  0.32605  Biso   1.000  C
  C144     1.0000 0.30935  0.90267  0.82605  Biso   1.000  C
  H97      1.0000 0.14670  0.38550  0.35140  Biso   1.000  H
  H98      1.0000 0.35330  0.61450  0.85140  Biso   1.000  H
  H99      1.0000 0.85330  0.88550  0.64860  Biso   1.000  H
  H100     1.0000 0.64670  0.11450  0.14860  Biso   1.000  H
  H101     1.0000 0.85330  0.61450  0.64860  Biso   1.000  H
  H102     1.0000 0.64670  0.38550  0.14860  Biso   1.000  H
  H103     1.0000 0.14670  0.11450  0.35140  Biso   1.000  H
  H104     1.0000 0.35330  0.88550  0.85140  Biso   1.000  H
  C145     1.0000 0.26409  0.38284  0.28738  Biso   1.000  C
  C146     1.0000 0.23591  0.61716  0.78738  Biso   1.000  C
  C147     1.0000 0.73591  0.88284  0.71262  Biso   1.000  C
  C148     1.0000 0.76409  0.11716  0.21262  Biso   1.000  C
  C149     1.0000 0.73591  0.61716  0.71262  Biso   1.000  C
  C150     1.0000 0.76409  0.38284  0.21262  Biso   1.000  C
  C151     1.0000 0.26409  0.11716  0.28738  Biso   1.000  C
  C152     1.0000 0.23591  0.88284  0.78738  Biso   1.000  C
  C153     1.0000 0.32971  0.40865  0.25020  Biso   1.000  C
  C154     1.0000 0.17029  0.59135  0.75020  Biso   1.000  C
  C155     1.0000 0.67029  0.90865  0.74980  Biso   1.000  C
  C156     1.0000 0.82971  0.09135  0.24980  Biso   1.000  C
  C157     1.0000 0.67029  0.59135  0.74980  Biso   1.000  C
  C158     1.0000 0.82971  0.40865  0.24980  Biso   1.000  C
  C159     1.0000 0.32971  0.09135  0.25020  Biso   1.000  C
  C160     1.0000 0.17029  0.90865  0.75020  Biso   1.000  C
  H105     1.0000 0.37820  0.39560  0.22310  Biso   1.000  H
  H106     1.0000 0.12180  0.60440  0.72310  Biso   1.000  H
  H107     1.0000 0.62180  0.89560  0.77690  Biso   1.000  H
  H108     1.0000 0.87820  0.10440  0.27690  Biso   1.000  H
  H109     1.0000 0.62180  0.60440  0.77690  Biso   1.000  H
  H110     1.0000 0.87820  0.39560  0.27690  Biso   1.000  H
  H111     1.0000 0.37820  0.10440  0.22310  Biso   1.000  H
  H112     1.0000 0.12180  0.89560  0.72310  Biso   1.000  H
  C161     1.0000 0.32282  0.45366  0.25356  Biso   1.000  C
  C162     1.0000 0.17718  0.54634  0.75356  Biso   1.000  C
  C163     1.0000 0.67718  0.95366  0.74644  Biso   1.000  C
  C164     1.0000 0.82282  0.04634  0.24644  Biso   1.000  C
  C165     1.0000 0.67718  0.54634  0.74644  Biso   1.000  C
  C166     1.0000 0.82282  0.45366  0.24644  Biso   1.000  C
  C167     1.0000 0.32282  0.04634  0.25356  Biso   1.000  C
  C168     1.0000 0.17718  0.95366  0.75356  Biso   1.000  C
  H113     1.0000 0.36830  0.47060  0.23010  Biso   1.000  H
  H114     1.0000 0.13170  0.52940  0.73010  Biso   1.000  H
  H115     1.0000 0.63170  0.97060  0.76990  Biso   1.000  H
  H116     1.0000 0.86830  0.02940  0.26990  Biso   1.000  H
  H117     1.0000 0.63170  0.52940  0.76990  Biso   1.000  H
  H118     1.0000 0.86830  0.47060  0.26990  Biso   1.000  H
  H119     1.0000 0.36830  0.02940  0.23010  Biso   1.000  H
  H120     1.0000 0.13170  0.97060  0.73010  Biso   1.000  H
  C169     1.0000 0.24981  0.47454  0.29097  Biso   1.000  C
  C170     1.0000 0.25019  0.52546  0.79097  Biso   1.000  C
  C171     1.0000 0.75019  0.97454  0.70903  Biso   1.000  C
  C172     1.0000 0.74981  0.02546  0.20903  Biso   1.000  C
  C173     1.0000 0.75019  0.52546  0.70903  Biso   1.000  C
  C174     1.0000 0.74981  0.47454  0.20903  Biso   1.000  C
  C175     1.0000 0.24981  0.02546  0.29097  Biso   1.000  C
  C176     1.0000 0.25019  0.97454  0.79097  Biso   1.000  C
  C177     1.0000 0.24120  0.52326  0.28925  Biso   1.000  C
  C178     1.0000 0.25880  0.47674  0.78925  Biso   1.000  C
  C179     1.0000 0.75880  0.02326  0.71075  Biso   1.000  C
  C180     1.0000 0.74120  0.97674  0.21075  Biso   1.000  C
  C181     1.0000 0.75880  0.47674  0.71075  Biso   1.000  C
  C182     1.0000 0.74120  0.52326  0.21075  Biso   1.000  C
  C183     1.0000 0.24120  0.97674  0.28925  Biso   1.000  C
  C184     1.0000 0.25880  0.02326  0.78925  Biso   1.000  C
  C185     1.0000 0.30954  0.55108  0.32052  Biso   1.000  C
  C186     1.0000 0.19046  0.44892  0.82052  Biso   1.000  C
  C187     1.0000 0.69046  0.05108  0.67948  Biso   1.000  C
  C188     1.0000 0.80954  0.94892  0.17948  Biso   1.000  C
  C189     1.0000 0.69046  0.44892  0.67948  Biso   1.000  C
  C190     1.0000 0.80954  0.55108  0.17948  Biso   1.000  C
  C191     1.0000 0.30954  0.94892  0.32052  Biso   1.000  C
  C192     1.0000 0.19046  0.05108  0.82052  Biso   1.000  C
  C193     1.0000 0.30043  0.59607  0.31690  Biso   1.000  C
  C194     1.0000 0.19957  0.40393  0.81690  Biso   1.000  C
  C195     1.0000 0.69957  0.09607  0.68310  Biso   1.000  C
  C196     1.0000 0.80043  0.90393  0.18310  Biso   1.000  C
  C197     1.0000 0.69957  0.40393  0.68310  Biso   1.000  C
  C198     1.0000 0.80043  0.59607  0.18310  Biso   1.000  C
  C199     1.0000 0.30043  0.90393  0.31690  Biso   1.000  C
  C200     1.0000 0.19957  0.09607  0.81690  Biso   1.000  C
  H121     1.0000 0.34530  0.61400  0.33880  Biso   1.000  H
  H122     1.0000 0.15470  0.38600  0.83880  Biso   1.000  H
  H123     1.0000 0.65470  0.11400  0.66120  Biso   1.000  H
  H124     1.0000 0.84530  0.88600  0.16120  Biso   1.000  H
  H125     1.0000 0.65470  0.38600  0.66120  Biso   1.000  H
  H126     1.0000 0.84530  0.61400  0.16120  Biso   1.000  H
  H127     1.0000 0.34530  0.88600  0.33880  Biso   1.000  H
  H128     1.0000 0.15470  0.11400  0.83880  Biso   1.000  H
  C201     1.0000 0.22407  0.61492  0.28045  Biso   1.000  C
  C202     1.0000 0.27593  0.38508  0.78045  Biso   1.000  C
  C203     1.0000 0.77593  0.11492  0.71955  Biso   1.000  C
  C204     1.0000 0.72407  0.88508  0.21955  Biso   1.000  C
  C205     1.0000 0.77593  0.38508  0.71955  Biso   1.000  C
  C206     1.0000 0.72407  0.61492  0.21955  Biso   1.000  C
  C207     1.0000 0.22407  0.88508  0.28045  Biso   1.000  C
  C208     1.0000 0.27593  0.11492  0.78045  Biso   1.000  C
  C209     1.0000 0.15716  0.58803  0.24882  Biso   1.000  C
  C210     1.0000 0.34284  0.41197  0.74882  Biso   1.000  C
  C211     1.0000 0.84284  0.08803  0.75118  Biso   1.000  C
  C212     1.0000 0.65716  0.91197  0.25118  Biso   1.000  C
  C213     1.0000 0.84284  0.41197  0.75118  Biso   1.000  C
  C214     1.0000 0.65716  0.58803  0.25118  Biso   1.000  C
  C215     1.0000 0.15716  0.91197  0.24882  Biso   1.000  C
  C216     1.0000 0.34284  0.08803  0.74882  Biso   1.000  C
  H129     1.0000 0.10630  0.60020  0.22410  Biso   1.000  H
  H130     1.0000 0.39370  0.39980  0.72410  Biso   1.000  H
  H131     1.0000 0.89370  0.10020  0.77590  Biso   1.000  H
  H132     1.0000 0.60630  0.89980  0.27590  Biso   1.000  H
  H133     1.0000 0.89370  0.39980  0.77590  Biso   1.000  H
  H134     1.0000 0.60630  0.60020  0.27590  Biso   1.000  H
  H135     1.0000 0.10630  0.89980  0.22410  Biso   1.000  H
  H136     1.0000 0.39370  0.10020  0.72410  Biso   1.000  H
  C217     1.0000 0.16620  0.54285  0.25410  Biso   1.000  C
  C218     1.0000 0.33380  0.45715  0.75410  Biso   1.000  C
  C219     1.0000 0.83380  0.04285  0.74590  Biso   1.000  C
  C220     1.0000 0.66620  0.95715  0.24590  Biso   1.000  C
  C221     1.0000 0.83380  0.45715  0.74590  Biso   1.000  C
  C222     1.0000 0.66620  0.54285  0.24590  Biso   1.000  C
  C223     1.0000 0.16620  0.95715  0.25410  Biso   1.000  C
  C224     1.0000 0.33380  0.04285  0.75410  Biso   1.000  C
  H137     1.0000 0.12040  0.52520  0.23340  Biso   1.000  H
  H138     1.0000 0.37960  0.47480  0.73340  Biso   1.000  H
  H139     1.0000 0.87960  0.02520  0.76660  Biso   1.000  H
  H140     1.0000 0.62040  0.97480  0.26660  Biso   1.000  H
  H141     1.0000 0.87960  0.47480  0.76660  Biso   1.000  H
  H142     1.0000 0.62040  0.52520  0.26660  Biso   1.000  H
  H143     1.0000 0.12040  0.97480  0.23340  Biso   1.000  H
  H144     1.0000 0.37960  0.02520  0.73340  Biso   1.000  H
  C225     1.0000 0.21462  0.66336  0.27286  Biso   1.000  C
  C226     1.0000 0.28538  0.33664  0.77286  Biso   1.000  C
  C227     1.0000 0.78538  0.16336  0.72714  Biso   1.000  C
  C228     1.0000 0.71462  0.83664  0.22714  Biso   1.000  C
  C229     1.0000 0.78538  0.33664  0.72714  Biso   1.000  C
  C230     1.0000 0.71462  0.66336  0.22714  Biso   1.000  C
  C231     1.0000 0.21462  0.83664  0.27286  Biso   1.000  C
  C232     1.0000 0.28538  0.16336  0.77286  Biso   1.000  C
  C233     1.0000 0.26895  0.33393  0.28320  Biso   1.000  C
  C234     1.0000 0.23105  0.66607  0.78320  Biso   1.000  C
  C235     1.0000 0.73105  0.83393  0.71680  Biso   1.000  C
  C236     1.0000 0.76895  0.16607  0.21680  Biso   1.000  C
  C237     1.0000 0.73105  0.66607  0.71680  Biso   1.000  C
  C238     1.0000 0.76895  0.33393  0.21680  Biso   1.000  C
  C239     1.0000 0.26895  0.16607  0.28320  Biso   1.000  C
  C240     1.0000 0.23105  0.83393  0.78320  Biso   1.000  C
  C241     1.0000 0.45314  0.55701  0.38763  Biso   1.000  C
  C242     1.0000 0.04686  0.44299  0.88763  Biso   1.000  C
  C243     1.0000 0.54686  0.05701  0.61237  Biso   1.000  C
  C244     1.0000 0.95314  0.94299  0.11237  Biso   1.000  C
  C245     1.0000 0.54686  0.44299  0.61237  Biso   1.000  C
  C246     1.0000 0.95314  0.55701  0.11237  Biso   1.000  C
  C247     1.0000 0.45314  0.94299  0.38763  Biso   1.000  C
  C248     1.0000 0.04686  0.05701  0.88763  Biso   1.000  C
  H145     1.0000 0.50040  0.53870  0.40860  Biso   1.000  H
  H146     1.0000 0.99960  0.46130  0.90860  Biso   1.000  H
  H147     1.0000 0.49960  0.03870  0.59140  Biso   1.000  H
  H148     1.0000 0.00040  0.96130  0.09140  Biso   1.000  H
  H149     1.0000 0.49960  0.46130  0.59140  Biso   1.000  H
  H150     1.0000 0.00040  0.53870  0.09140  Biso   1.000  H
  H151     1.0000 0.50040  0.96130  0.40860  Biso   1.000  H
  H152     1.0000 0.99960  0.03870  0.90860  Biso   1.000  H
  H153     1.0000 0.42980  0.57440  0.43350  Biso   1.000  H
  H154     1.0000 0.07020  0.42560  0.93350  Biso   1.000  H
  H155     1.0000 0.57020  0.07440  0.56650  Biso   1.000  H
  H156     1.0000 0.92980  0.92560  0.06650  Biso   1.000  H
  H157     1.0000 0.57020  0.42560  0.56650  Biso   1.000  H
  H158     1.0000 0.92980  0.57440  0.06650  Biso   1.000  H
  H159     1.0000 0.42980  0.92560  0.43350  Biso   1.000  H
  H160     1.0000 0.07020  0.07440  0.93350  Biso   1.000  H
  H161     1.0000 0.47610  0.57590  0.34390  Biso   1.000  H
  H162     1.0000 0.02390  0.42410  0.84390  Biso   1.000  H
  H163     1.0000 0.52390  0.07590  0.65610  Biso   1.000  H
  H164     1.0000 0.97610  0.92410  0.15610  Biso   1.000  H
  H165     1.0000 0.52390  0.42410  0.65610  Biso   1.000  H
  H166     1.0000 0.97610  0.57590  0.15610  Biso   1.000  H
  H167     1.0000 0.47610  0.92410  0.34390  Biso   1.000  H
  H168     1.0000 0.02390  0.07590  0.84390  Biso   1.000  H
  C249     1.0000 0.03966  0.44298  0.39420  Biso   1.000  C
  C250     1.0000 0.46034  0.55702  0.89420  Biso   1.000  C
  C251     1.0000 0.96034  0.94298  0.60580  Biso   1.000  C
  C252     1.0000 0.53966  0.05702  0.10580  Biso   1.000  C
  C253     1.0000 0.96034  0.55702  0.60580  Biso   1.000  C
  C254     1.0000 0.53966  0.44298  0.10580  Biso   1.000  C
  C255     1.0000 0.03966  0.05702  0.39420  Biso   1.000  C
  C256     1.0000 0.46034  0.94298  0.89420  Biso   1.000  C
  H169     1.0000 0.99340  0.46170  0.41610  Biso   1.000  H
  H170     1.0000 0.50660  0.53830  0.91610  Biso   1.000  H
  H171     1.0000 0.00660  0.96170  0.58390  Biso   1.000  H
  H172     1.0000 0.49340  0.03830  0.08390  Biso   1.000  H
  H173     1.0000 0.00660  0.53830  0.58390  Biso   1.000  H
  H174     1.0000 0.49340  0.46170  0.08390  Biso   1.000  H
  H175     1.0000 0.99340  0.03830  0.41610  Biso   1.000  H
  H176     1.0000 0.50660  0.96170  0.91610  Biso   1.000  H
  H177     1.0000 0.06230  0.42480  0.43920  Biso   1.000  H
  H178     1.0000 0.43770  0.57520  0.93920  Biso   1.000  H
  H179     1.0000 0.93770  0.92480  0.56080  Biso   1.000  H
  H180     1.0000 0.56230  0.07520  0.06080  Biso   1.000  H
  H181     1.0000 0.93770  0.57520  0.56080  Biso   1.000  H
  H182     1.0000 0.56230  0.42480  0.06080  Biso   1.000  H
  H183     1.0000 0.06230  0.07520  0.43920  Biso   1.000  H
  H184     1.0000 0.43770  0.92480  0.93920  Biso   1.000  H
  H185     1.0000 0.01550  0.42480  0.34980  Biso   1.000  H
  H186     1.0000 0.48450  0.57520  0.84980  Biso   1.000  H
  H187     1.0000 0.98450  0.92480  0.65020  Biso   1.000  H
  H188     1.0000 0.51550  0.07520  0.15020  Biso   1.000  H
  H189     1.0000 0.98450  0.57520  0.65020  Biso   1.000  H
  H190     1.0000 0.51550  0.42480  0.15020  Biso   1.000  H
  H191     1.0000 0.01550  0.07520  0.34980  Biso   1.000  H
  H192     1.0000 0.48450  0.92480  0.84980  Biso   1.000  H
  O97      1.0000 0.16490  0.75000  0.14570  Biso   1.000  O
  O98      1.0000 0.33510  0.25000  0.64570  Biso   1.000  O
  O99      1.0000 0.83510  0.25000  0.85430  Biso   1.000  O
  O100     1.0000 0.66490  0.75000  0.35430  Biso   1.000  O
  H193     1.0000 0.16000  0.72910  0.17730  Biso   1.000  H
  H194     1.0000 0.34000  0.27090  0.67730  Biso   1.000  H
  H195     1.0000 0.84000  0.22910  0.82270  Biso   1.000  H
  H196     1.0000 0.66000  0.77090  0.32270  Biso   1.000  H
  H197     1.0000 0.84000  0.27090  0.82270  Biso   1.000  H
  H198     1.0000 0.66000  0.72910  0.32270  Biso   1.000  H
  H199     1.0000 0.16000  0.77090  0.17730  Biso   1.000  H
  H200     1.0000 0.34000  0.22910  0.67730  Biso   1.000  H
  O101     1.0000 0.17140  0.75000  0.37760  Biso   1.000  O
  O102     1.0000 0.32860  0.25000  0.87760  Biso   1.000  O
  O103     1.0000 0.82860  0.25000  0.62240  Biso   1.000  O
  O104     1.0000 0.67140  0.75000  0.12240  Biso   1.000  O
  H201     1.0000 0.16900  0.72930  0.41110  Biso   1.000  H
  H202     1.0000 0.33100  0.27070  0.91110  Biso   1.000  H
  H203     1.0000 0.83100  0.22930  0.58890  Biso   1.000  H
  H204     1.0000 0.66900  0.77070  0.08890  Biso   1.000  H
  H205     1.0000 0.83100  0.27070  0.58890  Biso   1.000  H
  H206     1.0000 0.66900  0.72930  0.08890  Biso   1.000  H
  H207     1.0000 0.16900  0.77070  0.41110  Biso   1.000  H
  H208     1.0000 0.33100  0.22930  0.91110  Biso   1.000  H
  O105     1.0000 0.22030  0.75000  0.62960  Biso   1.000  O
  O106     1.0000 0.27970  0.25000  0.12960  Biso   1.000  O
  O107     1.0000 0.77970  0.25000  0.37040  Biso   1.000  O
  O108     1.0000 0.72030  0.75000  0.87040  Biso   1.000  O
  H209     1.0000 0.21800  0.73040  0.66370  Biso   1.000  H
  H210     1.0000 0.28200  0.26960  0.16370  Biso   1.000  H
  H211     1.0000 0.78200  0.23040  0.33630  Biso   1.000  H
  H212     1.0000 0.71800  0.76960  0.83630  Biso   1.000  H
  H213     1.0000 0.78200  0.26960  0.33630  Biso   1.000  H
  H214     1.0000 0.71800  0.73040  0.83630  Biso   1.000  H
  H215     1.0000 0.21800  0.76960  0.66370  Biso   1.000  H
  H216     1.0000 0.28200  0.23040  0.16370  Biso   1.000  H
  O109     1.0000 0.32740  0.25000  0.40320  Biso   1.000  O
  O110     1.0000 0.17260  0.75000  0.90320  Biso   1.000  O
  O111     1.0000 0.67260  0.75000  0.59680  Biso   1.000  O
  O112     1.0000 0.82740  0.25000  0.09680  Biso   1.000  O
  H217     1.0000 0.34100  0.26960  0.43730  Biso   1.000  H
  H218     1.0000 0.15900  0.73040  0.93730  Biso   1.000  H
  H219     1.0000 0.65900  0.76960  0.56270  Biso   1.000  H
  H220     1.0000 0.84100  0.23040  0.06270  Biso   1.000  H
  H221     1.0000 0.65900  0.73040  0.56270  Biso   1.000  H
  H222     1.0000 0.84100  0.26960  0.06270  Biso   1.000  H
  H223     1.0000 0.34100  0.23040  0.43730  Biso   1.000  H
  H224     1.0000 0.15900  0.76960  0.93730  Biso   1.000  H
  O113     1.0000 0.37180  0.75000  0.42070  Biso   1.000  O
  O114     1.0000 0.12820  0.25000  0.92070  Biso   1.000  O
  O115     1.0000 0.62820  0.25000  0.57930  Biso   1.000  O
  O116     1.0000 0.87180  0.75000  0.07930  Biso   1.000  O
  H225     1.0000 0.40790  0.73070  0.41300  Biso   1.000  H
  H226     1.0000 0.09210  0.26930  0.91300  Biso   1.000  H
  H227     1.0000 0.59210  0.23070  0.58700  Biso   1.000  H
  H228     1.0000 0.90790  0.76930  0.08700  Biso   1.000  H
  H229     1.0000 0.59210  0.26930  0.58700  Biso   1.000  H
  H230     1.0000 0.90790  0.73070  0.08700  Biso   1.000  H
  H231     1.0000 0.40790  0.76930  0.41300  Biso   1.000  H
  H232     1.0000 0.09210  0.23070  0.91300  Biso   1.000  H
  O117     1.0000 0.36490  0.75000  0.20500  Biso   1.000  O
  O118     1.0000 0.13510  0.25000  0.70500  Biso   1.000  O
  O119     1.0000 0.63510  0.25000  0.79500  Biso   1.000  O
  O120     1.0000 0.86490  0.75000  0.29500  Biso   1.000  O
  H233     1.0000 0.39840  0.73360  0.19680  Biso   1.000  H
  H234     1.0000 0.10160  0.26640  0.69680  Biso   1.000  H
  H235     1.0000 0.60160  0.23360  0.80320  Biso   1.000  H
  H236     1.0000 0.89840  0.76640  0.30320  Biso   1.000  H
  H237     1.0000 0.60160  0.26640  0.80320  Biso   1.000  H
  H238     1.0000 0.89840  0.73360  0.30320  Biso   1.000  H
  H239     1.0000 0.39840  0.76640  0.19680  Biso   1.000  H
  H240     1.0000 0.10160  0.23360  0.69680  Biso   1.000  H
  O121     1.0000 0.37120  0.75000  0.98871  Biso   1.000  O
  O122     1.0000 0.12880  0.25000  0.48871  Biso   1.000  O
  O123     1.0000 0.62880  0.25000  0.01129  Biso   1.000  O
  O124     1.0000 0.87120  0.75000  0.51129  Biso   1.000  O
  H241     1.0000 0.40400  0.72810  0.99660  Biso   1.000  H
  H242     1.0000 0.09600  0.27190  0.49660  Biso   1.000  H
  H243     1.0000 0.59600  0.22810  0.00340  Biso   1.000  H
  H244     1.0000 0.90400  0.77190  0.50340  Biso   1.000  H
  H245     1.0000 0.59600  0.27190  0.00340  Biso   1.000  H
  H246     1.0000 0.90400  0.72810  0.50340  Biso   1.000  H
  H247     1.0000 0.40400  0.77190  0.99660  Biso   1.000  H
  H248     1.0000 0.09600  0.22810  0.49660  Biso   1.000  H
  O125     1.0000 0.09800  0.25000  0.28380  Biso   1.000  O
  O126     1.0000 0.40200  0.75000  0.78380  Biso   1.000  O
  O127     1.0000 0.90200  0.75000  0.71620  Biso   1.000  O
  O128     1.0000 0.59800  0.25000  0.21620  Biso   1.000  O
  H249     1.0000 0.07830  0.27310  0.28910  Biso   1.000  H
  H250     1.0000 0.42170  0.72690  0.78910  Biso   1.000  H
  H251     1.0000 0.92170  0.77310  0.71090  Biso   1.000  H
  H252     1.0000 0.57830  0.22690  0.21090  Biso   1.000  H
  H253     1.0000 0.92170  0.72690  0.71090  Biso   1.000  H
  H254     1.0000 0.57830  0.27310  0.21090  Biso   1.000  H
  H255     1.0000 0.07830  0.22690  0.28910  Biso   1.000  H
  H256     1.0000 0.42170  0.77310  0.78910  Biso   1.000  H
  O129     1.0000 0.42960  0.75000  0.60810  Biso   1.000  O
  O130     1.0000 0.07040  0.25000  0.10810  Biso   1.000  O
  O131     1.0000 0.57040  0.25000  0.39190  Biso   1.000  O
  O132     1.0000 0.92960  0.75000  0.89190  Biso   1.000  O
  H257     1.0000 0.45800  0.72830  0.61400  Biso   1.000  H
  H258     1.0000 0.04200  0.27170  0.11400  Biso   1.000  H
  H259     1.0000 0.54200  0.22830  0.38600  Biso   1.000  H
  H260     1.0000 0.95800  0.77170  0.88600  Biso   1.000  H
  H261     1.0000 0.54200  0.27170  0.38600  Biso   1.000  H
  H262     1.0000 0.95800  0.72830  0.88600  Biso   1.000  H
  H263     1.0000 0.45800  0.77170  0.61400  Biso   1.000  H
  H264     1.0000 0.04200  0.22830  0.11400  Biso   1.000  H
  O133     1.0000 0.50070  0.32601  0.18610  Biso   1.000  O
  O134     1.0000 0.99930  0.67399  0.68610  Biso   1.000  O
  O135     1.0000 0.49930  0.82601  0.81390  Biso   1.000  O
  O136     1.0000 0.00070  0.17399  0.31390  Biso   1.000  O
  O137     1.0000 0.49930  0.67399  0.81390  Biso   1.000  O
  O138     1.0000 0.00070  0.32601  0.31390  Biso   1.000  O
  O139     1.0000 0.50070  0.17399  0.18610  Biso   1.000  O
  O140     1.0000 0.99930  0.82601  0.68610  Biso   1.000  O
  H265     1.0000 0.45440  0.34120  0.16030  Biso   1.000  H
  H266     1.0000 0.04560  0.65880  0.66030  Biso   1.000  H
  H267     1.0000 0.54560  0.84120  0.83970  Biso   1.000  H
  H268     1.0000 0.95440  0.15880  0.33970  Biso   1.000  H
  H269     1.0000 0.54560  0.65880  0.83970  Biso   1.000  H
  H270     1.0000 0.95440  0.34120  0.33970  Biso   1.000  H
  H271     1.0000 0.45440  0.15880  0.16030  Biso   1.000  H
  H272     1.0000 0.04560  0.84120  0.66030  Biso   1.000  H
  H273     1.0000 0.46190  0.31400  0.21250  Biso   1.000  H
  H274     1.0000 0.03810  0.68600  0.71250  Biso   1.000  H
  H275     1.0000 0.53810  0.81400  0.78750  Biso   1.000  H
  H276     1.0000 0.96190  0.18600  0.28750  Biso   1.000  H
  H277     1.0000 0.53810  0.68600  0.78750  Biso   1.000  H
  H278     1.0000 0.96190  0.31400  0.28750  Biso   1.000  H
  H279     1.0000 0.46190  0.18600  0.21250  Biso   1.000  H
  H280     1.0000 0.03810  0.81400  0.71250  Biso   1.000  H
  O141     1.0000 0.50530  0.66774  0.61850  Biso   1.000  O
  O142     1.0000 0.99470  0.33226  0.11850  Biso   1.000  O
  O143     1.0000 0.49470  0.16774  0.38150  Biso   1.000  O
  O144     1.0000 0.00530  0.83226  0.88150  Biso   1.000  O
  O145     1.0000 0.49470  0.33226  0.38150  Biso   1.000  O
  O146     1.0000 0.00530  0.66774  0.88150  Biso   1.000  O
  O147     1.0000 0.50530  0.83226  0.61850  Biso   1.000  O
  O148     1.0000 0.99470  0.16774  0.11850  Biso   1.000  O
  H281     1.0000 0.48780  0.65750  0.66860  Biso   1.000  H
  H282     1.0000 0.01220  0.34250  0.16860  Biso   1.000  H
  H283     1.0000 0.51220  0.15750  0.33140  Biso   1.000  H
  H284     1.0000 0.98780  0.84250  0.83140  Biso   1.000  H
  H285     1.0000 0.51220  0.34250  0.33140  Biso   1.000  H
  H286     1.0000 0.98780  0.65750  0.83140  Biso   1.000  H
  H287     1.0000 0.48780  0.84250  0.66860  Biso   1.000  H
  H288     1.0000 0.01220  0.15750  0.16860  Biso   1.000  H
  H289     1.0000 0.56180  0.66020  0.61140  Biso   1.000  H
  H290     1.0000 0.93820  0.33980  0.11140  Biso   1.000  H
  H291     1.0000 0.43820  0.16020  0.38860  Biso   1.000  H
  H292     1.0000 0.06180  0.83980  0.88860  Biso   1.000  H
  H293     1.0000 0.43820  0.33980  0.38860  Biso   1.000  H
  H294     1.0000 0.06180  0.66020  0.88860  Biso   1.000  H
  H295     1.0000 0.56180  0.83980  0.61140  Biso   1.000  H
  H296     1.0000 0.93820  0.16020  0.11140  Biso   1.000  H
  O149     1.0000 0.47592  0.67739  0.00760  Biso   1.000  O
  O150     1.0000 0.02408  0.32261  0.50760  Biso   1.000  O
  O151     1.0000 0.52408  0.17739  0.99240  Biso   1.000  O
  O152     1.0000 0.97592  0.82261  0.49240  Biso   1.000  O
  O153     1.0000 0.52408  0.32261  0.99240  Biso   1.000  O
  O154     1.0000 0.97592  0.67739  0.49240  Biso   1.000  O
  O155     1.0000 0.47592  0.82261  0.00760  Biso   1.000  O
  O156     1.0000 0.02408  0.17739  0.50760  Biso   1.000  O
  H297     1.0000 0.52740  0.67890  0.02540  Biso   1.000  H
  H298     1.0000 0.97260  0.32110  0.52540  Biso   1.000  H
  H299     1.0000 0.47260  0.17890  0.97460  Biso   1.000  H
  H300     1.0000 0.02740  0.82110  0.47460  Biso   1.000  H
  H301     1.0000 0.47260  0.32110  0.97460  Biso   1.000  H
  H302     1.0000 0.02740  0.67890  0.47460  Biso   1.000  H
  H303     1.0000 0.52740  0.82110  0.02540  Biso   1.000  H
  H304     1.0000 0.97260  0.17890  0.52540  Biso   1.000  H
  H305     1.0000 0.47580  0.66750  0.96050  Biso   1.000  H
  H306     1.0000 0.02420  0.33250  0.46050  Biso   1.000  H
  H307     1.0000 0.52420  0.16750  0.03950  Biso   1.000  H
  H308     1.0000 0.97580  0.83250  0.53950  Biso   1.000  H
  H309     1.0000 0.52420  0.33250  0.03950  Biso   1.000  H
  H310     1.0000 0.97580  0.66750  0.53950  Biso   1.000  H
  H311     1.0000 0.47580  0.83250  0.96050  Biso   1.000  H
  H312     1.0000 0.02420  0.16750  0.46050  Biso   1.000  H
  O157     1.0000 0.46704  0.67605  0.21010  Biso   1.000  O
  O158     1.0000 0.03296  0.32395  0.71010  Biso   1.000  O
  O159     1.0000 0.53296  0.17605  0.78990  Biso   1.000  O
  O160     1.0000 0.96704  0.82395  0.28990  Biso   1.000  O
  O161     1.0000 0.53296  0.32395  0.78990  Biso   1.000  O
  O162     1.0000 0.96704  0.67605  0.28990  Biso   1.000  O
  O163     1.0000 0.46704  0.82395  0.21010  Biso   1.000  O
  O164     1.0000 0.03296  0.17605  0.71010  Biso   1.000  O
  H313     1.0000 0.44340  0.67750  0.26640  Biso   1.000  H
  H314     1.0000 0.05660  0.32250  0.76640  Biso   1.000  H
  H315     1.0000 0.55660  0.17750  0.73360  Biso   1.000  H
  H316     1.0000 0.94340  0.82250  0.23360  Biso   1.000  H
  H317     1.0000 0.55660  0.32250  0.73360  Biso   1.000  H
  H318     1.0000 0.94340  0.67750  0.23360  Biso   1.000  H
  H319     1.0000 0.44340  0.82250  0.26640  Biso   1.000  H
  H320     1.0000 0.05660  0.17750  0.76640  Biso   1.000  H
  H321     1.0000 0.40960  0.66400  0.20840  Biso   1.000  H
  H322     1.0000 0.09040  0.33600  0.70840  Biso   1.000  H
  H323     1.0000 0.59040  0.16400  0.79160  Biso   1.000  H
  H324     1.0000 0.90960  0.83600  0.29160  Biso   1.000  H
  H325     1.0000 0.59040  0.33600  0.79160  Biso   1.000  H
  H326     1.0000 0.90960  0.66400  0.29160  Biso   1.000  H
  H327     1.0000 0.40960  0.83600  0.20840  Biso   1.000  H
  H328     1.0000 0.09040  0.16400  0.70840  Biso   1.000  H
  O165     1.0000 0.46900  0.67536  0.42140  Biso   1.000  O
  O166     1.0000 0.03100  0.32464  0.92140  Biso   1.000  O
  O167     1.0000 0.53100  0.17536  0.57860  Biso   1.000  O
  O168     1.0000 0.96900  0.82464  0.07860  Biso   1.000  O
  O169     1.0000 0.53100  0.32464  0.57860  Biso   1.000  O
  O170     1.0000 0.96900  0.67536  0.07860  Biso   1.000  O
  O171     1.0000 0.46900  0.82464  0.42140  Biso   1.000  O
  O172     1.0000 0.03100  0.17536  0.92140  Biso   1.000  O
  H329     1.0000 0.52000  0.67140  0.41500  Biso   1.000  H
  H330     1.0000 0.98000  0.32860  0.91500  Biso   1.000  H
  H331     1.0000 0.48000  0.17140  0.58500  Biso   1.000  H
  H332     1.0000 0.02000  0.82860  0.08500  Biso   1.000  H
  H333     1.0000 0.48000  0.32860  0.58500  Biso   1.000  H
  H334     1.0000 0.02000  0.67140  0.08500  Biso   1.000  H
  H335     1.0000 0.52000  0.82860  0.41500  Biso   1.000  H
  H336     1.0000 0.98000  0.17140  0.91500  Biso   1.000  H
  H337     1.0000 0.43450  0.66250  0.45100  Biso   1.000  H
  H338     1.0000 0.06550  0.33750  0.95100  Biso   1.000  H
  H339     1.0000 0.56550  0.16250  0.54900  Biso   1.000  H
  H340     1.0000 0.93450  0.83750  0.04900  Biso   1.000  H
  H341     1.0000 0.56550  0.33750  0.54900  Biso   1.000  H
  H342     1.0000 0.93450  0.66250  0.04900  Biso   1.000  H
  H343     1.0000 0.43450  0.83750  0.45100  Biso   1.000  H
  H344     1.0000 0.06550  0.16250  0.95100  Biso   1.000  H
