data_image0
_cell_length_a       26.2171
_cell_length_b       13.4833
_cell_length_c       22.4964
_cell_angle_alpha    90
_cell_angle_beta     108.184
_cell_angle_gamma    90

_symmetry_space_group_name_H-M    "P 1"
_symmetry_int_tables_number       1

loop_
  _symmetry_equiv_pos_as_xyz
  'x, y, z'

loop_
  _atom_site_label
  _atom_site_occupancy
  _atom_site_fract_x
  _atom_site_fract_y
  _atom_site_fract_z
  _atom_site_thermal_displace_type
  _atom_site_B_iso_or_equiv
  _atom_site_type_symbol
  C1       1.0000 0.31040  0.08740  0.49290  Biso   1.000  C
  C2       1.0000 0.68960  0.08740  0.00710  Biso   1.000  C
  C3       1.0000 0.81040  0.58740  0.49290  Biso   1.000  C
  C4       1.0000 0.18960  0.58740  0.00710  Biso   1.000  C
  C5       1.0000 0.68960  0.91260  0.50710  Biso   1.000  C
  C6       1.0000 0.31040  0.91260  0.99290  Biso   1.000  C
  C7       1.0000 0.18960  0.41260  0.50710  Biso   1.000  C
  C8       1.0000 0.81040  0.41260  0.99290  Biso   1.000  C
  H1       1.0000 0.32580  0.14310  0.47910  Biso   1.000  H
  H2       1.0000 0.67420  0.14310  0.02090  Biso   1.000  H
  H3       1.0000 0.82580  0.64310  0.47910  Biso   1.000  H
  H4       1.0000 0.17420  0.64310  0.02090  Biso   1.000  H
  H5       1.0000 0.67420  0.85690  0.52090  Biso   1.000  H
  H6       1.0000 0.32580  0.85690  0.97910  Biso   1.000  H
  H7       1.0000 0.17420  0.35690  0.52090  Biso   1.000  H
  H8       1.0000 0.82580  0.35690  0.97910  Biso   1.000  H
  C9       1.0000 0.34230  0.02410  0.53660  Biso   1.000  C
  C10      1.0000 0.65770  0.02410  0.96340  Biso   1.000  C
  C11      1.0000 0.84230  0.52410  0.53660  Biso   1.000  C
  C12      1.0000 0.15770  0.52410  0.96340  Biso   1.000  C
  C13      1.0000 0.65770  0.97590  0.46340  Biso   1.000  C
  C14      1.0000 0.34230  0.97590  0.03660  Biso   1.000  C
  C15      1.0000 0.15770  0.47590  0.46340  Biso   1.000  C
  C16      1.0000 0.84230  0.47590  0.03660  Biso   1.000  C
  C17      1.0000 0.31780  0.94290  0.55570  Biso   1.000  C
  C18      1.0000 0.68220  0.94290  0.94430  Biso   1.000  C
  C19      1.0000 0.81780  0.44290  0.55570  Biso   1.000  C
  C20      1.0000 0.18220  0.44290  0.94430  Biso   1.000  C
  C21      1.0000 0.68220  0.05710  0.44430  Biso   1.000  C
  C22      1.0000 0.31780  0.05710  0.05570  Biso   1.000  C
  C23      1.0000 0.18220  0.55710  0.44430  Biso   1.000  C
  C24      1.0000 0.81780  0.55710  0.05570  Biso   1.000  C
  H9       1.0000 0.33850  0.89770  0.58600  Biso   1.000  H
  H10      1.0000 0.66150  0.89770  0.91400  Biso   1.000  H
  H11      1.0000 0.83850  0.39770  0.58600  Biso   1.000  H
  H12      1.0000 0.16150  0.39770  0.91400  Biso   1.000  H
  H13      1.0000 0.66150  0.10230  0.41400  Biso   1.000  H
  H14      1.0000 0.33850  0.10230  0.08600  Biso   1.000  H
  H15      1.0000 0.16150  0.60230  0.41400  Biso   1.000  H
  H16      1.0000 0.83850  0.60230  0.08600  Biso   1.000  H
  C25      1.0000 0.26270  0.92960  0.52960  Biso   1.000  C
  C26      1.0000 0.73730  0.92960  0.97040  Biso   1.000  C
  C27      1.0000 0.76270  0.42960  0.52960  Biso   1.000  C
  C28      1.0000 0.23730  0.42960  0.97040  Biso   1.000  C
  C29      1.0000 0.73730  0.07040  0.47040  Biso   1.000  C
  C30      1.0000 0.26270  0.07040  0.02960  Biso   1.000  C
  C31      1.0000 0.23730  0.57040  0.47040  Biso   1.000  C
  C32      1.0000 0.76270  0.57040  0.02960  Biso   1.000  C
  C33      1.0000 0.23480  0.84580  0.54890  Biso   1.000  C
  C34      1.0000 0.76520  0.84580  0.95110  Biso   1.000  C
  C35      1.0000 0.73480  0.34580  0.54890  Biso   1.000  C
  C36      1.0000 0.26520  0.34580  0.95110  Biso   1.000  C
  C37      1.0000 0.76520  0.15420  0.45110  Biso   1.000  C
  C38      1.0000 0.23480  0.15420  0.04890  Biso   1.000  C
  C39      1.0000 0.26520  0.65420  0.45110  Biso   1.000  C
  C40      1.0000 0.73480  0.65420  0.04890  Biso   1.000  C
  C41      1.0000 0.17870  0.83920  0.52880  Biso   1.000  C
  C42      1.0000 0.82130  0.83920  0.97120  Biso   1.000  C
  C43      1.0000 0.67870  0.33920  0.52880  Biso   1.000  C
  C44      1.0000 0.32130  0.33920  0.97120  Biso   1.000  C
  C45      1.0000 0.82130  0.16080  0.47120  Biso   1.000  C
  C46      1.0000 0.17870  0.16080  0.02880  Biso   1.000  C
  C47      1.0000 0.32130  0.66080  0.47120  Biso   1.000  C
  C48      1.0000 0.67870  0.66080  0.02880  Biso   1.000  C
  H17      1.0000 0.15780  0.88770  0.50110  Biso   1.000  H
  H18      1.0000 0.84220  0.88770  0.99890  Biso   1.000  H
  H19      1.0000 0.65780  0.38770  0.50110  Biso   1.000  H
  H20      1.0000 0.34220  0.38770  0.99890  Biso   1.000  H
  H21      1.0000 0.84220  0.11230  0.49890  Biso   1.000  H
  H22      1.0000 0.15780  0.11230  0.00110  Biso   1.000  H
  H23      1.0000 0.34220  0.61230  0.49890  Biso   1.000  H
  H24      1.0000 0.65780  0.61230  0.00110  Biso   1.000  H
  C49      1.0000 0.15340  0.76200  0.54930  Biso   1.000  C
  C50      1.0000 0.84660  0.76200  0.95070  Biso   1.000  C
  C51      1.0000 0.65340  0.26200  0.54930  Biso   1.000  C
  C52      1.0000 0.34660  0.26200  0.95070  Biso   1.000  C
  C53      1.0000 0.84660  0.23800  0.45070  Biso   1.000  C
  C54      1.0000 0.15340  0.23800  0.04930  Biso   1.000  C
  C55      1.0000 0.34660  0.73800  0.45070  Biso   1.000  C
  C56      1.0000 0.65340  0.73800  0.04930  Biso   1.000  C
  H25      1.0000 0.11530  0.75870  0.53590  Biso   1.000  H
  H26      1.0000 0.88470  0.75870  0.96410  Biso   1.000  H
  H27      1.0000 0.61530  0.25870  0.53590  Biso   1.000  H
  H28      1.0000 0.38470  0.25870  0.96410  Biso   1.000  H
  H29      1.0000 0.88470  0.24130  0.46410  Biso   1.000  H
  H30      1.0000 0.11530  0.24130  0.03590  Biso   1.000  H
  H31      1.0000 0.38470  0.74130  0.46410  Biso   1.000  H
  H32      1.0000 0.61530  0.74130  0.03590  Biso   1.000  H
  C57      1.0000 0.18270  0.69010  0.58870  Biso   1.000  C
  C58      1.0000 0.81730  0.69010  0.91130  Biso   1.000  C
  C59      1.0000 0.68270  0.19010  0.58870  Biso   1.000  C
  C60      1.0000 0.31730  0.19010  0.91130  Biso   1.000  C
  C61      1.0000 0.81730  0.30990  0.41130  Biso   1.000  C
  C62      1.0000 0.18270  0.30990  0.08870  Biso   1.000  C
  C63      1.0000 0.31730  0.80990  0.41130  Biso   1.000  C
  C64      1.0000 0.68270  0.80990  0.08870  Biso   1.000  C
  C65      1.0000 0.23870  0.69390  0.60620  Biso   1.000  C
  C66      1.0000 0.76130  0.69390  0.89380  Biso   1.000  C
  C67      1.0000 0.73870  0.19390  0.60620  Biso   1.000  C
  C68      1.0000 0.26130  0.19390  0.89380  Biso   1.000  C
  C69      1.0000 0.76130  0.30610  0.39380  Biso   1.000  C
  C70      1.0000 0.23870  0.30610  0.10620  Biso   1.000  C
  C71      1.0000 0.26130  0.80610  0.39380  Biso   1.000  C
  C72      1.0000 0.73870  0.80610  0.10620  Biso   1.000  C
  H33      1.0000 0.25950  0.64340  0.63200  Biso   1.000  H
  H34      1.0000 0.74050  0.64340  0.86800  Biso   1.000  H
  H35      1.0000 0.75950  0.14340  0.63200  Biso   1.000  H
  H36      1.0000 0.24050  0.14340  0.86800  Biso   1.000  H
  H37      1.0000 0.74050  0.35660  0.36800  Biso   1.000  H
  H38      1.0000 0.25950  0.35660  0.13200  Biso   1.000  H
  H39      1.0000 0.24050  0.85660  0.36800  Biso   1.000  H
  H40      1.0000 0.75950  0.85660  0.13200  Biso   1.000  H
  C73      1.0000 0.26330  0.76960  0.58630  Biso   1.000  C
  C74      1.0000 0.73670  0.76960  0.91370  Biso   1.000  C
  C75      1.0000 0.76330  0.26960  0.58630  Biso   1.000  C
  C76      1.0000 0.23670  0.26960  0.91370  Biso   1.000  C
  C77      1.0000 0.73670  0.23040  0.41370  Biso   1.000  C
  C78      1.0000 0.26330  0.23040  0.08630  Biso   1.000  C
  C79      1.0000 0.23670  0.73040  0.41370  Biso   1.000  C
  C80      1.0000 0.76330  0.73040  0.08630  Biso   1.000  C
  H41      1.0000 0.30150  0.77060  0.59840  Biso   1.000  H
  H42      1.0000 0.69850  0.77060  0.90160  Biso   1.000  H
  H43      1.0000 0.80150  0.27060  0.59840  Biso   1.000  H
  H44      1.0000 0.19850  0.27060  0.90160  Biso   1.000  H
  H45      1.0000 0.69850  0.22940  0.40160  Biso   1.000  H
  H46      1.0000 0.30150  0.22940  0.09840  Biso   1.000  H
  H47      1.0000 0.19850  0.72940  0.40160  Biso   1.000  H
  H48      1.0000 0.80150  0.72940  0.09840  Biso   1.000  H
  C81      1.0000 0.15680  0.61350  0.61840  Biso   1.000  C
  C82      1.0000 0.84320  0.61350  0.88160  Biso   1.000  C
  C83      1.0000 0.65680  0.11350  0.61840  Biso   1.000  C
  C84      1.0000 0.34320  0.11350  0.88160  Biso   1.000  C
  C85      1.0000 0.84320  0.38650  0.38160  Biso   1.000  C
  C86      1.0000 0.15680  0.38650  0.11840  Biso   1.000  C
  C87      1.0000 0.34320  0.88650  0.38160  Biso   1.000  C
  C88      1.0000 0.65680  0.88650  0.11840  Biso   1.000  C
  C89      1.0000 0.40100  0.03990  0.56570  Biso   1.000  C
  C90      1.0000 0.59900  0.03990  0.93430  Biso   1.000  C
  C91      1.0000 0.90100  0.53990  0.56570  Biso   1.000  C
  C92      1.0000 0.09900  0.53990  0.93430  Biso   1.000  C
  C93      1.0000 0.59900  0.96010  0.43430  Biso   1.000  C
  C94      1.0000 0.40100  0.96010  0.06570  Biso   1.000  C
  C95      1.0000 0.09900  0.46010  0.43430  Biso   1.000  C
  C96      1.0000 0.90100  0.46010  0.06570  Biso   1.000  C
  C97      1.0000 0.43950  0.99040  0.55060  Biso   1.000  C
  C98      1.0000 0.56050  0.99040  0.94940  Biso   1.000  C
  C99      1.0000 0.93950  0.49040  0.55060  Biso   1.000  C
  C100     1.0000 0.06050  0.49040  0.94940  Biso   1.000  C
  C101     1.0000 0.56050  0.00960  0.44940  Biso   1.000  C
  C102     1.0000 0.43950  0.00960  0.05060  Biso   1.000  C
  C103     1.0000 0.06050  0.50960  0.44940  Biso   1.000  C
  C104     1.0000 0.93950  0.50960  0.05060  Biso   1.000  C
  H49      1.0000 0.42990  0.94470  0.51680  Biso   1.000  H
  H50      1.0000 0.57010  0.94470  0.98320  Biso   1.000  H
  H51      1.0000 0.92990  0.44470  0.51680  Biso   1.000  H
  H52      1.0000 0.07010  0.44470  0.98320  Biso   1.000  H
  H53      1.0000 0.57010  0.05530  0.48320  Biso   1.000  H
  H54      1.0000 0.42990  0.05530  0.01680  Biso   1.000  H
  H55      1.0000 0.07010  0.55530  0.48320  Biso   1.000  H
  H56      1.0000 0.92990  0.55530  0.01680  Biso   1.000  H
  C105     1.0000 0.49270  0.00520  0.58330  Biso   1.000  C
  C106     1.0000 0.50730  0.00520  0.91670  Biso   1.000  C
  C107     1.0000 0.99270  0.50520  0.58330  Biso   1.000  C
  C108     1.0000 0.00730  0.50520  0.91670  Biso   1.000  C
  C109     1.0000 0.50730  0.99480  0.41670  Biso   1.000  C
  C110     1.0000 0.49270  0.99480  0.08330  Biso   1.000  C
  C111     1.0000 0.00730  0.49480  0.41670  Biso   1.000  C
  C112     1.0000 0.99270  0.49480  0.08330  Biso   1.000  C
  H57      1.0000 0.51880  0.96920  0.57090  Biso   1.000  H
  H58      1.0000 0.48120  0.96920  0.92910  Biso   1.000  H
  H59      1.0000 0.01880  0.46920  0.57090  Biso   1.000  H
  H60      1.0000 0.98120  0.46920  0.92910  Biso   1.000  H
  H61      1.0000 0.48120  0.03080  0.42910  Biso   1.000  H
  H62      1.0000 0.51880  0.03080  0.07090  Biso   1.000  H
  H63      1.0000 0.98120  0.53080  0.42910  Biso   1.000  H
  H64      1.0000 0.01880  0.53080  0.07090  Biso   1.000  H
  C113     1.0000 0.47320  0.11610  0.64110  Biso   1.000  C
  C114     1.0000 0.52680  0.11610  0.85890  Biso   1.000  C
  C115     1.0000 0.97320  0.61610  0.64110  Biso   1.000  C
  C116     1.0000 0.02680  0.61610  0.85890  Biso   1.000  C
  C117     1.0000 0.52680  0.88390  0.35890  Biso   1.000  C
  C118     1.0000 0.47320  0.88390  0.14110  Biso   1.000  C
  C119     1.0000 0.02680  0.38390  0.35890  Biso   1.000  C
  C120     1.0000 0.97320  0.38390  0.14110  Biso   1.000  C
  H65      1.0000 0.48440  0.16330  0.67400  Biso   1.000  H
  H66      1.0000 0.51560  0.16330  0.82600  Biso   1.000  H
  H67      1.0000 0.98440  0.66330  0.67400  Biso   1.000  H
  H68      1.0000 0.01560  0.66330  0.82600  Biso   1.000  H
  H69      1.0000 0.51560  0.83670  0.32600  Biso   1.000  H
  H70      1.0000 0.48440  0.83670  0.17400  Biso   1.000  H
  H71      1.0000 0.01560  0.33670  0.32600  Biso   1.000  H
  H72      1.0000 0.98440  0.33670  0.17400  Biso   1.000  H
  C121     1.0000 0.41860  0.10970  0.60990  Biso   1.000  C
  C122     1.0000 0.58140  0.10970  0.89010  Biso   1.000  C
  C123     1.0000 0.91860  0.60970  0.60990  Biso   1.000  C
  C124     1.0000 0.08140  0.60970  0.89010  Biso   1.000  C
  C125     1.0000 0.58140  0.89030  0.39010  Biso   1.000  C
  C126     1.0000 0.41860  0.89030  0.10990  Biso   1.000  C
  C127     1.0000 0.08140  0.39030  0.39010  Biso   1.000  C
  C128     1.0000 0.91860  0.39030  0.10990  Biso   1.000  C
  H73      1.0000 0.39410  0.15390  0.61950  Biso   1.000  H
  H74      1.0000 0.60590  0.15390  0.88050  Biso   1.000  H
  H75      1.0000 0.89410  0.65390  0.61950  Biso   1.000  H
  H76      1.0000 0.10590  0.65390  0.88050  Biso   1.000  H
  H77      1.0000 0.60590  0.84610  0.38050  Biso   1.000  H
  H78      1.0000 0.39410  0.84610  0.11950  Biso   1.000  H
  H79      1.0000 0.10590  0.34610  0.38050  Biso   1.000  H
  H80      1.0000 0.89410  0.34610  0.11950  Biso   1.000  H
  C129     1.0000 0.10460  0.60890  0.26570  Biso   1.000  C
  C130     1.0000 0.89540  0.60890  0.23430  Biso   1.000  C
  C131     1.0000 0.60460  0.10890  0.26570  Biso   1.000  C
  C132     1.0000 0.39540  0.10890  0.23430  Biso   1.000  C
  C133     1.0000 0.89540  0.39110  0.73430  Biso   1.000  C
  C134     1.0000 0.10460  0.39110  0.76570  Biso   1.000  C
  C135     1.0000 0.39540  0.89110  0.73430  Biso   1.000  C
  C136     1.0000 0.60460  0.89110  0.76570  Biso   1.000  C
  C137     1.0000 0.08280  0.68500  0.30020  Biso   1.000  C
  C138     1.0000 0.91720  0.68500  0.19980  Biso   1.000  C
  C139     1.0000 0.58280  0.18500  0.30020  Biso   1.000  C
  C140     1.0000 0.41720  0.18500  0.19980  Biso   1.000  C
  C141     1.0000 0.91720  0.31500  0.69980  Biso   1.000  C
  C142     1.0000 0.08280  0.31500  0.80020  Biso   1.000  C
  C143     1.0000 0.41720  0.81500  0.69980  Biso   1.000  C
  C144     1.0000 0.58280  0.81500  0.80020  Biso   1.000  C
  C145     1.0000 0.10470  0.77970  0.31180  Biso   1.000  C
  C146     1.0000 0.89530  0.77970  0.18820  Biso   1.000  C
  C147     1.0000 0.60470  0.27970  0.31180  Biso   1.000  C
  C148     1.0000 0.39530  0.27970  0.18820  Biso   1.000  C
  C149     1.0000 0.89530  0.22030  0.68820  Biso   1.000  C
  C150     1.0000 0.10470  0.22030  0.81180  Biso   1.000  C
  C151     1.0000 0.39530  0.72030  0.68820  Biso   1.000  C
  C152     1.0000 0.60470  0.72030  0.81180  Biso   1.000  C
  H81      1.0000 0.13780  0.79350  0.30450  Biso   1.000  H
  H82      1.0000 0.86220  0.79350  0.19550  Biso   1.000  H
  H83      1.0000 0.63780  0.29350  0.30450  Biso   1.000  H
  H84      1.0000 0.36220  0.29350  0.19550  Biso   1.000  H
  H85      1.0000 0.86220  0.20650  0.69550  Biso   1.000  H
  H86      1.0000 0.13780  0.20650  0.80450  Biso   1.000  H
  H87      1.0000 0.36220  0.70650  0.69550  Biso   1.000  H
  H88      1.0000 0.63780  0.70650  0.80450  Biso   1.000  H
  C153     1.0000 0.07900  0.85370  0.33380  Biso   1.000  C
  C154     1.0000 0.92100  0.85370  0.16620  Biso   1.000  C
  C155     1.0000 0.57900  0.35370  0.33380  Biso   1.000  C
  C156     1.0000 0.42100  0.35370  0.16620  Biso   1.000  C
  C157     1.0000 0.92100  0.14630  0.66620  Biso   1.000  C
  C158     1.0000 0.07900  0.14630  0.83380  Biso   1.000  C
  C159     1.0000 0.42100  0.64630  0.66620  Biso   1.000  C
  C160     1.0000 0.57900  0.64630  0.83380  Biso   1.000  C
  H89      1.0000 0.09430  0.91830  0.34090  Biso   1.000  H
  H90      1.0000 0.90570  0.91830  0.15910  Biso   1.000  H
  H91      1.0000 0.59430  0.41830  0.34090  Biso   1.000  H
  H92      1.0000 0.40570  0.41830  0.15910  Biso   1.000  H
  H93      1.0000 0.90570  0.08170  0.65910  Biso   1.000  H
  H94      1.0000 0.09430  0.08170  0.84090  Biso   1.000  H
  H95      1.0000 0.40570  0.58170  0.65910  Biso   1.000  H
  H96      1.0000 0.59430  0.58170  0.84090  Biso   1.000  H
  C161     1.0000 0.03090  0.83440  0.34560  Biso   1.000  C
  C162     1.0000 0.96910  0.83440  0.15440  Biso   1.000  C
  C163     1.0000 0.53090  0.33440  0.34560  Biso   1.000  C
  C164     1.0000 0.46910  0.33440  0.15440  Biso   1.000  C
  C165     1.0000 0.96910  0.16560  0.65440  Biso   1.000  C
  C166     1.0000 0.03090  0.16560  0.84560  Biso   1.000  C
  C167     1.0000 0.46910  0.66560  0.65440  Biso   1.000  C
  C168     1.0000 0.53090  0.66560  0.84560  Biso   1.000  C
  C169     1.0000 0.01070  0.73970  0.33700  Biso   1.000  C
  C170     1.0000 0.98930  0.73970  0.16300  Biso   1.000  C
  C171     1.0000 0.51070  0.23970  0.33700  Biso   1.000  C
  C172     1.0000 0.48930  0.23970  0.16300  Biso   1.000  C
  C173     1.0000 0.98930  0.26030  0.66300  Biso   1.000  C
  C174     1.0000 0.01070  0.26030  0.83700  Biso   1.000  C
  C175     1.0000 0.48930  0.76030  0.66300  Biso   1.000  C
  C176     1.0000 0.51070  0.76030  0.83700  Biso   1.000  C
  H97      1.0000 0.97850  0.72510  0.34640  Biso   1.000  H
  H98      1.0000 0.02150  0.72510  0.15360  Biso   1.000  H
  H99      1.0000 0.47850  0.22510  0.34640  Biso   1.000  H
  H100     1.0000 0.52150  0.22510  0.15360  Biso   1.000  H
  H101     1.0000 0.02150  0.27490  0.65360  Biso   1.000  H
  H102     1.0000 0.97850  0.27490  0.84640  Biso   1.000  H
  H103     1.0000 0.52150  0.77490  0.65360  Biso   1.000  H
  H104     1.0000 0.47850  0.77490  0.84640  Biso   1.000  H
  C177     1.0000 0.03650  0.66480  0.31480  Biso   1.000  C
  C178     1.0000 0.96350  0.66480  0.18520  Biso   1.000  C
  C179     1.0000 0.53650  0.16480  0.31480  Biso   1.000  C
  C180     1.0000 0.46350  0.16480  0.18520  Biso   1.000  C
  C181     1.0000 0.96350  0.33520  0.68520  Biso   1.000  C
  C182     1.0000 0.03650  0.33520  0.81480  Biso   1.000  C
  C183     1.0000 0.46350  0.83520  0.68520  Biso   1.000  C
  C184     1.0000 0.53650  0.83520  0.81480  Biso   1.000  C
  H105     1.0000 0.02210  0.59950  0.30970  Biso   1.000  H
  H106     1.0000 0.97790  0.59950  0.19030  Biso   1.000  H
  H107     1.0000 0.52210  0.09950  0.30970  Biso   1.000  H
  H108     1.0000 0.47790  0.09950  0.19030  Biso   1.000  H
  H109     1.0000 0.97790  0.40050  0.69030  Biso   1.000  H
  H110     1.0000 0.02210  0.40050  0.80970  Biso   1.000  H
  H111     1.0000 0.47790  0.90050  0.69030  Biso   1.000  H
  H112     1.0000 0.52210  0.90050  0.80970  Biso   1.000  H
  C185     1.0000 0.00010  0.91660  0.36260  Biso   1.000  C
  C186     1.0000 0.99990  0.91660  0.13740  Biso   1.000  C
  C187     1.0000 0.50010  0.41660  0.36260  Biso   1.000  C
  C188     1.0000 0.49990  0.41660  0.13740  Biso   1.000  C
  C189     1.0000 0.99990  0.08340  0.63740  Biso   1.000  C
  C190     1.0000 0.00010  0.08340  0.86260  Biso   1.000  C
  C191     1.0000 0.49990  0.58340  0.63740  Biso   1.000  C
  C192     1.0000 0.50010  0.58340  0.86260  Biso   1.000  C
  C193     1.0000 0.94520  0.92500  0.33530  Biso   1.000  C
  C194     1.0000 0.05480  0.92500  0.16470  Biso   1.000  C
  C195     1.0000 0.44520  0.42500  0.33530  Biso   1.000  C
  C196     1.0000 0.55480  0.42500  0.16470  Biso   1.000  C
  C197     1.0000 0.05480  0.07500  0.66470  Biso   1.000  C
  C198     1.0000 0.94520  0.07500  0.83530  Biso   1.000  C
  C199     1.0000 0.55480  0.57500  0.66470  Biso   1.000  C
  C200     1.0000 0.44520  0.57500  0.83530  Biso   1.000  C
  H113     1.0000 0.92620  0.87600  0.30650  Biso   1.000  H
  H114     1.0000 0.07380  0.87600  0.19350  Biso   1.000  H
  H115     1.0000 0.42620  0.37600  0.30650  Biso   1.000  H
  H116     1.0000 0.57380  0.37600  0.19350  Biso   1.000  H
  H117     1.0000 0.07380  0.12400  0.69350  Biso   1.000  H
  H118     1.0000 0.92620  0.12400  0.80650  Biso   1.000  H
  H119     1.0000 0.57380  0.62400  0.69350  Biso   1.000  H
  H120     1.0000 0.42620  0.62400  0.80650  Biso   1.000  H
  C201     1.0000 0.91780  0.00470  0.34960  Biso   1.000  C
  C202     1.0000 0.08220  0.00470  0.15040  Biso   1.000  C
  C203     1.0000 0.41780  0.50470  0.34960  Biso   1.000  C
  C204     1.0000 0.58220  0.50470  0.15040  Biso   1.000  C
  C205     1.0000 0.08220  0.99530  0.65040  Biso   1.000  C
  C206     1.0000 0.91780  0.99530  0.84960  Biso   1.000  C
  C207     1.0000 0.58220  0.49530  0.65040  Biso   1.000  C
  C208     1.0000 0.41780  0.49530  0.84960  Biso   1.000  C
  C209     1.0000 0.94760  0.07290  0.39220  Biso   1.000  C
  C210     1.0000 0.05240  0.07290  0.10780  Biso   1.000  C
  C211     1.0000 0.44760  0.57290  0.39220  Biso   1.000  C
  C212     1.0000 0.55240  0.57290  0.10780  Biso   1.000  C
  C213     1.0000 0.05240  0.92710  0.60780  Biso   1.000  C
  C214     1.0000 0.94760  0.92710  0.89220  Biso   1.000  C
  C215     1.0000 0.55240  0.42710  0.60780  Biso   1.000  C
  C216     1.0000 0.44760  0.42710  0.89220  Biso   1.000  C
  H121     1.0000 0.93050  0.12900  0.40320  Biso   1.000  H
  H122     1.0000 0.06950  0.12900  0.09680  Biso   1.000  H
  H123     1.0000 0.43050  0.62900  0.40320  Biso   1.000  H
  H124     1.0000 0.56950  0.62900  0.09680  Biso   1.000  H
  H125     1.0000 0.06950  0.87100  0.59680  Biso   1.000  H
  H126     1.0000 0.93050  0.87100  0.90320  Biso   1.000  H
  H127     1.0000 0.56950  0.37100  0.59680  Biso   1.000  H
  H128     1.0000 0.43050  0.37100  0.90320  Biso   1.000  H
  C217     1.0000 0.00230  0.05990  0.41900  Biso   1.000  C
  C218     1.0000 0.99770  0.05990  0.08100  Biso   1.000  C
  C219     1.0000 0.50230  0.55990  0.41900  Biso   1.000  C
  C220     1.0000 0.49770  0.55990  0.08100  Biso   1.000  C
  C221     1.0000 0.99770  0.94010  0.58100  Biso   1.000  C
  C222     1.0000 0.00230  0.94010  0.91900  Biso   1.000  C
  C223     1.0000 0.49770  0.44010  0.58100  Biso   1.000  C
  C224     1.0000 0.50230  0.44010  0.91900  Biso   1.000  C
  C225     1.0000 0.03500  0.12820  0.46790  Biso   1.000  C
  C226     1.0000 0.96500  0.12820  0.03210  Biso   1.000  C
  C227     1.0000 0.53500  0.62820  0.46790  Biso   1.000  C
  C228     1.0000 0.46500  0.62820  0.03210  Biso   1.000  C
  C229     1.0000 0.96500  0.87180  0.53210  Biso   1.000  C
  C230     1.0000 0.03500  0.87180  0.96790  Biso   1.000  C
  C231     1.0000 0.46500  0.37180  0.53210  Biso   1.000  C
  C232     1.0000 0.53500  0.37180  0.96790  Biso   1.000  C
  C233     1.0000 0.01410  0.21560  0.48310  Biso   1.000  C
  C234     1.0000 0.98590  0.21560  0.01690  Biso   1.000  C
  C235     1.0000 0.51410  0.71560  0.48310  Biso   1.000  C
  C236     1.0000 0.48590  0.71560  0.01690  Biso   1.000  C
  C237     1.0000 0.98590  0.78440  0.51690  Biso   1.000  C
  C238     1.0000 0.01410  0.78440  0.98310  Biso   1.000  C
  C239     1.0000 0.48590  0.28440  0.51690  Biso   1.000  C
  C240     1.0000 0.51410  0.28440  0.98310  Biso   1.000  C
  H129     1.0000 0.97830  0.23430  0.46080  Biso   1.000  H
  H130     1.0000 0.02170  0.23430  0.03920  Biso   1.000  H
  H131     1.0000 0.47830  0.73430  0.46080  Biso   1.000  H
  H132     1.0000 0.52170  0.73430  0.03920  Biso   1.000  H
  H133     1.0000 0.02170  0.76570  0.53920  Biso   1.000  H
  H134     1.0000 0.97830  0.76570  0.96080  Biso   1.000  H
  H135     1.0000 0.52170  0.26570  0.53920  Biso   1.000  H
  H136     1.0000 0.47830  0.26570  0.96080  Biso   1.000  H
  C241     1.0000 0.04510  0.27580  0.53090  Biso   1.000  C
  C242     1.0000 0.95490  0.27580  0.96910  Biso   1.000  C
  C243     1.0000 0.54510  0.77580  0.53090  Biso   1.000  C
  C244     1.0000 0.45490  0.77580  0.96910  Biso   1.000  C
  C245     1.0000 0.95490  0.72420  0.46910  Biso   1.000  C
  C246     1.0000 0.04510  0.72420  0.03090  Biso   1.000  C
  C247     1.0000 0.45490  0.22420  0.46910  Biso   1.000  C
  C248     1.0000 0.54510  0.22420  0.03090  Biso   1.000  C
  H137     1.0000 0.03040  0.33590  0.54040  Biso   1.000  H
  H138     1.0000 0.96960  0.33590  0.95960  Biso   1.000  H
  H139     1.0000 0.53040  0.83590  0.54040  Biso   1.000  H
  H140     1.0000 0.46960  0.83590  0.95960  Biso   1.000  H
  H141     1.0000 0.96960  0.66410  0.45960  Biso   1.000  H
  H142     1.0000 0.03040  0.66410  0.04040  Biso   1.000  H
  H143     1.0000 0.46960  0.16410  0.45960  Biso   1.000  H
  H144     1.0000 0.53040  0.16410  0.04040  Biso   1.000  H
  C249     1.0000 0.09730  0.24960  0.56500  Biso   1.000  C
  C250     1.0000 0.90270  0.24960  0.93500  Biso   1.000  C
  C251     1.0000 0.59730  0.74960  0.56500  Biso   1.000  C
  C252     1.0000 0.40270  0.74960  0.93500  Biso   1.000  C
  C253     1.0000 0.90270  0.75040  0.43500  Biso   1.000  C
  C254     1.0000 0.09730  0.75040  0.06500  Biso   1.000  C
  C255     1.0000 0.40270  0.25040  0.43500  Biso   1.000  C
  C256     1.0000 0.59730  0.25040  0.06500  Biso   1.000  C
  C257     1.0000 0.11840  0.16500  0.54860  Biso   1.000  C
  C258     1.0000 0.88160  0.16500  0.95140  Biso   1.000  C
  C259     1.0000 0.61840  0.66500  0.54860  Biso   1.000  C
  C260     1.0000 0.38160  0.66500  0.95140  Biso   1.000  C
  C261     1.0000 0.88160  0.83500  0.45140  Biso   1.000  C
  C262     1.0000 0.11840  0.83500  0.04860  Biso   1.000  C
  C263     1.0000 0.38160  0.33500  0.45140  Biso   1.000  C
  C264     1.0000 0.61840  0.33500  0.04860  Biso   1.000  C
  H145     1.0000 0.15440  0.14710  0.57050  Biso   1.000  H
  H146     1.0000 0.84560  0.14710  0.92950  Biso   1.000  H
  H147     1.0000 0.65440  0.64710  0.57050  Biso   1.000  H
  H148     1.0000 0.34560  0.64710  0.92950  Biso   1.000  H
  H149     1.0000 0.84560  0.85290  0.42950  Biso   1.000  H
  H150     1.0000 0.15440  0.85290  0.07050  Biso   1.000  H
  H151     1.0000 0.34560  0.35290  0.42950  Biso   1.000  H
  H152     1.0000 0.65440  0.35290  0.07050  Biso   1.000  H
  C265     1.0000 0.08800  0.10490  0.50070  Biso   1.000  C
  C266     1.0000 0.91200  0.10490  0.99930  Biso   1.000  C
  C267     1.0000 0.58800  0.60490  0.50070  Biso   1.000  C
  C268     1.0000 0.41200  0.60490  0.99930  Biso   1.000  C
  C269     1.0000 0.91200  0.89510  0.49930  Biso   1.000  C
  C270     1.0000 0.08800  0.89510  0.00070  Biso   1.000  C
  C271     1.0000 0.41200  0.39510  0.49930  Biso   1.000  C
  C272     1.0000 0.58800  0.39510  0.00070  Biso   1.000  C
  H153     1.0000 0.10370  0.04670  0.49010  Biso   1.000  H
  H154     1.0000 0.89630  0.04670  0.00990  Biso   1.000  H
  H155     1.0000 0.60370  0.54670  0.49010  Biso   1.000  H
  H156     1.0000 0.39630  0.54670  0.00990  Biso   1.000  H
  H157     1.0000 0.89630  0.95330  0.50990  Biso   1.000  H
  H158     1.0000 0.10370  0.95330  0.99010  Biso   1.000  H
  H159     1.0000 0.39630  0.45330  0.50990  Biso   1.000  H
  H160     1.0000 0.60370  0.45330  0.99010  Biso   1.000  H
  C273     1.0000 0.13010  0.31340  0.61810  Biso   1.000  C
  C274     1.0000 0.86990  0.31340  0.88190  Biso   1.000  C
  C275     1.0000 0.63010  0.81340  0.61810  Biso   1.000  C
  C276     1.0000 0.36990  0.81340  0.88190  Biso   1.000  C
  C277     1.0000 0.86990  0.68660  0.38190  Biso   1.000  C
  C278     1.0000 0.13010  0.68660  0.11810  Biso   1.000  C
  C279     1.0000 0.36990  0.18660  0.38190  Biso   1.000  C
  C280     1.0000 0.63010  0.18660  0.11810  Biso   1.000  C
  C281     1.0000 0.85910  0.01840  0.31880  Biso   1.000  C
  C282     1.0000 0.14090  0.01840  0.18120  Biso   1.000  C
  C283     1.0000 0.35910  0.51840  0.31880  Biso   1.000  C
  C284     1.0000 0.64090  0.51840  0.18120  Biso   1.000  C
  C285     1.0000 0.14090  0.98160  0.68120  Biso   1.000  C
  C286     1.0000 0.85910  0.98160  0.81880  Biso   1.000  C
  C287     1.0000 0.64090  0.48160  0.68120  Biso   1.000  C
  C288     1.0000 0.35910  0.48160  0.81880  Biso   1.000  C
  C289     1.0000 0.83520  0.11090  0.30740  Biso   1.000  C
  C290     1.0000 0.16480  0.11090  0.19260  Biso   1.000  C
  C291     1.0000 0.33520  0.61090  0.30740  Biso   1.000  C
  C292     1.0000 0.66480  0.61090  0.19260  Biso   1.000  C
  C293     1.0000 0.16480  0.88910  0.69260  Biso   1.000  C
  C294     1.0000 0.83520  0.88910  0.80740  Biso   1.000  C
  C295     1.0000 0.66480  0.38910  0.69260  Biso   1.000  C
  C296     1.0000 0.33520  0.38910  0.80740  Biso   1.000  C
  H161     1.0000 0.85630  0.16870  0.32140  Biso   1.000  H
  H162     1.0000 0.14370  0.16870  0.17860  Biso   1.000  H
  H163     1.0000 0.35630  0.66870  0.32140  Biso   1.000  H
  H164     1.0000 0.64370  0.66870  0.17860  Biso   1.000  H
  H165     1.0000 0.14370  0.83130  0.67860  Biso   1.000  H
  H166     1.0000 0.85630  0.83130  0.82140  Biso   1.000  H
  H167     1.0000 0.64370  0.33130  0.67860  Biso   1.000  H
  H168     1.0000 0.35630  0.33130  0.82140  Biso   1.000  H
  C297     1.0000 0.78180  0.11970  0.27630  Biso   1.000  C
  C298     1.0000 0.21820  0.11970  0.22370  Biso   1.000  C
  C299     1.0000 0.28180  0.61970  0.27630  Biso   1.000  C
  C300     1.0000 0.71820  0.61970  0.22370  Biso   1.000  C
  C301     1.0000 0.21820  0.88030  0.72370  Biso   1.000  C
  C302     1.0000 0.78180  0.88030  0.77630  Biso   1.000  C
  C303     1.0000 0.71820  0.38030  0.72370  Biso   1.000  C
  C304     1.0000 0.28180  0.38030  0.77630  Biso   1.000  C
  H169     1.0000 0.76660  0.18430  0.26980  Biso   1.000  H
  H170     1.0000 0.23340  0.18430  0.23020  Biso   1.000  H
  H171     1.0000 0.26660  0.68430  0.26980  Biso   1.000  H
  H172     1.0000 0.73340  0.68430  0.23020  Biso   1.000  H
  H173     1.0000 0.23340  0.81570  0.73020  Biso   1.000  H
  H174     1.0000 0.76660  0.81570  0.76980  Biso   1.000  H
  H175     1.0000 0.73340  0.31570  0.73020  Biso   1.000  H
  H176     1.0000 0.26660  0.31570  0.76980  Biso   1.000  H
  C305     1.0000 0.77210  0.95150  0.26670  Biso   1.000  C
  C306     1.0000 0.22790  0.95150  0.23330  Biso   1.000  C
  C307     1.0000 0.27210  0.45150  0.26670  Biso   1.000  C
  C308     1.0000 0.72790  0.45150  0.23330  Biso   1.000  C
  C309     1.0000 0.22790  0.04850  0.73330  Biso   1.000  C
  C310     1.0000 0.77210  0.04850  0.76670  Biso   1.000  C
  C311     1.0000 0.72790  0.54850  0.73330  Biso   1.000  C
  C312     1.0000 0.27210  0.54850  0.76670  Biso   1.000  C
  H177     1.0000 0.74970  0.89490  0.25370  Biso   1.000  H
  H178     1.0000 0.25030  0.89490  0.24630  Biso   1.000  H
  H179     1.0000 0.24970  0.39490  0.25370  Biso   1.000  H
  H180     1.0000 0.75030  0.39490  0.24630  Biso   1.000  H
  H181     1.0000 0.25030  0.10510  0.74630  Biso   1.000  H
  H182     1.0000 0.74970  0.10510  0.75370  Biso   1.000  H
  H183     1.0000 0.75030  0.60510  0.74630  Biso   1.000  H
  H184     1.0000 0.24970  0.60510  0.75370  Biso   1.000  H
  C313     1.0000 0.82560  0.93670  0.29690  Biso   1.000  C
  C314     1.0000 0.17440  0.93670  0.20310  Biso   1.000  C
  C315     1.0000 0.32560  0.43670  0.29690  Biso   1.000  C
  C316     1.0000 0.67440  0.43670  0.20310  Biso   1.000  C
  C317     1.0000 0.17440  0.06330  0.70310  Biso   1.000  C
  C318     1.0000 0.82560  0.06330  0.79690  Biso   1.000  C
  C319     1.0000 0.67440  0.56330  0.70310  Biso   1.000  C
  C320     1.0000 0.32560  0.56330  0.79690  Biso   1.000  C
  H185     1.0000 0.83990  0.87140  0.30300  Biso   1.000  H
  H186     1.0000 0.16010  0.87140  0.19700  Biso   1.000  H
  H187     1.0000 0.33990  0.37140  0.30300  Biso   1.000  H
  H188     1.0000 0.66010  0.37140  0.19700  Biso   1.000  H
  H189     1.0000 0.16010  0.12860  0.69700  Biso   1.000  H
  H190     1.0000 0.83990  0.12860  0.80300  Biso   1.000  H
  H191     1.0000 0.66010  0.62860  0.69700  Biso   1.000  H
  H192     1.0000 0.33990  0.62860  0.80300  Biso   1.000  H
  N1       1.0000 0.50910  0.06510  0.62990  Biso   1.000  N
  N2       1.0000 0.49090  0.06510  0.87010  Biso   1.000  N
  N3       1.0000 0.00910  0.56510  0.62990  Biso   1.000  N
  N4       1.0000 0.99090  0.56510  0.87010  Biso   1.000  N
  N5       1.0000 0.49090  0.93490  0.37010  Biso   1.000  N
  N6       1.0000 0.50910  0.93490  0.12990  Biso   1.000  N
  N7       1.0000 0.99090  0.43490  0.37010  Biso   1.000  N
  N8       1.0000 0.00910  0.43490  0.12990  Biso   1.000  N
  N9       1.0000 0.23190  0.99240  0.48750  Biso   1.000  N
  N10      1.0000 0.76810  0.99240  0.01250  Biso   1.000  N
  N11      1.0000 0.73190  0.49240  0.48750  Biso   1.000  N
  N12      1.0000 0.26810  0.49240  0.01250  Biso   1.000  N
  N13      1.0000 0.76810  0.00760  0.51250  Biso   1.000  N
  N14      1.0000 0.23190  0.00760  0.98750  Biso   1.000  N
  N15      1.0000 0.26810  0.50760  0.51250  Biso   1.000  N
  N16      1.0000 0.73190  0.50760  0.98750  Biso   1.000  N
  N17      1.0000 0.74950  0.04190  0.25440  Biso   1.000  N
  N18      1.0000 0.25050  0.04190  0.24560  Biso   1.000  N
  N19      1.0000 0.24950  0.54190  0.25440  Biso   1.000  N
  N20      1.0000 0.75050  0.54190  0.24560  Biso   1.000  N
  N21      1.0000 0.25050  0.95810  0.74560  Biso   1.000  N
  N22      1.0000 0.74950  0.95810  0.75440  Biso   1.000  N
  N23      1.0000 0.75050  0.45810  0.74560  Biso   1.000  N
  N24      1.0000 0.24950  0.45810  0.75440  Biso   1.000  N
  N25      1.0000 0.02870  0.98380  0.40390  Biso   1.000  N
  N26      1.0000 0.97130  0.98380  0.09610  Biso   1.000  N
  N27      1.0000 0.52870  0.48380  0.40390  Biso   1.000  N
  N28      1.0000 0.47130  0.48380  0.09610  Biso   1.000  N
  N29      1.0000 0.97130  0.01620  0.59610  Biso   1.000  N
  N30      1.0000 0.02870  0.01620  0.90390  Biso   1.000  N
  N31      1.0000 0.47130  0.51620  0.59610  Biso   1.000  N
  N32      1.0000 0.52870  0.51620  0.90390  Biso   1.000  N
  O1       1.0000 0.10933  0.62710  0.61720  Biso   1.000  O
  O2       1.0000 0.89067  0.62710  0.88280  Biso   1.000  O
  O3       1.0000 0.60933  0.12710  0.61720  Biso   1.000  O
  O4       1.0000 0.39067  0.12710  0.88280  Biso   1.000  O
  O5       1.0000 0.89067  0.37290  0.38280  Biso   1.000  O
  O6       1.0000 0.10933  0.37290  0.11720  Biso   1.000  O
  O7       1.0000 0.39067  0.87290  0.38280  Biso   1.000  O
  O8       1.0000 0.60933  0.87290  0.11720  Biso   1.000  O
  O9       1.0000 0.18690  0.54210  0.64420  Biso   1.000  O
  O10      1.0000 0.81310  0.54210  0.85580  Biso   1.000  O
  O11      1.0000 0.68690  0.04210  0.64420  Biso   1.000  O
  O12      1.0000 0.31310  0.04210  0.85580  Biso   1.000  O
  O13      1.0000 0.81310  0.45790  0.35580  Biso   1.000  O
  O14      1.0000 0.18690  0.45790  0.14420  Biso   1.000  O
  O15      1.0000 0.31310  0.95790  0.35580  Biso   1.000  O
  O16      1.0000 0.68690  0.95790  0.14420  Biso   1.000  O
  O17      1.0000 0.10919  0.39160  0.62970  Biso   1.000  O
  O18      1.0000 0.89081  0.39160  0.87030  Biso   1.000  O
  O19      1.0000 0.60919  0.89160  0.62970  Biso   1.000  O
  O20      1.0000 0.39081  0.89160  0.87030  Biso   1.000  O
  O21      1.0000 0.89081  0.60840  0.37030  Biso   1.000  O
  O22      1.0000 0.10919  0.60840  0.12970  Biso   1.000  O
  O23      1.0000 0.39081  0.10840  0.37030  Biso   1.000  O
  O24      1.0000 0.60919  0.10840  0.12970  Biso   1.000  O
  O25      1.0000 0.17645  0.28830  0.64790  Biso   1.000  O
  O26      1.0000 0.82355  0.28830  0.85210  Biso   1.000  O
  O27      1.0000 0.67645  0.78830  0.64790  Biso   1.000  O
  O28      1.0000 0.32355  0.78830  0.85210  Biso   1.000  O
  O29      1.0000 0.82355  0.71170  0.35210  Biso   1.000  O
  O30      1.0000 0.17645  0.71170  0.14790  Biso   1.000  O
  O31      1.0000 0.32355  0.21170  0.35210  Biso   1.000  O
  O32      1.0000 0.67645  0.21170  0.14790  Biso   1.000  O
  C321     1.0000 0.12520  0.30790  0.26650  Biso   1.000  C
  C322     1.0000 0.87480  0.30790  0.23350  Biso   1.000  C
  C323     1.0000 0.62520  0.80790  0.26650  Biso   1.000  C
  C324     1.0000 0.37480  0.80790  0.23350  Biso   1.000  C
  C325     1.0000 0.87480  0.69210  0.73350  Biso   1.000  C
  C326     1.0000 0.12520  0.69210  0.76650  Biso   1.000  C
  C327     1.0000 0.37480  0.19210  0.73350  Biso   1.000  C
  C328     1.0000 0.62520  0.19210  0.76650  Biso   1.000  C
  C329     1.0000 0.15780  0.24740  0.32150  Biso   1.000  C
  C330     1.0000 0.84220  0.24740  0.17850  Biso   1.000  C
  C331     1.0000 0.65780  0.74740  0.32150  Biso   1.000  C
  C332     1.0000 0.34220  0.74740  0.17850  Biso   1.000  C
  C333     1.0000 0.84220  0.75260  0.67850  Biso   1.000  C
  C334     1.0000 0.15780  0.75260  0.82150  Biso   1.000  C
  C335     1.0000 0.34220  0.25260  0.67850  Biso   1.000  C
  C336     1.0000 0.65780  0.25260  0.82150  Biso   1.000  C
  C337     1.0000 0.14100  0.15530  0.33260  Biso   1.000  C
  C338     1.0000 0.85900  0.15530  0.16740  Biso   1.000  C
  C339     1.0000 0.64100  0.65530  0.33260  Biso   1.000  C
  C340     1.0000 0.35900  0.65530  0.16740  Biso   1.000  C
  C341     1.0000 0.85900  0.84470  0.66740  Biso   1.000  C
  C342     1.0000 0.14100  0.84470  0.83260  Biso   1.000  C
  C343     1.0000 0.35900  0.34470  0.66740  Biso   1.000  C
  C344     1.0000 0.64100  0.34470  0.83260  Biso   1.000  C
  H193     1.0000 0.10760  0.13050  0.30650  Biso   1.000  H
  H194     1.0000 0.89240  0.13050  0.19350  Biso   1.000  H
  H195     1.0000 0.60760  0.63050  0.30650  Biso   1.000  H
  H196     1.0000 0.39240  0.63050  0.19350  Biso   1.000  H
  H197     1.0000 0.89240  0.86950  0.69350  Biso   1.000  H
  H198     1.0000 0.10760  0.86950  0.80650  Biso   1.000  H
  H199     1.0000 0.39240  0.36950  0.69350  Biso   1.000  H
  H200     1.0000 0.60760  0.36950  0.80650  Biso   1.000  H
  C345     1.0000 0.17210  0.09760  0.38140  Biso   1.000  C
  C346     1.0000 0.82790  0.09760  0.11860  Biso   1.000  C
  C347     1.0000 0.67210  0.59760  0.38140  Biso   1.000  C
  C348     1.0000 0.32790  0.59760  0.11860  Biso   1.000  C
  C349     1.0000 0.82790  0.90240  0.61860  Biso   1.000  C
  C350     1.0000 0.17210  0.90240  0.88140  Biso   1.000  C
  C351     1.0000 0.32790  0.40240  0.61860  Biso   1.000  C
  C352     1.0000 0.67210  0.40240  0.88140  Biso   1.000  C
  H201     1.0000 0.16040  0.03320  0.38840  Biso   1.000  H
  H202     1.0000 0.83960  0.03320  0.11160  Biso   1.000  H
  H203     1.0000 0.66040  0.53320  0.38840  Biso   1.000  H
  H204     1.0000 0.33960  0.53320  0.11160  Biso   1.000  H
  H205     1.0000 0.83960  0.96680  0.61160  Biso   1.000  H
  H206     1.0000 0.16040  0.96680  0.88840  Biso   1.000  H
  H207     1.0000 0.33960  0.46680  0.61160  Biso   1.000  H
  H208     1.0000 0.66040  0.46680  0.88840  Biso   1.000  H
  C353     1.0000 0.22050  0.13420  0.42030  Biso   1.000  C
  C354     1.0000 0.77950  0.13420  0.07970  Biso   1.000  C
  C355     1.0000 0.72050  0.63420  0.42030  Biso   1.000  C
  C356     1.0000 0.27950  0.63420  0.07970  Biso   1.000  C
  C357     1.0000 0.77950  0.86580  0.57970  Biso   1.000  C
  C358     1.0000 0.22050  0.86580  0.92030  Biso   1.000  C
  C359     1.0000 0.27950  0.36580  0.57970  Biso   1.000  C
  C360     1.0000 0.72050  0.36580  0.92030  Biso   1.000  C
  C361     1.0000 0.23490  0.23100  0.41160  Biso   1.000  C
  C362     1.0000 0.76510  0.23100  0.08840  Biso   1.000  C
  C363     1.0000 0.73490  0.73100  0.41160  Biso   1.000  C
  C364     1.0000 0.26510  0.73100  0.08840  Biso   1.000  C
  C365     1.0000 0.76510  0.76900  0.58840  Biso   1.000  C
  C366     1.0000 0.23490  0.76900  0.91160  Biso   1.000  C
  C367     1.0000 0.26510  0.26900  0.58840  Biso   1.000  C
  C368     1.0000 0.73490  0.26900  0.91160  Biso   1.000  C
  H209     1.0000 0.26610  0.25880  0.44060  Biso   1.000  H
  H210     1.0000 0.73390  0.25880  0.05940  Biso   1.000  H
  H211     1.0000 0.76610  0.75880  0.44060  Biso   1.000  H
  H212     1.0000 0.23390  0.75880  0.05940  Biso   1.000  H
  H213     1.0000 0.73390  0.74120  0.55940  Biso   1.000  H
  H214     1.0000 0.26610  0.74120  0.94060  Biso   1.000  H
  H215     1.0000 0.23390  0.24120  0.55940  Biso   1.000  H
  H216     1.0000 0.76610  0.24120  0.94060  Biso   1.000  H
  C369     1.0000 0.20520  0.28740  0.36210  Biso   1.000  C
  C370     1.0000 0.79480  0.28740  0.13790  Biso   1.000  C
  C371     1.0000 0.70520  0.78740  0.36210  Biso   1.000  C
  C372     1.0000 0.29480  0.78740  0.13790  Biso   1.000  C
  C373     1.0000 0.79480  0.71260  0.63790  Biso   1.000  C
  C374     1.0000 0.20520  0.71260  0.86210  Biso   1.000  C
  C375     1.0000 0.29480  0.21260  0.63790  Biso   1.000  C
  C376     1.0000 0.70520  0.21260  0.86210  Biso   1.000  C
  H217     1.0000 0.21650  0.35230  0.35560  Biso   1.000  H
  H218     1.0000 0.78350  0.35230  0.14440  Biso   1.000  H
  H219     1.0000 0.71650  0.85230  0.35560  Biso   1.000  H
  H220     1.0000 0.28350  0.85230  0.14440  Biso   1.000  H
  H221     1.0000 0.78350  0.64770  0.64440  Biso   1.000  H
  H222     1.0000 0.21650  0.64770  0.85560  Biso   1.000  H
  H223     1.0000 0.28350  0.14770  0.64440  Biso   1.000  H
  H224     1.0000 0.71650  0.14770  0.85560  Biso   1.000  H
  C377     1.0000 0.25560  0.07010  0.46890  Biso   1.000  C
  C378     1.0000 0.74440  0.07010  0.03110  Biso   1.000  C
  C379     1.0000 0.75560  0.57010  0.46890  Biso   1.000  C
  C380     1.0000 0.24440  0.57010  0.03110  Biso   1.000  C
  C381     1.0000 0.74440  0.92990  0.53110  Biso   1.000  C
  C382     1.0000 0.25560  0.92990  0.96890  Biso   1.000  C
  C383     1.0000 0.24440  0.42990  0.53110  Biso   1.000  C
  C384     1.0000 0.75560  0.42990  0.96890  Biso   1.000  C
  O33      1.0000 0.14793  0.38090  0.25040  Biso   1.000  O
  O34      1.0000 0.85207  0.38090  0.24960  Biso   1.000  O
  O35      1.0000 0.64793  0.88090  0.25040  Biso   1.000  O
  O36      1.0000 0.35207  0.88090  0.24960  Biso   1.000  O
  O37      1.0000 0.85207  0.61910  0.74960  Biso   1.000  O
  O38      1.0000 0.14793  0.61910  0.75040  Biso   1.000  O
  O39      1.0000 0.35207  0.11910  0.74960  Biso   1.000  O
  O40      1.0000 0.64793  0.11910  0.75040  Biso   1.000  O
  O41      1.0000 0.07775  0.28510  0.23900  Biso   1.000  O
  O42      1.0000 0.92225  0.28510  0.26100  Biso   1.000  O
  O43      1.0000 0.57775  0.78510  0.23900  Biso   1.000  O
  O44      1.0000 0.42225  0.78510  0.26100  Biso   1.000  O
  O45      1.0000 0.92225  0.71490  0.76100  Biso   1.000  O
  O46      1.0000 0.07775  0.71490  0.73900  Biso   1.000  O
  O47      1.0000 0.42225  0.21490  0.76100  Biso   1.000  O
  O48      1.0000 0.57775  0.21490  0.73900  Biso   1.000  O
  O49      1.0000 0.07419  0.53760  0.24070  Biso   1.000  O
  O50      1.0000 0.92581  0.53760  0.25930  Biso   1.000  O
  O51      1.0000 0.57419  0.03760  0.24070  Biso   1.000  O
  O52      1.0000 0.42581  0.03760  0.25930  Biso   1.000  O
  O53      1.0000 0.92581  0.46240  0.75930  Biso   1.000  O
  O54      1.0000 0.07419  0.46240  0.74070  Biso   1.000  O
  O55      1.0000 0.42581  0.96240  0.75930  Biso   1.000  O
  O56      1.0000 0.57419  0.96240  0.74070  Biso   1.000  O
  O57      1.0000 0.15057  0.62520  0.26150  Biso   1.000  O
  O58      1.0000 0.84943  0.62520  0.23850  Biso   1.000  O
  O59      1.0000 0.65057  0.12520  0.26150  Biso   1.000  O
  O60      1.0000 0.34943  0.12520  0.23850  Biso   1.000  O
  O61      1.0000 0.84943  0.37480  0.73850  Biso   1.000  O
  O62      1.0000 0.15057  0.37480  0.76150  Biso   1.000  O
  O63      1.0000 0.34943  0.87480  0.73850  Biso   1.000  O
  O64      1.0000 0.65057  0.87480  0.76150  Biso   1.000  O
  Cu1      1.0000 0.17457  0.56076  0.19815  Biso   1.000  Cu
  Cu2      1.0000 0.82543  0.56076  0.30185  Biso   1.000  Cu
  Cu3      1.0000 0.67457  0.06076  0.19815  Biso   1.000  Cu
  Cu4      1.0000 0.32543  0.06076  0.30185  Biso   1.000  Cu
  Cu5      1.0000 0.82543  0.43924  0.80185  Biso   1.000  Cu
  Cu6      1.0000 0.17457  0.43924  0.69815  Biso   1.000  Cu
  Cu7      1.0000 0.32543  0.93924  0.80185  Biso   1.000  Cu
  Cu8      1.0000 0.67457  0.93924  0.69815  Biso   1.000  Cu
  Cu9      1.0000 0.08435  0.43035  0.18398  Biso   1.000  Cu
  Cu10     1.0000 0.91565  0.43035  0.31602  Biso   1.000  Cu
  Cu11     1.0000 0.58435  0.93035  0.18398  Biso   1.000  Cu
  Cu12     1.0000 0.41565  0.93035  0.31602  Biso   1.000  Cu
  Cu13     1.0000 0.91565  0.56965  0.81602  Biso   1.000  Cu
  Cu14     1.0000 0.08435  0.56965  0.68398  Biso   1.000  Cu
  Cu15     1.0000 0.41565  0.06965  0.81602  Biso   1.000  Cu
  Cu16     1.0000 0.58435  0.06965  0.68398  Biso   1.000  Cu
  O65      1.0000 0.00000  0.13730  0.25000  Biso   1.000  O
  O66      1.0000 0.50000  0.63730  0.25000  Biso   1.000  O
  O67      1.0000 0.00000  0.86270  0.75000  Biso   1.000  O
  O68      1.0000 0.50000  0.36270  0.75000  Biso   1.000  O
