data_image0
_cell_length_a       36.295
_cell_length_b       25.304
_cell_length_c       20.4575
_cell_angle_alpha    90
_cell_angle_beta     116.08
_cell_angle_gamma    90

_symmetry_space_group_name_H-M    "P 1"
_symmetry_int_tables_number       1

loop_
  _symmetry_equiv_pos_as_xyz
  'x, y, z'

loop_
  _atom_site_label
  _atom_site_occupancy
  _atom_site_fract_x
  _atom_site_fract_y
  _atom_site_fract_z
  _atom_site_thermal_displace_type
  _atom_site_B_iso_or_equiv
  _atom_site_type_symbol
  Cu1      1.0000 0.01993  0.96713  0.67456  Biso   1.000  Cu
  Cu2      1.0000 0.98007  0.96713  0.82544  Biso   1.000  Cu
  Cu3      1.0000 0.51993  0.46713  0.67456  Biso   1.000  Cu
  Cu4      1.0000 0.48007  0.46713  0.82544  Biso   1.000  Cu
  Cu5      1.0000 0.98007  0.03287  0.32544  Biso   1.000  Cu
  Cu6      1.0000 0.01993  0.03287  0.17456  Biso   1.000  Cu
  Cu7      1.0000 0.48007  0.53287  0.32544  Biso   1.000  Cu
  Cu8      1.0000 0.51993  0.53287  0.17456  Biso   1.000  Cu
  Cu9      1.0000 0.89889  0.41663  0.44131  Biso   1.000  Cu
  Cu10     1.0000 0.10111  0.41663  0.05869  Biso   1.000  Cu
  Cu11     1.0000 0.39889  0.91663  0.44131  Biso   1.000  Cu
  Cu12     1.0000 0.60111  0.91663  0.05869  Biso   1.000  Cu
  Cu13     1.0000 0.10111  0.58337  0.55869  Biso   1.000  Cu
  Cu14     1.0000 0.89889  0.58337  0.94131  Biso   1.000  Cu
  Cu15     1.0000 0.60111  0.08337  0.55869  Biso   1.000  Cu
  Cu16     1.0000 0.39889  0.08337  0.94131  Biso   1.000  Cu
  Cu17     1.0000 0.18834  0.35342  0.02018  Biso   1.000  Cu
  Cu18     1.0000 0.81166  0.35342  0.47982  Biso   1.000  Cu
  Cu19     1.0000 0.68834  0.85342  0.02018  Biso   1.000  Cu
  Cu20     1.0000 0.31166  0.85342  0.47982  Biso   1.000  Cu
  Cu21     1.0000 0.81166  0.64658  0.97982  Biso   1.000  Cu
  Cu22     1.0000 0.18834  0.64658  0.52018  Biso   1.000  Cu
  Cu23     1.0000 0.31166  0.14658  0.97982  Biso   1.000  Cu
  Cu24     1.0000 0.68834  0.14658  0.52018  Biso   1.000  Cu
  O1       1.0000 0.86423  0.47530  0.43780  Biso   1.000  O
  O2       1.0000 0.13577  0.47530  0.06220  Biso   1.000  O
  O3       1.0000 0.36423  0.97530  0.43780  Biso   1.000  O
  O4       1.0000 0.63577  0.97530  0.06220  Biso   1.000  O
  O5       1.0000 0.13577  0.52470  0.56220  Biso   1.000  O
  O6       1.0000 0.86423  0.52470  0.93780  Biso   1.000  O
  O7       1.0000 0.63577  0.02470  0.56220  Biso   1.000  O
  O8       1.0000 0.36423  0.02470  0.93780  Biso   1.000  O
  O9       1.0000 0.87432  0.42440  0.33700  Biso   1.000  O
  O10      1.0000 0.12568  0.42440  0.16300  Biso   1.000  O
  O11      1.0000 0.37432  0.92440  0.33700  Biso   1.000  O
  O12      1.0000 0.62568  0.92440  0.16300  Biso   1.000  O
  O13      1.0000 0.12568  0.57560  0.66300  Biso   1.000  O
  O14      1.0000 0.87432  0.57560  0.83700  Biso   1.000  O
  O15      1.0000 0.62568  0.07560  0.66300  Biso   1.000  O
  O16      1.0000 0.37432  0.07560  0.83700  Biso   1.000  O
  O17      1.0000 0.93094  0.35680  0.44140  Biso   1.000  O
  O18      1.0000 0.06906  0.35680  0.05860  Biso   1.000  O
  O19      1.0000 0.43094  0.85680  0.44140  Biso   1.000  O
  O20      1.0000 0.56906  0.85680  0.05860  Biso   1.000  O
  O21      1.0000 0.06906  0.64320  0.55860  Biso   1.000  O
  O22      1.0000 0.93094  0.64320  0.94140  Biso   1.000  O
  O23      1.0000 0.56906  0.14320  0.55860  Biso   1.000  O
  O24      1.0000 0.43094  0.14320  0.94140  Biso   1.000  O
  O25      1.0000 0.17097  0.35960  0.91720  Biso   1.000  O
  O26      1.0000 0.82903  0.35960  0.58280  Biso   1.000  O
  O27      1.0000 0.67097  0.85960  0.91720  Biso   1.000  O
  O28      1.0000 0.32903  0.85960  0.58280  Biso   1.000  O
  O29      1.0000 0.82903  0.64040  0.08280  Biso   1.000  O
  O30      1.0000 0.17097  0.64040  0.41720  Biso   1.000  O
  O31      1.0000 0.32903  0.14040  0.08280  Biso   1.000  O
  O32      1.0000 0.67097  0.14040  0.41720  Biso   1.000  O
  O33      1.0000 0.22810  0.40910  0.04360  Biso   1.000  O
  O34      1.0000 0.77190  0.40910  0.45640  Biso   1.000  O
  O35      1.0000 0.72810  0.90910  0.04360  Biso   1.000  O
  O36      1.0000 0.27190  0.90910  0.45640  Biso   1.000  O
  O37      1.0000 0.77190  0.59090  0.95640  Biso   1.000  O
  O38      1.0000 0.22810  0.59090  0.54360  Biso   1.000  O
  O39      1.0000 0.27190  0.09090  0.95640  Biso   1.000  O
  O40      1.0000 0.72810  0.09090  0.54360  Biso   1.000  O
  O41      1.0000 0.14590  0.30150  0.99980  Biso   1.000  O
  O42      1.0000 0.85410  0.30150  0.50020  Biso   1.000  O
  O43      1.0000 0.64590  0.80150  0.99980  Biso   1.000  O
  O44      1.0000 0.35410  0.80150  0.50020  Biso   1.000  O
  O45      1.0000 0.85410  0.69850  0.00020  Biso   1.000  O
  O46      1.0000 0.14590  0.69850  0.49980  Biso   1.000  O
  O47      1.0000 0.35410  0.19850  0.00020  Biso   1.000  O
  O48      1.0000 0.64590  0.19850  0.49980  Biso   1.000  O
  O49      1.0000 0.20405  0.35440  0.12290  Biso   1.000  O
  O50      1.0000 0.79595  0.35440  0.37710  Biso   1.000  O
  O51      1.0000 0.70405  0.85440  0.12290  Biso   1.000  O
  O52      1.0000 0.29595  0.85440  0.37710  Biso   1.000  O
  O53      1.0000 0.79595  0.64560  0.87710  Biso   1.000  O
  O54      1.0000 0.20405  0.64560  0.62290  Biso   1.000  O
  O55      1.0000 0.29595  0.14560  0.87710  Biso   1.000  O
  O56      1.0000 0.70405  0.14560  0.62290  Biso   1.000  O
  O57      1.0000 0.98239  0.02462  0.66160  Biso   1.000  O
  O58      1.0000 0.01761  0.02462  0.83840  Biso   1.000  O
  O59      1.0000 0.48239  0.52462  0.66160  Biso   1.000  O
  O60      1.0000 0.51761  0.52462  0.83840  Biso   1.000  O
  O61      1.0000 0.01761  0.97538  0.33840  Biso   1.000  O
  O62      1.0000 0.98239  0.97538  0.16160  Biso   1.000  O
  O63      1.0000 0.51761  0.47538  0.33840  Biso   1.000  O
  O64      1.0000 0.48239  0.47538  0.16160  Biso   1.000  O
  O65      1.0000 0.97844  0.91340  0.65050  Biso   1.000  O
  O66      1.0000 0.02156  0.91340  0.84950  Biso   1.000  O
  O67      1.0000 0.47844  0.41340  0.65050  Biso   1.000  O
  O68      1.0000 0.52156  0.41340  0.84950  Biso   1.000  O
  O69      1.0000 0.02156  0.08660  0.34950  Biso   1.000  O
  O70      1.0000 0.97844  0.08660  0.15050  Biso   1.000  O
  O71      1.0000 0.52156  0.58660  0.34950  Biso   1.000  O
  O72      1.0000 0.47844  0.58660  0.15050  Biso   1.000  O
  O73      1.0000 0.06144  0.02030  0.69420  Biso   1.000  O
  O74      1.0000 0.93856  0.02030  0.80580  Biso   1.000  O
  O75      1.0000 0.56144  0.52030  0.69420  Biso   1.000  O
  O76      1.0000 0.43856  0.52030  0.80580  Biso   1.000  O
  O77      1.0000 0.93856  0.97970  0.30580  Biso   1.000  O
  O78      1.0000 0.06144  0.97970  0.19420  Biso   1.000  O
  O79      1.0000 0.43856  0.47970  0.30580  Biso   1.000  O
  O80      1.0000 0.56144  0.47970  0.19420  Biso   1.000  O
  O81      1.0000 0.05877  0.90990  0.70550  Biso   1.000  O
  O82      1.0000 0.94123  0.90990  0.79450  Biso   1.000  O
  O83      1.0000 0.55877  0.40990  0.70550  Biso   1.000  O
  O84      1.0000 0.44123  0.40990  0.79450  Biso   1.000  O
  O85      1.0000 0.94123  0.09010  0.29450  Biso   1.000  O
  O86      1.0000 0.05877  0.09010  0.20550  Biso   1.000  O
  O87      1.0000 0.44123  0.59010  0.29450  Biso   1.000  O
  O88      1.0000 0.55877  0.59010  0.20550  Biso   1.000  O
  O89      1.0000 0.91900  0.40720  0.54500  Biso   1.000  O
  O90      1.0000 0.08100  0.40720  0.95500  Biso   1.000  O
  O91      1.0000 0.41900  0.90720  0.54500  Biso   1.000  O
  O92      1.0000 0.58100  0.90720  0.95500  Biso   1.000  O
  O93      1.0000 0.08100  0.59280  0.45500  Biso   1.000  O
  O94      1.0000 0.91900  0.59280  0.04500  Biso   1.000  O
  O95      1.0000 0.58100  0.09280  0.45500  Biso   1.000  O
  O96      1.0000 0.41900  0.09280  0.04500  Biso   1.000  O
  C1       1.0000 0.99220  0.27730  0.84000  Biso   1.000  C
  C2       1.0000 0.00780  0.27730  0.66000  Biso   1.000  C
  C3       1.0000 0.49220  0.77730  0.84000  Biso   1.000  C
  C4       1.0000 0.50780  0.77730  0.66000  Biso   1.000  C
  C5       1.0000 0.00780  0.72270  0.16000  Biso   1.000  C
  C6       1.0000 0.99220  0.72270  0.34000  Biso   1.000  C
  C7       1.0000 0.50780  0.22270  0.16000  Biso   1.000  C
  C8       1.0000 0.49220  0.22270  0.34000  Biso   1.000  C
  H1       1.0000 0.00820  0.30350  0.87170  Biso   1.000  H
  H2       1.0000 0.99180  0.30350  0.62830  Biso   1.000  H
  H3       1.0000 0.50820  0.80350  0.87170  Biso   1.000  H
  H4       1.0000 0.49180  0.80350  0.62830  Biso   1.000  H
  H5       1.0000 0.99180  0.69650  0.12830  Biso   1.000  H
  H6       1.0000 0.00820  0.69650  0.37170  Biso   1.000  H
  H7       1.0000 0.49180  0.19650  0.12830  Biso   1.000  H
  H8       1.0000 0.50820  0.19650  0.37170  Biso   1.000  H
  C9       1.0000 0.95930  0.29200  0.77400  Biso   1.000  C
  C10      1.0000 0.04070  0.29200  0.72600  Biso   1.000  C
  C11      1.0000 0.45930  0.79200  0.77400  Biso   1.000  C
  C12      1.0000 0.54070  0.79200  0.72600  Biso   1.000  C
  C13      1.0000 0.04070  0.70800  0.22600  Biso   1.000  C
  C14      1.0000 0.95930  0.70800  0.27400  Biso   1.000  C
  C15      1.0000 0.54070  0.20800  0.22600  Biso   1.000  C
  C16      1.0000 0.45930  0.20800  0.27400  Biso   1.000  C
  C17      1.0000 0.93600  0.25200  0.72680  Biso   1.000  C
  C18      1.0000 0.06400  0.25200  0.77320  Biso   1.000  C
  C19      1.0000 0.43600  0.75200  0.72680  Biso   1.000  C
  C20      1.0000 0.56400  0.75200  0.77320  Biso   1.000  C
  C21      1.0000 0.06400  0.74800  0.27320  Biso   1.000  C
  C22      1.0000 0.93600  0.74800  0.22680  Biso   1.000  C
  C23      1.0000 0.56400  0.24800  0.27320  Biso   1.000  C
  C24      1.0000 0.43600  0.24800  0.22680  Biso   1.000  C
  H9       1.0000 0.91410  0.26110  0.68290  Biso   1.000  H
  H10      1.0000 0.08590  0.26110  0.81710  Biso   1.000  H
  H11      1.0000 0.41410  0.76110  0.68290  Biso   1.000  H
  H12      1.0000 0.58590  0.76110  0.81710  Biso   1.000  H
  H13      1.0000 0.08590  0.73890  0.31710  Biso   1.000  H
  H14      1.0000 0.91410  0.73890  0.18290  Biso   1.000  H
  H15      1.0000 0.58590  0.23890  0.31710  Biso   1.000  H
  H16      1.0000 0.41410  0.23890  0.18290  Biso   1.000  H
  C25      1.0000 0.94500  0.19870  0.74430  Biso   1.000  C
  C26      1.0000 0.05500  0.19870  0.75570  Biso   1.000  C
  C27      1.0000 0.44500  0.69870  0.74430  Biso   1.000  C
  C28      1.0000 0.55500  0.69870  0.75570  Biso   1.000  C
  C29      1.0000 0.05500  0.80130  0.25570  Biso   1.000  C
  C30      1.0000 0.94500  0.80130  0.24430  Biso   1.000  C
  C31      1.0000 0.55500  0.30130  0.25570  Biso   1.000  C
  C32      1.0000 0.44500  0.30130  0.24430  Biso   1.000  C
  C33      1.0000 0.97790  0.18590  0.81120  Biso   1.000  C
  C34      1.0000 0.02210  0.18590  0.68880  Biso   1.000  C
  C35      1.0000 0.47790  0.68590  0.81120  Biso   1.000  C
  C36      1.0000 0.52210  0.68590  0.68880  Biso   1.000  C
  C37      1.0000 0.02210  0.81410  0.18880  Biso   1.000  C
  C38      1.0000 0.97790  0.81410  0.31120  Biso   1.000  C
  C39      1.0000 0.52210  0.31410  0.18880  Biso   1.000  C
  C40      1.0000 0.47790  0.31410  0.31120  Biso   1.000  C
  H17      1.0000 0.98410  0.15060  0.82360  Biso   1.000  H
  H18      1.0000 0.01590  0.15060  0.67640  Biso   1.000  H
  H19      1.0000 0.48410  0.65060  0.82360  Biso   1.000  H
  H20      1.0000 0.51590  0.65060  0.67640  Biso   1.000  H
  H21      1.0000 0.01590  0.84940  0.17640  Biso   1.000  H
  H22      1.0000 0.98410  0.84940  0.32360  Biso   1.000  H
  H23      1.0000 0.51590  0.34940  0.17640  Biso   1.000  H
  H24      1.0000 0.48410  0.34940  0.32360  Biso   1.000  H
  C41      1.0000 0.00150  0.22450  0.85910  Biso   1.000  C
  C42      1.0000 0.99850  0.22450  0.64090  Biso   1.000  C
  C43      1.0000 0.50150  0.72450  0.85910  Biso   1.000  C
  C44      1.0000 0.49850  0.72450  0.64090  Biso   1.000  C
  C45      1.0000 0.99850  0.77550  0.14090  Biso   1.000  C
  C46      1.0000 0.00150  0.77550  0.35910  Biso   1.000  C
  C47      1.0000 0.49850  0.27550  0.14090  Biso   1.000  C
  C48      1.0000 0.50150  0.27550  0.35910  Biso   1.000  C
  C49      1.0000 0.95080  0.34900  0.75440  Biso   1.000  C
  C50      1.0000 0.04920  0.34900  0.74560  Biso   1.000  C
  C51      1.0000 0.45080  0.84900  0.75440  Biso   1.000  C
  C52      1.0000 0.54920  0.84900  0.74560  Biso   1.000  C
  C53      1.0000 0.04920  0.65100  0.24560  Biso   1.000  C
  C54      1.0000 0.95080  0.65100  0.25440  Biso   1.000  C
  C55      1.0000 0.54920  0.15100  0.24560  Biso   1.000  C
  C56      1.0000 0.45080  0.15100  0.25440  Biso   1.000  C
  C57      1.0000 0.96000  0.38690  0.80950  Biso   1.000  C
  C58      1.0000 0.04000  0.38690  0.69050  Biso   1.000  C
  C59      1.0000 0.46000  0.88690  0.80950  Biso   1.000  C
  C60      1.0000 0.54000  0.88690  0.69050  Biso   1.000  C
  C61      1.0000 0.04000  0.61310  0.19050  Biso   1.000  C
  C62      1.0000 0.96000  0.61310  0.30950  Biso   1.000  C
  C63      1.0000 0.54000  0.11310  0.19050  Biso   1.000  C
  C64      1.0000 0.46000  0.11310  0.30950  Biso   1.000  C
  H25      1.0000 0.97120  0.37660  0.85800  Biso   1.000  H
  H26      1.0000 0.02880  0.37660  0.64200  Biso   1.000  H
  H27      1.0000 0.47120  0.87660  0.85800  Biso   1.000  H
  H28      1.0000 0.52880  0.87660  0.64200  Biso   1.000  H
  H29      1.0000 0.02880  0.62340  0.14200  Biso   1.000  H
  H30      1.0000 0.97120  0.62340  0.35800  Biso   1.000  H
  H31      1.0000 0.52880  0.12340  0.14200  Biso   1.000  H
  H32      1.0000 0.47120  0.12340  0.35800  Biso   1.000  H
  C65      1.0000 0.95230  0.44030  0.79100  Biso   1.000  C
  C66      1.0000 0.04770  0.44030  0.70900  Biso   1.000  C
  C67      1.0000 0.45230  0.94030  0.79100  Biso   1.000  C
  C68      1.0000 0.54770  0.94030  0.70900  Biso   1.000  C
  C69      1.0000 0.04770  0.55970  0.20900  Biso   1.000  C
  C70      1.0000 0.95230  0.55970  0.29100  Biso   1.000  C
  C71      1.0000 0.54770  0.05970  0.20900  Biso   1.000  C
  C72      1.0000 0.45230  0.05970  0.29100  Biso   1.000  C
  H33      1.0000 0.95830  0.46540  0.82740  Biso   1.000  H
  H34      1.0000 0.04170  0.46540  0.67260  Biso   1.000  H
  H35      1.0000 0.45830  0.96540  0.82740  Biso   1.000  H
  H36      1.0000 0.54170  0.96540  0.67260  Biso   1.000  H
  H37      1.0000 0.04170  0.53460  0.17260  Biso   1.000  H
  H38      1.0000 0.95830  0.53460  0.32740  Biso   1.000  H
  H39      1.0000 0.54170  0.03460  0.17260  Biso   1.000  H
  H40      1.0000 0.45830  0.03460  0.32740  Biso   1.000  H
  C73      1.0000 0.93600  0.45580  0.71940  Biso   1.000  C
  C74      1.0000 0.06400  0.45580  0.78060  Biso   1.000  C
  C75      1.0000 0.43600  0.95580  0.71940  Biso   1.000  C
  C76      1.0000 0.56400  0.95580  0.78060  Biso   1.000  C
  C77      1.0000 0.06400  0.54420  0.28060  Biso   1.000  C
  C78      1.0000 0.93600  0.54420  0.21940  Biso   1.000  C
  C79      1.0000 0.56400  0.04420  0.28060  Biso   1.000  C
  C80      1.0000 0.43600  0.04420  0.21940  Biso   1.000  C
  H41      1.0000 0.93060  0.49140  0.70740  Biso   1.000  H
  H42      1.0000 0.06940  0.49140  0.79260  Biso   1.000  H
  H43      1.0000 0.43060  0.99140  0.70740  Biso   1.000  H
  H44      1.0000 0.56940  0.99140  0.79260  Biso   1.000  H
  H45      1.0000 0.06940  0.50860  0.29260  Biso   1.000  H
  H46      1.0000 0.93060  0.50860  0.20740  Biso   1.000  H
  H47      1.0000 0.56940  0.00860  0.29260  Biso   1.000  H
  H48      1.0000 0.43060  0.00860  0.20740  Biso   1.000  H
  C81      1.0000 0.92760  0.41840  0.66500  Biso   1.000  C
  C82      1.0000 0.07240  0.41840  0.83500  Biso   1.000  C
  C83      1.0000 0.42760  0.91840  0.66500  Biso   1.000  C
  C84      1.0000 0.57240  0.91840  0.83500  Biso   1.000  C
  C85      1.0000 0.07240  0.58160  0.33500  Biso   1.000  C
  C86      1.0000 0.92760  0.58160  0.16500  Biso   1.000  C
  C87      1.0000 0.57240  0.08160  0.33500  Biso   1.000  C
  C88      1.0000 0.42760  0.08160  0.16500  Biso   1.000  C
  C89      1.0000 0.93500  0.36580  0.68280  Biso   1.000  C
  C90      1.0000 0.06500  0.36580  0.81720  Biso   1.000  C
  C91      1.0000 0.43500  0.86580  0.68280  Biso   1.000  C
  C92      1.0000 0.56500  0.86580  0.81720  Biso   1.000  C
  C93      1.0000 0.06500  0.63420  0.31720  Biso   1.000  C
  C94      1.0000 0.93500  0.63420  0.18280  Biso   1.000  C
  C95      1.0000 0.56500  0.13420  0.31720  Biso   1.000  C
  C96      1.0000 0.43500  0.13420  0.18280  Biso   1.000  C
  H49      1.0000 0.92930  0.34110  0.64600  Biso   1.000  H
  H50      1.0000 0.07070  0.34110  0.85400  Biso   1.000  H
  H51      1.0000 0.42930  0.84110  0.64600  Biso   1.000  H
  H52      1.0000 0.57070  0.84110  0.85400  Biso   1.000  H
  H53      1.0000 0.07070  0.65890  0.35400  Biso   1.000  H
  H54      1.0000 0.92930  0.65890  0.14600  Biso   1.000  H
  H55      1.0000 0.57070  0.15890  0.35400  Biso   1.000  H
  H56      1.0000 0.42930  0.15890  0.14600  Biso   1.000  H
  C97      1.0000 0.90820  0.43390  0.58610  Biso   1.000  C
  C98      1.0000 0.09180  0.43390  0.91390  Biso   1.000  C
  C99      1.0000 0.40820  0.93390  0.58610  Biso   1.000  C
  C100     1.0000 0.59180  0.93390  0.91390  Biso   1.000  C
  C101     1.0000 0.09180  0.56610  0.41390  Biso   1.000  C
  C102     1.0000 0.90820  0.56610  0.08610  Biso   1.000  C
  C103     1.0000 0.59180  0.06610  0.41390  Biso   1.000  C
  C104     1.0000 0.40820  0.06610  0.08610  Biso   1.000  C
  C105     1.0000 0.88050  0.47730  0.56420  Biso   1.000  C
  C106     1.0000 0.11950  0.47730  0.93580  Biso   1.000  C
  C107     1.0000 0.38050  0.97730  0.56420  Biso   1.000  C
  C108     1.0000 0.61950  0.97730  0.93580  Biso   1.000  C
  C109     1.0000 0.11950  0.52270  0.43580  Biso   1.000  C
  C110     1.0000 0.88050  0.52270  0.06420  Biso   1.000  C
  C111     1.0000 0.61950  0.02270  0.43580  Biso   1.000  C
  C112     1.0000 0.38050  0.02270  0.06420  Biso   1.000  C
  H57      1.0000 0.87600  0.49510  0.59980  Biso   1.000  H
  H58      1.0000 0.12400  0.49510  0.90020  Biso   1.000  H
  H59      1.0000 0.37600  0.99510  0.59980  Biso   1.000  H
  H60      1.0000 0.62400  0.99510  0.90020  Biso   1.000  H
  H61      1.0000 0.12400  0.50490  0.40020  Biso   1.000  H
  H62      1.0000 0.87600  0.50490  0.09980  Biso   1.000  H
  H63      1.0000 0.62400  0.00490  0.40020  Biso   1.000  H
  H64      1.0000 0.37600  0.00490  0.09980  Biso   1.000  H
  C113     1.0000 0.85970  0.49460  0.49270  Biso   1.000  C
  C114     1.0000 0.14030  0.49460  0.00730  Biso   1.000  C
  C115     1.0000 0.35970  0.99460  0.49270  Biso   1.000  C
  C116     1.0000 0.64030  0.99460  0.00730  Biso   1.000  C
  C117     1.0000 0.14030  0.50540  0.50730  Biso   1.000  C
  C118     1.0000 0.85970  0.50540  0.99270  Biso   1.000  C
  C119     1.0000 0.64030  0.00540  0.50730  Biso   1.000  C
  C120     1.0000 0.35970  0.00540  0.99270  Biso   1.000  C
  C121     1.0000 0.82960  0.53880  0.47510  Biso   1.000  C
  C122     1.0000 0.17040  0.53880  0.02490  Biso   1.000  C
  C123     1.0000 0.32960  0.03880  0.47510  Biso   1.000  C
  C124     1.0000 0.67040  0.03880  0.02490  Biso   1.000  C
  C125     1.0000 0.17040  0.46120  0.52490  Biso   1.000  C
  C126     1.0000 0.82960  0.46120  0.97510  Biso   1.000  C
  C127     1.0000 0.67040  0.96120  0.52490  Biso   1.000  C
  C128     1.0000 0.32960  0.96120  0.97510  Biso   1.000  C
  H65      1.0000 0.83930  0.56870  0.45840  Biso   1.000  H
  H66      1.0000 0.16070  0.56870  0.04160  Biso   1.000  H
  H67      1.0000 0.33930  0.06870  0.45840  Biso   1.000  H
  H68      1.0000 0.66070  0.06870  0.04160  Biso   1.000  H
  H69      1.0000 0.16070  0.43130  0.54160  Biso   1.000  H
  H70      1.0000 0.83930  0.43130  0.95840  Biso   1.000  H
  H71      1.0000 0.66070  0.93130  0.54160  Biso   1.000  H
  H72      1.0000 0.33930  0.93130  0.95840  Biso   1.000  H
  H73      1.0000 0.82660  0.54840  0.51790  Biso   1.000  H
  H74      1.0000 0.17340  0.54840  0.98210  Biso   1.000  H
  H75      1.0000 0.32660  0.04840  0.51790  Biso   1.000  H
  H76      1.0000 0.67340  0.04840  0.98210  Biso   1.000  H
  H77      1.0000 0.17340  0.45160  0.48210  Biso   1.000  H
  H78      1.0000 0.82660  0.45160  0.01790  Biso   1.000  H
  H79      1.0000 0.67340  0.95160  0.48210  Biso   1.000  H
  H80      1.0000 0.32660  0.95160  0.01790  Biso   1.000  H
  H81      1.0000 0.80360  0.52770  0.43770  Biso   1.000  H
  H82      1.0000 0.19640  0.52770  0.06230  Biso   1.000  H
  H83      1.0000 0.30360  0.02770  0.43770  Biso   1.000  H
  H84      1.0000 0.69640  0.02770  0.06230  Biso   1.000  H
  H85      1.0000 0.19640  0.47230  0.56230  Biso   1.000  H
  H86      1.0000 0.80360  0.47230  0.93770  Biso   1.000  H
  H87      1.0000 0.69640  0.97230  0.56230  Biso   1.000  H
  H88      1.0000 0.30360  0.97230  0.93770  Biso   1.000  H
  C129     1.0000 0.86200  0.41540  0.21560  Biso   1.000  C
  C130     1.0000 0.13800  0.41540  0.28440  Biso   1.000  C
  C131     1.0000 0.36200  0.91540  0.21560  Biso   1.000  C
  C132     1.0000 0.63800  0.91540  0.28440  Biso   1.000  C
  C133     1.0000 0.13800  0.58460  0.78440  Biso   1.000  C
  C134     1.0000 0.86200  0.58460  0.71560  Biso   1.000  C
  C135     1.0000 0.63800  0.08460  0.78440  Biso   1.000  C
  C136     1.0000 0.36200  0.08460  0.71560  Biso   1.000  C
  H89      1.0000 0.83280  0.41480  0.19860  Biso   1.000  H
  H90      1.0000 0.16720  0.41480  0.30140  Biso   1.000  H
  H91      1.0000 0.33280  0.91480  0.19860  Biso   1.000  H
  H92      1.0000 0.66720  0.91480  0.30140  Biso   1.000  H
  H93      1.0000 0.16720  0.58520  0.80140  Biso   1.000  H
  H94      1.0000 0.83280  0.58520  0.69860  Biso   1.000  H
  H95      1.0000 0.66720  0.08520  0.80140  Biso   1.000  H
  H96      1.0000 0.33280  0.08520  0.69860  Biso   1.000  H
  H97      1.0000 0.86940  0.39230  0.18610  Biso   1.000  H
  H98      1.0000 0.13060  0.39230  0.31390  Biso   1.000  H
  H99      1.0000 0.36940  0.89230  0.18610  Biso   1.000  H
  H100     1.0000 0.63060  0.89230  0.31390  Biso   1.000  H
  H101     1.0000 0.13060  0.60770  0.81390  Biso   1.000  H
  H102     1.0000 0.86940  0.60770  0.68610  Biso   1.000  H
  H103     1.0000 0.63060  0.10770  0.81390  Biso   1.000  H
  H104     1.0000 0.36940  0.10770  0.68610  Biso   1.000  H
  H105     1.0000 0.87070  0.45070  0.21240  Biso   1.000  H
  H106     1.0000 0.12930  0.45070  0.28760  Biso   1.000  H
  H107     1.0000 0.37070  0.95070  0.21240  Biso   1.000  H
  H108     1.0000 0.62930  0.95070  0.28760  Biso   1.000  H
  H109     1.0000 0.12930  0.54930  0.78760  Biso   1.000  H
  H110     1.0000 0.87070  0.54930  0.71240  Biso   1.000  H
  H111     1.0000 0.62930  0.04930  0.78760  Biso   1.000  H
  H112     1.0000 0.37070  0.04930  0.71240  Biso   1.000  H
  C137     1.0000 0.88260  0.39710  0.29380  Biso   1.000  C
  C138     1.0000 0.11740  0.39710  0.20620  Biso   1.000  C
  C139     1.0000 0.38260  0.89710  0.29380  Biso   1.000  C
  C140     1.0000 0.61740  0.89710  0.20620  Biso   1.000  C
  C141     1.0000 0.11740  0.60290  0.70620  Biso   1.000  C
  C142     1.0000 0.88260  0.60290  0.79380  Biso   1.000  C
  C143     1.0000 0.61740  0.10290  0.70620  Biso   1.000  C
  C144     1.0000 0.38260  0.10290  0.79380  Biso   1.000  C
  C145     1.0000 0.90930  0.35380  0.31330  Biso   1.000  C
  C146     1.0000 0.09070  0.35380  0.18670  Biso   1.000  C
  C147     1.0000 0.40930  0.85380  0.31330  Biso   1.000  C
  C148     1.0000 0.59070  0.85380  0.18670  Biso   1.000  C
  C149     1.0000 0.09070  0.64620  0.68670  Biso   1.000  C
  C150     1.0000 0.90930  0.64620  0.81330  Biso   1.000  C
  C151     1.0000 0.59070  0.14620  0.68670  Biso   1.000  C
  C152     1.0000 0.40930  0.14620  0.81330  Biso   1.000  C
  H113     1.0000 0.91230  0.33560  0.27640  Biso   1.000  H
  H114     1.0000 0.08770  0.33560  0.22360  Biso   1.000  H
  H115     1.0000 0.41230  0.83560  0.27640  Biso   1.000  H
  H116     1.0000 0.58770  0.83560  0.22360  Biso   1.000  H
  H117     1.0000 0.08770  0.66440  0.72360  Biso   1.000  H
  H118     1.0000 0.91230  0.66440  0.77640  Biso   1.000  H
  H119     1.0000 0.58770  0.16440  0.72360  Biso   1.000  H
  H120     1.0000 0.41230  0.16440  0.77640  Biso   1.000  H
  C153     1.0000 0.93170  0.33600  0.38440  Biso   1.000  C
  C154     1.0000 0.06830  0.33600  0.11560  Biso   1.000  C
  C155     1.0000 0.43170  0.83600  0.38440  Biso   1.000  C
  C156     1.0000 0.56830  0.83600  0.11560  Biso   1.000  C
  C157     1.0000 0.06830  0.66400  0.61560  Biso   1.000  C
  C158     1.0000 0.93170  0.66400  0.88440  Biso   1.000  C
  C159     1.0000 0.56830  0.16400  0.61560  Biso   1.000  C
  C160     1.0000 0.43170  0.16400  0.88440  Biso   1.000  C
  C161     1.0000 0.96010  0.29010  0.39770  Biso   1.000  C
  C162     1.0000 0.03990  0.29010  0.10230  Biso   1.000  C
  C163     1.0000 0.46010  0.79010  0.39770  Biso   1.000  C
  C164     1.0000 0.53990  0.79010  0.10230  Biso   1.000  C
  C165     1.0000 0.03990  0.70990  0.60230  Biso   1.000  C
  C166     1.0000 0.96010  0.70990  0.89770  Biso   1.000  C
  C167     1.0000 0.53990  0.20990  0.60230  Biso   1.000  C
  C168     1.0000 0.46010  0.20990  0.89770  Biso   1.000  C
  C169     1.0000 0.99440  0.28790  0.46470  Biso   1.000  C
  C170     1.0000 0.00560  0.28790  0.03530  Biso   1.000  C
  C171     1.0000 0.49440  0.78790  0.46470  Biso   1.000  C
  C172     1.0000 0.50560  0.78790  0.03530  Biso   1.000  C
  C173     1.0000 0.00560  0.71210  0.53530  Biso   1.000  C
  C174     1.0000 0.99440  0.71210  0.96470  Biso   1.000  C
  C175     1.0000 0.50560  0.21210  0.53530  Biso   1.000  C
  C176     1.0000 0.49440  0.21210  0.96470  Biso   1.000  C
  H121     1.0000 0.99800  0.31410  0.49890  Biso   1.000  H
  H122     1.0000 0.00200  0.31410  0.00110  Biso   1.000  H
  H123     1.0000 0.49800  0.81410  0.49890  Biso   1.000  H
  H124     1.0000 0.50200  0.81410  0.00110  Biso   1.000  H
  H125     1.0000 0.00200  0.68590  0.50110  Biso   1.000  H
  H126     1.0000 0.99800  0.68590  0.99890  Biso   1.000  H
  H127     1.0000 0.50200  0.18590  0.50110  Biso   1.000  H
  H128     1.0000 0.49800  0.18590  0.99890  Biso   1.000  H
  C177     1.0000 0.95350  0.25150  0.34680  Biso   1.000  C
  C178     1.0000 0.04650  0.25150  0.15320  Biso   1.000  C
  C179     1.0000 0.45350  0.75150  0.34680  Biso   1.000  C
  C180     1.0000 0.54650  0.75150  0.15320  Biso   1.000  C
  C181     1.0000 0.04650  0.74850  0.65320  Biso   1.000  C
  C182     1.0000 0.95350  0.74850  0.84680  Biso   1.000  C
  C183     1.0000 0.54650  0.24850  0.65320  Biso   1.000  C
  C184     1.0000 0.45350  0.24850  0.84680  Biso   1.000  C
  H129     1.0000 0.93090  0.25380  0.30160  Biso   1.000  H
  H130     1.0000 0.06910  0.25380  0.19840  Biso   1.000  H
  H131     1.0000 0.43090  0.75380  0.30160  Biso   1.000  H
  H132     1.0000 0.56910  0.75380  0.19840  Biso   1.000  H
  H133     1.0000 0.06910  0.74620  0.69840  Biso   1.000  H
  H134     1.0000 0.93090  0.74620  0.80160  Biso   1.000  H
  H135     1.0000 0.56910  0.24620  0.69840  Biso   1.000  H
  H136     1.0000 0.43090  0.24620  0.80160  Biso   1.000  H
  C185     1.0000 0.98040  0.20870  0.36230  Biso   1.000  C
  C186     1.0000 0.01960  0.20870  0.13770  Biso   1.000  C
  C187     1.0000 0.48040  0.70870  0.36230  Biso   1.000  C
  C188     1.0000 0.51960  0.70870  0.13770  Biso   1.000  C
  C189     1.0000 0.01960  0.79130  0.63770  Biso   1.000  C
  C190     1.0000 0.98040  0.79130  0.86230  Biso   1.000  C
  C191     1.0000 0.51960  0.29130  0.63770  Biso   1.000  C
  C192     1.0000 0.48040  0.29130  0.86230  Biso   1.000  C
  H137     1.0000 0.97530  0.18190  0.32840  Biso   1.000  H
  H138     1.0000 0.02470  0.18190  0.17160  Biso   1.000  H
  H139     1.0000 0.47530  0.68190  0.32840  Biso   1.000  H
  H140     1.0000 0.52470  0.68190  0.17160  Biso   1.000  H
  H141     1.0000 0.02470  0.81810  0.67160  Biso   1.000  H
  H142     1.0000 0.97530  0.81810  0.82840  Biso   1.000  H
  H143     1.0000 0.52470  0.31810  0.67160  Biso   1.000  H
  H144     1.0000 0.47530  0.31810  0.82840  Biso   1.000  H
  C193     1.0000 0.01560  0.20690  0.43030  Biso   1.000  C
  C194     1.0000 0.98440  0.20690  0.06970  Biso   1.000  C
  C195     1.0000 0.51560  0.70690  0.43030  Biso   1.000  C
  C196     1.0000 0.48440  0.70690  0.06970  Biso   1.000  C
  C197     1.0000 0.98440  0.79310  0.56970  Biso   1.000  C
  C198     1.0000 0.01560  0.79310  0.93030  Biso   1.000  C
  C199     1.0000 0.48440  0.29310  0.56970  Biso   1.000  C
  C200     1.0000 0.51560  0.29310  0.93030  Biso   1.000  C
  H145     1.0000 0.03350  0.17850  0.44050  Biso   1.000  H
  H146     1.0000 0.96650  0.17850  0.05950  Biso   1.000  H
  H147     1.0000 0.53350  0.67850  0.44050  Biso   1.000  H
  H148     1.0000 0.46650  0.67850  0.05950  Biso   1.000  H
  H149     1.0000 0.96650  0.82150  0.55950  Biso   1.000  H
  H150     1.0000 0.03350  0.82150  0.94050  Biso   1.000  H
  H151     1.0000 0.46650  0.32150  0.55950  Biso   1.000  H
  H152     1.0000 0.53350  0.32150  0.94050  Biso   1.000  H
  C201     1.0000 0.19020  0.32370  0.15580  Biso   1.000  C
  C202     1.0000 0.80980  0.32370  0.34420  Biso   1.000  C
  C203     1.0000 0.69020  0.82370  0.15580  Biso   1.000  C
  C204     1.0000 0.30980  0.82370  0.34420  Biso   1.000  C
  C205     1.0000 0.80980  0.67630  0.84420  Biso   1.000  C
  C206     1.0000 0.19020  0.67630  0.65580  Biso   1.000  C
  C207     1.0000 0.30980  0.17630  0.84420  Biso   1.000  C
  C208     1.0000 0.69020  0.17630  0.65580  Biso   1.000  C
  C209     1.0000 0.16000  0.28400  0.12270  Biso   1.000  C
  C210     1.0000 0.84000  0.28400  0.37730  Biso   1.000  C
  C211     1.0000 0.66000  0.78400  0.12270  Biso   1.000  C
  C212     1.0000 0.34000  0.78400  0.37730  Biso   1.000  C
  C213     1.0000 0.84000  0.71600  0.87730  Biso   1.000  C
  C214     1.0000 0.16000  0.71600  0.62270  Biso   1.000  C
  C215     1.0000 0.34000  0.21600  0.87730  Biso   1.000  C
  C216     1.0000 0.66000  0.21600  0.62270  Biso   1.000  C
  H153     1.0000 0.15350  0.26220  0.15270  Biso   1.000  H
  H154     1.0000 0.84650  0.26220  0.34730  Biso   1.000  H
  H155     1.0000 0.65350  0.76220  0.15270  Biso   1.000  H
  H156     1.0000 0.34650  0.76220  0.34730  Biso   1.000  H
  H157     1.0000 0.84650  0.73780  0.84730  Biso   1.000  H
  H158     1.0000 0.15350  0.73780  0.65270  Biso   1.000  H
  H159     1.0000 0.34650  0.23780  0.84730  Biso   1.000  H
  H160     1.0000 0.65350  0.23780  0.65270  Biso   1.000  H
  C217     1.0000 0.13970  0.27600  0.04800  Biso   1.000  C
  C218     1.0000 0.86030  0.27600  0.45200  Biso   1.000  C
  C219     1.0000 0.63970  0.77600  0.04800  Biso   1.000  C
  C220     1.0000 0.36030  0.77600  0.45200  Biso   1.000  C
  C221     1.0000 0.86030  0.72400  0.95200  Biso   1.000  C
  C222     1.0000 0.13970  0.72400  0.54800  Biso   1.000  C
  C223     1.0000 0.36030  0.22400  0.95200  Biso   1.000  C
  C224     1.0000 0.63970  0.22400  0.54800  Biso   1.000  C
  C225     1.0000 0.10640  0.23550  0.02000  Biso   1.000  C
  C226     1.0000 0.89360  0.23550  0.48000  Biso   1.000  C
  C227     1.0000 0.60640  0.73550  0.02000  Biso   1.000  C
  C228     1.0000 0.39360  0.73550  0.48000  Biso   1.000  C
  C229     1.0000 0.89360  0.76450  0.98000  Biso   1.000  C
  C230     1.0000 0.10640  0.76450  0.52000  Biso   1.000  C
  C231     1.0000 0.39360  0.26450  0.98000  Biso   1.000  C
  C232     1.0000 0.60640  0.26450  0.52000  Biso   1.000  C
  C233     1.0000 0.07150  0.24690  0.95560  Biso   1.000  C
  C234     1.0000 0.92850  0.24690  0.54440  Biso   1.000  C
  C235     1.0000 0.57150  0.74690  0.95560  Biso   1.000  C
  C236     1.0000 0.42850  0.74690  0.54440  Biso   1.000  C
  C237     1.0000 0.92850  0.75310  0.04440  Biso   1.000  C
  C238     1.0000 0.07150  0.75310  0.45560  Biso   1.000  C
  C239     1.0000 0.42850  0.25310  0.04440  Biso   1.000  C
  C240     1.0000 0.57150  0.25310  0.45560  Biso   1.000  C
  H161     1.0000 0.07020  0.27840  0.93120  Biso   1.000  H
  H162     1.0000 0.92980  0.27840  0.56880  Biso   1.000  H
  H163     1.0000 0.57020  0.77840  0.93120  Biso   1.000  H
  H164     1.0000 0.42980  0.77840  0.56880  Biso   1.000  H
  H165     1.0000 0.92980  0.72160  0.06880  Biso   1.000  H
  H166     1.0000 0.07020  0.72160  0.43120  Biso   1.000  H
  H167     1.0000 0.42980  0.22160  0.06880  Biso   1.000  H
  H168     1.0000 0.57020  0.22160  0.43120  Biso   1.000  H
  C241     1.0000 0.03860  0.21120  0.92730  Biso   1.000  C
  C242     1.0000 0.96140  0.21120  0.57270  Biso   1.000  C
  C243     1.0000 0.53860  0.71120  0.92730  Biso   1.000  C
  C244     1.0000 0.46140  0.71120  0.57270  Biso   1.000  C
  C245     1.0000 0.96140  0.78880  0.07270  Biso   1.000  C
  C246     1.0000 0.03860  0.78880  0.42730  Biso   1.000  C
  C247     1.0000 0.46140  0.28880  0.07270  Biso   1.000  C
  C248     1.0000 0.53860  0.28880  0.42730  Biso   1.000  C
  C249     1.0000 0.04200  0.16460  0.96540  Biso   1.000  C
  C250     1.0000 0.95800  0.16460  0.53460  Biso   1.000  C
  C251     1.0000 0.54200  0.66460  0.96540  Biso   1.000  C
  C252     1.0000 0.45800  0.66460  0.53460  Biso   1.000  C
  C253     1.0000 0.95800  0.83540  0.03460  Biso   1.000  C
  C254     1.0000 0.04200  0.83540  0.46540  Biso   1.000  C
  C255     1.0000 0.45800  0.33540  0.03460  Biso   1.000  C
  C256     1.0000 0.54200  0.33540  0.46540  Biso   1.000  C
  H169     1.0000 0.02040  0.14060  0.94730  Biso   1.000  H
  H170     1.0000 0.97960  0.14060  0.55270  Biso   1.000  H
  H171     1.0000 0.52040  0.64060  0.94730  Biso   1.000  H
  H172     1.0000 0.47960  0.64060  0.55270  Biso   1.000  H
  H173     1.0000 0.97960  0.85940  0.05270  Biso   1.000  H
  H174     1.0000 0.02040  0.85940  0.44730  Biso   1.000  H
  H175     1.0000 0.47960  0.35940  0.05270  Biso   1.000  H
  H176     1.0000 0.52040  0.35940  0.44730  Biso   1.000  H
  C257     1.0000 0.07590  0.15270  0.02850  Biso   1.000  C
  C258     1.0000 0.92410  0.15270  0.47150  Biso   1.000  C
  C259     1.0000 0.57590  0.65270  0.02850  Biso   1.000  C
  C260     1.0000 0.42410  0.65270  0.47150  Biso   1.000  C
  C261     1.0000 0.92410  0.84730  0.97150  Biso   1.000  C
  C262     1.0000 0.07590  0.84730  0.52850  Biso   1.000  C
  C263     1.0000 0.42410  0.34730  0.97150  Biso   1.000  C
  C264     1.0000 0.57590  0.34730  0.52850  Biso   1.000  C
  H177     1.0000 0.07700  0.12110  0.05250  Biso   1.000  H
  H178     1.0000 0.92300  0.12110  0.44750  Biso   1.000  H
  H179     1.0000 0.57700  0.62110  0.05250  Biso   1.000  H
  H180     1.0000 0.42300  0.62110  0.44750  Biso   1.000  H
  H181     1.0000 0.92300  0.87890  0.94750  Biso   1.000  H
  H182     1.0000 0.07700  0.87890  0.55250  Biso   1.000  H
  H183     1.0000 0.42300  0.37890  0.94750  Biso   1.000  H
  H184     1.0000 0.57700  0.37890  0.55250  Biso   1.000  H
  C265     1.0000 0.23550  0.43500  0.99910  Biso   1.000  C
  C266     1.0000 0.76450  0.43500  0.50090  Biso   1.000  C
  C267     1.0000 0.73550  0.93500  0.99910  Biso   1.000  C
  C268     1.0000 0.26450  0.93500  0.50090  Biso   1.000  C
  C269     1.0000 0.76450  0.56500  0.00090  Biso   1.000  C
  C270     1.0000 0.23550  0.56500  0.49910  Biso   1.000  C
  C271     1.0000 0.26450  0.06500  0.00090  Biso   1.000  C
  C272     1.0000 0.73550  0.06500  0.49910  Biso   1.000  C
  C273     1.0000 0.21550  0.43120  0.92350  Biso   1.000  C
  C274     1.0000 0.78450  0.43120  0.57650  Biso   1.000  C
  C275     1.0000 0.71550  0.93120  0.92350  Biso   1.000  C
  C276     1.0000 0.28450  0.93120  0.57650  Biso   1.000  C
  C277     1.0000 0.78450  0.56880  0.07650  Biso   1.000  C
  C278     1.0000 0.21550  0.56880  0.42350  Biso   1.000  C
  C279     1.0000 0.28450  0.06880  0.07650  Biso   1.000  C
  C280     1.0000 0.71550  0.06880  0.42350  Biso   1.000  C
  H185     1.0000 0.22320  0.45420  0.89610  Biso   1.000  H
  H186     1.0000 0.77680  0.45420  0.60390  Biso   1.000  H
  H187     1.0000 0.72320  0.95420  0.89610  Biso   1.000  H
  H188     1.0000 0.27680  0.95420  0.60390  Biso   1.000  H
  H189     1.0000 0.77680  0.54580  0.10390  Biso   1.000  H
  H190     1.0000 0.22320  0.54580  0.39610  Biso   1.000  H
  H191     1.0000 0.27680  0.04580  0.10390  Biso   1.000  H
  H192     1.0000 0.72320  0.04580  0.39610  Biso   1.000  H
  C281     1.0000 0.18400  0.39390  0.88640  Biso   1.000  C
  C282     1.0000 0.81600  0.39390  0.61360  Biso   1.000  C
  C283     1.0000 0.68400  0.89390  0.88640  Biso   1.000  C
  C284     1.0000 0.31600  0.89390  0.61360  Biso   1.000  C
  C285     1.0000 0.81600  0.60610  0.11360  Biso   1.000  C
  C286     1.0000 0.18400  0.60610  0.38640  Biso   1.000  C
  C287     1.0000 0.31600  0.10610  0.11360  Biso   1.000  C
  C288     1.0000 0.68400  0.10610  0.38640  Biso   1.000  C
  C289     1.0000 0.16460  0.39440  0.80590  Biso   1.000  C
  C290     1.0000 0.83540  0.39440  0.69410  Biso   1.000  C
  C291     1.0000 0.66460  0.89440  0.80590  Biso   1.000  C
  C292     1.0000 0.33540  0.89440  0.69410  Biso   1.000  C
  C293     1.0000 0.83540  0.60560  0.19410  Biso   1.000  C
  C294     1.0000 0.16460  0.60560  0.30590  Biso   1.000  C
  C295     1.0000 0.33540  0.10560  0.19410  Biso   1.000  C
  C296     1.0000 0.66460  0.10560  0.30590  Biso   1.000  C
  C297     1.0000 0.16240  0.44020  0.76400  Biso   1.000  C
  C298     1.0000 0.83760  0.44020  0.73600  Biso   1.000  C
  C299     1.0000 0.66240  0.94020  0.76400  Biso   1.000  C
  C300     1.0000 0.33760  0.94020  0.73600  Biso   1.000  C
  C301     1.0000 0.83760  0.55980  0.23600  Biso   1.000  C
  C302     1.0000 0.16240  0.55980  0.26400  Biso   1.000  C
  C303     1.0000 0.33760  0.05980  0.23600  Biso   1.000  C
  C304     1.0000 0.66240  0.05980  0.26400  Biso   1.000  C
  H193     1.0000 0.17330  0.47180  0.78780  Biso   1.000  H
  H194     1.0000 0.82670  0.47180  0.71220  Biso   1.000  H
  H195     1.0000 0.67330  0.97180  0.78780  Biso   1.000  H
  H196     1.0000 0.32670  0.97180  0.71220  Biso   1.000  H
  H197     1.0000 0.82670  0.52820  0.21220  Biso   1.000  H
  H198     1.0000 0.17330  0.52820  0.28780  Biso   1.000  H
  H199     1.0000 0.32670  0.02820  0.21220  Biso   1.000  H
  H200     1.0000 0.67330  0.02820  0.28780  Biso   1.000  H
  C305     1.0000 0.14450  0.43870  0.68970  Biso   1.000  C
  C306     1.0000 0.85550  0.43870  0.81030  Biso   1.000  C
  C307     1.0000 0.64450  0.93870  0.68970  Biso   1.000  C
  C308     1.0000 0.35550  0.93870  0.81030  Biso   1.000  C
  C309     1.0000 0.85550  0.56130  0.31030  Biso   1.000  C
  C310     1.0000 0.14450  0.56130  0.18970  Biso   1.000  C
  C311     1.0000 0.35550  0.06130  0.31030  Biso   1.000  C
  C312     1.0000 0.64450  0.06130  0.18970  Biso   1.000  C
  H201     1.0000 0.14290  0.46910  0.66300  Biso   1.000  H
  H202     1.0000 0.85710  0.46910  0.83700  Biso   1.000  H
  H203     1.0000 0.64290  0.96910  0.66300  Biso   1.000  H
  H204     1.0000 0.35710  0.96910  0.83700  Biso   1.000  H
  H205     1.0000 0.85710  0.53090  0.33700  Biso   1.000  H
  H206     1.0000 0.14290  0.53090  0.16300  Biso   1.000  H
  H207     1.0000 0.35710  0.03090  0.33700  Biso   1.000  H
  H208     1.0000 0.64290  0.03090  0.16300  Biso   1.000  H
  C313     1.0000 0.12910  0.39160  0.65490  Biso   1.000  C
  C314     1.0000 0.87090  0.39160  0.84510  Biso   1.000  C
  C315     1.0000 0.62910  0.89160  0.65490  Biso   1.000  C
  C316     1.0000 0.37090  0.89160  0.84510  Biso   1.000  C
  C317     1.0000 0.87090  0.60840  0.34510  Biso   1.000  C
  C318     1.0000 0.12910  0.60840  0.15490  Biso   1.000  C
  C319     1.0000 0.37090  0.10840  0.34510  Biso   1.000  C
  C320     1.0000 0.62910  0.10840  0.15490  Biso   1.000  C
  H209     1.0000 0.11770  0.39040  0.60440  Biso   1.000  H
  H210     1.0000 0.88230  0.39040  0.89560  Biso   1.000  H
  H211     1.0000 0.61770  0.89040  0.60440  Biso   1.000  H
  H212     1.0000 0.38230  0.89040  0.89560  Biso   1.000  H
  H213     1.0000 0.88230  0.60960  0.39560  Biso   1.000  H
  H214     1.0000 0.11770  0.60960  0.10440  Biso   1.000  H
  H215     1.0000 0.38230  0.10960  0.39560  Biso   1.000  H
  H216     1.0000 0.61770  0.10960  0.10440  Biso   1.000  H
  C321     1.0000 0.12970  0.34600  0.69250  Biso   1.000  C
  C322     1.0000 0.87030  0.34600  0.80750  Biso   1.000  C
  C323     1.0000 0.62970  0.84600  0.69250  Biso   1.000  C
  C324     1.0000 0.37030  0.84600  0.80750  Biso   1.000  C
  C325     1.0000 0.87030  0.65400  0.30750  Biso   1.000  C
  C326     1.0000 0.12970  0.65400  0.19250  Biso   1.000  C
  C327     1.0000 0.37030  0.15400  0.30750  Biso   1.000  C
  C328     1.0000 0.62970  0.15400  0.19250  Biso   1.000  C
  C329     1.0000 0.14710  0.34800  0.76750  Biso   1.000  C
  C330     1.0000 0.85290  0.34800  0.73250  Biso   1.000  C
  C331     1.0000 0.64710  0.84800  0.76750  Biso   1.000  C
  C332     1.0000 0.35290  0.84800  0.73250  Biso   1.000  C
  C333     1.0000 0.85290  0.65200  0.23250  Biso   1.000  C
  C334     1.0000 0.14710  0.65200  0.26750  Biso   1.000  C
  C335     1.0000 0.35290  0.15200  0.23250  Biso   1.000  C
  C336     1.0000 0.64710  0.15200  0.26750  Biso   1.000  C
  H217     1.0000 0.14710  0.31770  0.79320  Biso   1.000  H
  H218     1.0000 0.85290  0.31770  0.70680  Biso   1.000  H
  H219     1.0000 0.64710  0.81770  0.79320  Biso   1.000  H
  H220     1.0000 0.35290  0.81770  0.70680  Biso   1.000  H
  H221     1.0000 0.85290  0.68230  0.20680  Biso   1.000  H
  H222     1.0000 0.14710  0.68230  0.29320  Biso   1.000  H
  H223     1.0000 0.35290  0.18230  0.20680  Biso   1.000  H
  H224     1.0000 0.64710  0.18230  0.29320  Biso   1.000  H
  C337     1.0000 0.12910  0.24800  0.68700  Biso   1.000  C
  C338     1.0000 0.87090  0.24800  0.81300  Biso   1.000  C
  C339     1.0000 0.62910  0.74800  0.68700  Biso   1.000  C
  C340     1.0000 0.37090  0.74800  0.81300  Biso   1.000  C
  C341     1.0000 0.87090  0.75200  0.31300  Biso   1.000  C
  C342     1.0000 0.12910  0.75200  0.18700  Biso   1.000  C
  C343     1.0000 0.37090  0.25200  0.31300  Biso   1.000  C
  C344     1.0000 0.62910  0.25200  0.18700  Biso   1.000  C
  H225     1.0000 0.15160  0.24830  0.73250  Biso   1.000  H
  H226     1.0000 0.84840  0.24830  0.76750  Biso   1.000  H
  H227     1.0000 0.65160  0.74830  0.73250  Biso   1.000  H
  H228     1.0000 0.34840  0.74830  0.76750  Biso   1.000  H
  H229     1.0000 0.84840  0.75170  0.26750  Biso   1.000  H
  H230     1.0000 0.15160  0.75170  0.23250  Biso   1.000  H
  H231     1.0000 0.34840  0.25170  0.26750  Biso   1.000  H
  H232     1.0000 0.65160  0.25170  0.23250  Biso   1.000  H
  C345     1.0000 0.11270  0.29500  0.65490  Biso   1.000  C
  C346     1.0000 0.88730  0.29500  0.84510  Biso   1.000  C
  C347     1.0000 0.61270  0.79500  0.65490  Biso   1.000  C
  C348     1.0000 0.38730  0.79500  0.84510  Biso   1.000  C
  C349     1.0000 0.88730  0.70500  0.34510  Biso   1.000  C
  C350     1.0000 0.11270  0.70500  0.15490  Biso   1.000  C
  C351     1.0000 0.38730  0.20500  0.34510  Biso   1.000  C
  C352     1.0000 0.61270  0.20500  0.15490  Biso   1.000  C
  C353     1.0000 0.07750  0.29360  0.58530  Biso   1.000  C
  C354     1.0000 0.92250  0.29360  0.91470  Biso   1.000  C
  C355     1.0000 0.57750  0.79360  0.58530  Biso   1.000  C
  C356     1.0000 0.42250  0.79360  0.91470  Biso   1.000  C
  C357     1.0000 0.92250  0.70640  0.41470  Biso   1.000  C
  C358     1.0000 0.07750  0.70640  0.08530  Biso   1.000  C
  C359     1.0000 0.42250  0.20640  0.41470  Biso   1.000  C
  C360     1.0000 0.57750  0.20640  0.08530  Biso   1.000  C
  H233     1.0000 0.06570  0.32520  0.56250  Biso   1.000  H
  H234     1.0000 0.93430  0.32520  0.93750  Biso   1.000  H
  H235     1.0000 0.56570  0.82520  0.56250  Biso   1.000  H
  H236     1.0000 0.43430  0.82520  0.93750  Biso   1.000  H
  H237     1.0000 0.93430  0.67480  0.43750  Biso   1.000  H
  H238     1.0000 0.06570  0.67480  0.06250  Biso   1.000  H
  H239     1.0000 0.43430  0.17480  0.43750  Biso   1.000  H
  H240     1.0000 0.56570  0.17480  0.06250  Biso   1.000  H
  C361     1.0000 0.06060  0.24660  0.55160  Biso   1.000  C
  C362     1.0000 0.93940  0.24660  0.94840  Biso   1.000  C
  C363     1.0000 0.56060  0.74660  0.55160  Biso   1.000  C
  C364     1.0000 0.43940  0.74660  0.94840  Biso   1.000  C
  C365     1.0000 0.93940  0.75340  0.44840  Biso   1.000  C
  C366     1.0000 0.06060  0.75340  0.05160  Biso   1.000  C
  C367     1.0000 0.43940  0.25340  0.44840  Biso   1.000  C
  C368     1.0000 0.56060  0.25340  0.05160  Biso   1.000  C
  C369     1.0000 0.07870  0.19920  0.58600  Biso   1.000  C
  C370     1.0000 0.92130  0.19920  0.91400  Biso   1.000  C
  C371     1.0000 0.57870  0.69920  0.58600  Biso   1.000  C
  C372     1.0000 0.42130  0.69920  0.91400  Biso   1.000  C
  C373     1.0000 0.92130  0.80080  0.41400  Biso   1.000  C
  C374     1.0000 0.07870  0.80080  0.08600  Biso   1.000  C
  C375     1.0000 0.42130  0.30080  0.41400  Biso   1.000  C
  C376     1.0000 0.57870  0.30080  0.08600  Biso   1.000  C
  H241     1.0000 0.06760  0.16730  0.56340  Biso   1.000  H
  H242     1.0000 0.93240  0.16730  0.93660  Biso   1.000  H
  H243     1.0000 0.56760  0.66730  0.56340  Biso   1.000  H
  H244     1.0000 0.43240  0.66730  0.93660  Biso   1.000  H
  H245     1.0000 0.93240  0.83270  0.43660  Biso   1.000  H
  H246     1.0000 0.06760  0.83270  0.06340  Biso   1.000  H
  H247     1.0000 0.43240  0.33270  0.43660  Biso   1.000  H
  H248     1.0000 0.56760  0.33270  0.06340  Biso   1.000  H
  C377     1.0000 0.11340  0.19880  0.65430  Biso   1.000  C
  C378     1.0000 0.88660  0.19880  0.84570  Biso   1.000  C
  C379     1.0000 0.61340  0.69880  0.65430  Biso   1.000  C
  C380     1.0000 0.38660  0.69880  0.84570  Biso   1.000  C
  C381     1.0000 0.88660  0.80120  0.34570  Biso   1.000  C
  C382     1.0000 0.11340  0.80120  0.15430  Biso   1.000  C
  C383     1.0000 0.38660  0.30120  0.34570  Biso   1.000  C
  C384     1.0000 0.61340  0.30120  0.15430  Biso   1.000  C
  C385     1.0000 0.13210  0.14870  0.69300  Biso   1.000  C
  C386     1.0000 0.86790  0.14870  0.80700  Biso   1.000  C
  C387     1.0000 0.63210  0.64870  0.69300  Biso   1.000  C
  C388     1.0000 0.36790  0.64870  0.80700  Biso   1.000  C
  C389     1.0000 0.86790  0.85130  0.30700  Biso   1.000  C
  C390     1.0000 0.13210  0.85130  0.19300  Biso   1.000  C
  C391     1.0000 0.36790  0.35130  0.30700  Biso   1.000  C
  C392     1.0000 0.63210  0.35130  0.19300  Biso   1.000  C
  C393     1.0000 0.17400  0.14770  0.74080  Biso   1.000  C
  C394     1.0000 0.82600  0.14770  0.75920  Biso   1.000  C
  C395     1.0000 0.67400  0.64770  0.74080  Biso   1.000  C
  C396     1.0000 0.32600  0.64770  0.75920  Biso   1.000  C
  C397     1.0000 0.82600  0.85230  0.25920  Biso   1.000  C
  C398     1.0000 0.17400  0.85230  0.24080  Biso   1.000  C
  C399     1.0000 0.32600  0.35230  0.25920  Biso   1.000  C
  C400     1.0000 0.67400  0.35230  0.24080  Biso   1.000  C
  H249     1.0000 0.19040  0.17690  0.74480  Biso   1.000  H
  H250     1.0000 0.80960  0.17690  0.75520  Biso   1.000  H
  H251     1.0000 0.69040  0.67690  0.74480  Biso   1.000  H
  H252     1.0000 0.30960  0.67690  0.75520  Biso   1.000  H
  H253     1.0000 0.80960  0.82310  0.25520  Biso   1.000  H
  H254     1.0000 0.19040  0.82310  0.24480  Biso   1.000  H
  H255     1.0000 0.30960  0.32310  0.25520  Biso   1.000  H
  H256     1.0000 0.69040  0.32310  0.24480  Biso   1.000  H
  C401     1.0000 0.19090  0.10290  0.78230  Biso   1.000  C
  C402     1.0000 0.80910  0.10290  0.71770  Biso   1.000  C
  C403     1.0000 0.69090  0.60290  0.78230  Biso   1.000  C
  C404     1.0000 0.30910  0.60290  0.71770  Biso   1.000  C
  C405     1.0000 0.80910  0.89710  0.21770  Biso   1.000  C
  C406     1.0000 0.19090  0.89710  0.28230  Biso   1.000  C
  C407     1.0000 0.30910  0.39710  0.21770  Biso   1.000  C
  C408     1.0000 0.69090  0.39710  0.28230  Biso   1.000  C
  H257     1.0000 0.21820  0.10290  0.81640  Biso   1.000  H
  H258     1.0000 0.78180  0.10290  0.68360  Biso   1.000  H
  H259     1.0000 0.71820  0.60290  0.81640  Biso   1.000  H
  H260     1.0000 0.28180  0.60290  0.68360  Biso   1.000  H
  H261     1.0000 0.78180  0.89710  0.18360  Biso   1.000  H
  H262     1.0000 0.21820  0.89710  0.31640  Biso   1.000  H
  H263     1.0000 0.28180  0.39710  0.18360  Biso   1.000  H
  H264     1.0000 0.71820  0.39710  0.31640  Biso   1.000  H
  C409     1.0000 0.16740  0.05860  0.77330  Biso   1.000  C
  C410     1.0000 0.83260  0.05860  0.72670  Biso   1.000  C
  C411     1.0000 0.66740  0.55860  0.77330  Biso   1.000  C
  C412     1.0000 0.33260  0.55860  0.72670  Biso   1.000  C
  C413     1.0000 0.83260  0.94140  0.22670  Biso   1.000  C
  C414     1.0000 0.16740  0.94140  0.27330  Biso   1.000  C
  C415     1.0000 0.33260  0.44140  0.22670  Biso   1.000  C
  C416     1.0000 0.66740  0.44140  0.27330  Biso   1.000  C
  H265     1.0000 0.17960  0.02800  0.79870  Biso   1.000  H
  H266     1.0000 0.82040  0.02800  0.70130  Biso   1.000  H
  H267     1.0000 0.67960  0.52800  0.79870  Biso   1.000  H
  H268     1.0000 0.32040  0.52800  0.70130  Biso   1.000  H
  H269     1.0000 0.82040  0.97200  0.20130  Biso   1.000  H
  H270     1.0000 0.17960  0.97200  0.29870  Biso   1.000  H
  H271     1.0000 0.32040  0.47200  0.20130  Biso   1.000  H
  H272     1.0000 0.67960  0.47200  0.29870  Biso   1.000  H
  C417     1.0000 0.12590  0.05890  0.72680  Biso   1.000  C
  C418     1.0000 0.87410  0.05890  0.77320  Biso   1.000  C
  C419     1.0000 0.62590  0.55890  0.72680  Biso   1.000  C
  C420     1.0000 0.37410  0.55890  0.77320  Biso   1.000  C
  C421     1.0000 0.87410  0.94110  0.27320  Biso   1.000  C
  C422     1.0000 0.12590  0.94110  0.22680  Biso   1.000  C
  C423     1.0000 0.37410  0.44110  0.27320  Biso   1.000  C
  C424     1.0000 0.62590  0.44110  0.22680  Biso   1.000  C
  C425     1.0000 0.10860  0.10500  0.68750  Biso   1.000  C
  C426     1.0000 0.89140  0.10500  0.81250  Biso   1.000  C
  C427     1.0000 0.60860  0.60500  0.68750  Biso   1.000  C
  C428     1.0000 0.39140  0.60500  0.81250  Biso   1.000  C
  C429     1.0000 0.89140  0.89500  0.31250  Biso   1.000  C
  C430     1.0000 0.10860  0.89500  0.18750  Biso   1.000  C
  C431     1.0000 0.39140  0.39500  0.31250  Biso   1.000  C
  C432     1.0000 0.60860  0.39500  0.18750  Biso   1.000  C
  H273     1.0000 0.08060  0.10600  0.65710  Biso   1.000  H
  H274     1.0000 0.91940  0.10600  0.84290  Biso   1.000  H
  H275     1.0000 0.58060  0.60600  0.65710  Biso   1.000  H
  H276     1.0000 0.41940  0.60600  0.84290  Biso   1.000  H
  H277     1.0000 0.91940  0.89400  0.34290  Biso   1.000  H
  H278     1.0000 0.08060  0.89400  0.15710  Biso   1.000  H
  H279     1.0000 0.41940  0.39400  0.34290  Biso   1.000  H
  H280     1.0000 0.58060  0.39400  0.15710  Biso   1.000  H
  C433     1.0000 0.09940  0.01170  0.71680  Biso   1.000  C
  C434     1.0000 0.90060  0.01170  0.78320  Biso   1.000  C
  C435     1.0000 0.59940  0.51170  0.71680  Biso   1.000  C
  C436     1.0000 0.40060  0.51170  0.78320  Biso   1.000  C
  C437     1.0000 0.90060  0.98830  0.28320  Biso   1.000  C
  C438     1.0000 0.09940  0.98830  0.21680  Biso   1.000  C
  C439     1.0000 0.40060  0.48830  0.28320  Biso   1.000  C
  C440     1.0000 0.59940  0.48830  0.21680  Biso   1.000  C
  C441     1.0000 0.11810  0.96050  0.73050  Biso   1.000  C
  C442     1.0000 0.88190  0.96050  0.76950  Biso   1.000  C
  C443     1.0000 0.61810  0.46050  0.73050  Biso   1.000  C
  C444     1.0000 0.38190  0.46050  0.76950  Biso   1.000  C
  C445     1.0000 0.88190  0.03950  0.26950  Biso   1.000  C
  C446     1.0000 0.11810  0.03950  0.23050  Biso   1.000  C
  C447     1.0000 0.38190  0.53950  0.26950  Biso   1.000  C
  C448     1.0000 0.61810  0.53950  0.23050  Biso   1.000  C
  H281     1.0000 0.14610  0.95850  0.74450  Biso   1.000  H
  H282     1.0000 0.85390  0.95850  0.75550  Biso   1.000  H
  H283     1.0000 0.64610  0.45850  0.74450  Biso   1.000  H
  H284     1.0000 0.35390  0.45850  0.75550  Biso   1.000  H
  H285     1.0000 0.85390  0.04150  0.25550  Biso   1.000  H
  H286     1.0000 0.14610  0.04150  0.24450  Biso   1.000  H
  H287     1.0000 0.35390  0.54150  0.25550  Biso   1.000  H
  H288     1.0000 0.64610  0.54150  0.24450  Biso   1.000  H
  C449     1.0000 0.09690  0.91400  0.72430  Biso   1.000  C
  C450     1.0000 0.90310  0.91400  0.77570  Biso   1.000  C
  C451     1.0000 0.59690  0.41400  0.72430  Biso   1.000  C
  C452     1.0000 0.40310  0.41400  0.77570  Biso   1.000  C
  C453     1.0000 0.90310  0.08600  0.27570  Biso   1.000  C
  C454     1.0000 0.09690  0.08600  0.22430  Biso   1.000  C
  C455     1.0000 0.40310  0.58600  0.27570  Biso   1.000  C
  C456     1.0000 0.59690  0.58600  0.22430  Biso   1.000  C
  C457     1.0000 0.12020  0.86140  0.73940  Biso   1.000  C
  C458     1.0000 0.87980  0.86140  0.76060  Biso   1.000  C
  C459     1.0000 0.62020  0.36140  0.73940  Biso   1.000  C
  C460     1.0000 0.37980  0.36140  0.76060  Biso   1.000  C
  C461     1.0000 0.87980  0.13860  0.26060  Biso   1.000  C
  C462     1.0000 0.12020  0.13860  0.23940  Biso   1.000  C
  C463     1.0000 0.37980  0.63860  0.26060  Biso   1.000  C
  C464     1.0000 0.62020  0.63860  0.23940  Biso   1.000  C
  H289     1.0000 0.11510  0.84160  0.77470  Biso   1.000  H
  H290     1.0000 0.88490  0.84160  0.72530  Biso   1.000  H
  H291     1.0000 0.61510  0.34160  0.77470  Biso   1.000  H
  H292     1.0000 0.38490  0.34160  0.72530  Biso   1.000  H
  H293     1.0000 0.88490  0.15840  0.22530  Biso   1.000  H
  H294     1.0000 0.11510  0.15840  0.27470  Biso   1.000  H
  H295     1.0000 0.38490  0.65840  0.22530  Biso   1.000  H
  H296     1.0000 0.61510  0.65840  0.27470  Biso   1.000  H
  H297     1.0000 0.14910  0.86820  0.75800  Biso   1.000  H
  H298     1.0000 0.85090  0.86820  0.74200  Biso   1.000  H
  H299     1.0000 0.64910  0.36820  0.75800  Biso   1.000  H
  H300     1.0000 0.35090  0.36820  0.74200  Biso   1.000  H
  H301     1.0000 0.85090  0.13180  0.24200  Biso   1.000  H
  H302     1.0000 0.14910  0.13180  0.25800  Biso   1.000  H
  H303     1.0000 0.35090  0.63180  0.24200  Biso   1.000  H
  H304     1.0000 0.64910  0.63180  0.25800  Biso   1.000  H
  H305     1.0000 0.11100  0.84140  0.69520  Biso   1.000  H
  H306     1.0000 0.88900  0.84140  0.80480  Biso   1.000  H
  H307     1.0000 0.61100  0.34140  0.69520  Biso   1.000  H
  H308     1.0000 0.38900  0.34140  0.80480  Biso   1.000  H
  H309     1.0000 0.88900  0.15860  0.30480  Biso   1.000  H
  H310     1.0000 0.11100  0.15860  0.19520  Biso   1.000  H
  H311     1.0000 0.38900  0.65860  0.30480  Biso   1.000  H
  H312     1.0000 0.61100  0.65860  0.19520  Biso   1.000  H
  C465     1.0000 0.91450  0.87310  0.61710  Biso   1.000  C
  C466     1.0000 0.08550  0.87310  0.88290  Biso   1.000  C
  C467     1.0000 0.41450  0.37310  0.61710  Biso   1.000  C
  C468     1.0000 0.58550  0.37310  0.88290  Biso   1.000  C
  C469     1.0000 0.08550  0.12690  0.38290  Biso   1.000  C
  C470     1.0000 0.91450  0.12690  0.11710  Biso   1.000  C
  C471     1.0000 0.58550  0.62690  0.38290  Biso   1.000  C
  C472     1.0000 0.41450  0.62690  0.11710  Biso   1.000  C
  H313     1.0000 0.93030  0.84270  0.61710  Biso   1.000  H
  H314     1.0000 0.06970  0.84270  0.88290  Biso   1.000  H
  H315     1.0000 0.43030  0.34270  0.61710  Biso   1.000  H
  H316     1.0000 0.56970  0.34270  0.88290  Biso   1.000  H
  H317     1.0000 0.06970  0.15730  0.38290  Biso   1.000  H
  H318     1.0000 0.93030  0.15730  0.11710  Biso   1.000  H
  H319     1.0000 0.56970  0.65730  0.38290  Biso   1.000  H
  H320     1.0000 0.43030  0.65730  0.11710  Biso   1.000  H
  H321     1.0000 0.89160  0.87680  0.57010  Biso   1.000  H
  H322     1.0000 0.10840  0.87680  0.92990  Biso   1.000  H
  H323     1.0000 0.39160  0.37680  0.57010  Biso   1.000  H
  H324     1.0000 0.60840  0.37680  0.92990  Biso   1.000  H
  H325     1.0000 0.10840  0.12320  0.42990  Biso   1.000  H
  H326     1.0000 0.89160  0.12320  0.07010  Biso   1.000  H
  H327     1.0000 0.60840  0.62320  0.42990  Biso   1.000  H
  H328     1.0000 0.39160  0.62320  0.07010  Biso   1.000  H
  H329     1.0000 0.90470  0.86880  0.65340  Biso   1.000  H
  H330     1.0000 0.09530  0.86880  0.84660  Biso   1.000  H
  H331     1.0000 0.40470  0.36880  0.65340  Biso   1.000  H
  H332     1.0000 0.59530  0.36880  0.84660  Biso   1.000  H
  H333     1.0000 0.09530  0.13120  0.34660  Biso   1.000  H
  H334     1.0000 0.90470  0.13120  0.15340  Biso   1.000  H
  H335     1.0000 0.59530  0.63120  0.34660  Biso   1.000  H
  H336     1.0000 0.40470  0.63120  0.15340  Biso   1.000  H
  C473     1.0000 0.94100  0.92170  0.63390  Biso   1.000  C
  C474     1.0000 0.05900  0.92170  0.86610  Biso   1.000  C
  C475     1.0000 0.44100  0.42170  0.63390  Biso   1.000  C
  C476     1.0000 0.55900  0.42170  0.86610  Biso   1.000  C
  C477     1.0000 0.05900  0.07830  0.36610  Biso   1.000  C
  C478     1.0000 0.94100  0.07830  0.13390  Biso   1.000  C
  C479     1.0000 0.55900  0.57830  0.36610  Biso   1.000  C
  C480     1.0000 0.44100  0.57830  0.13390  Biso   1.000  C
  C481     1.0000 0.92270  0.97140  0.62820  Biso   1.000  C
  C482     1.0000 0.07730  0.97140  0.87180  Biso   1.000  C
  C483     1.0000 0.42270  0.47140  0.62820  Biso   1.000  C
  C484     1.0000 0.57730  0.47140  0.87180  Biso   1.000  C
  C485     1.0000 0.07730  0.02860  0.37180  Biso   1.000  C
  C486     1.0000 0.92270  0.02860  0.12820  Biso   1.000  C
  C487     1.0000 0.57730  0.52860  0.37180  Biso   1.000  C
  C488     1.0000 0.42270  0.52860  0.12820  Biso   1.000  C
  H337     1.0000 0.89450  0.97240  0.61330  Biso   1.000  H
  H338     1.0000 0.10550  0.97240  0.88670  Biso   1.000  H
  H339     1.0000 0.39450  0.47240  0.61330  Biso   1.000  H
  H340     1.0000 0.60550  0.47240  0.88670  Biso   1.000  H
  H341     1.0000 0.10550  0.02760  0.38670  Biso   1.000  H
  H342     1.0000 0.89450  0.02760  0.11330  Biso   1.000  H
  H343     1.0000 0.60550  0.52760  0.38670  Biso   1.000  H
  H344     1.0000 0.39450  0.52760  0.11330  Biso   1.000  H
  C489     1.0000 0.94390  0.01970  0.64350  Biso   1.000  C
  C490     1.0000 0.05610  0.01970  0.85650  Biso   1.000  C
  C491     1.0000 0.44390  0.51970  0.64350  Biso   1.000  C
  C492     1.0000 0.55610  0.51970  0.85650  Biso   1.000  C
  C493     1.0000 0.05610  0.98030  0.35650  Biso   1.000  C
  C494     1.0000 0.94390  0.98030  0.14350  Biso   1.000  C
  C495     1.0000 0.55610  0.48030  0.35650  Biso   1.000  C
  C496     1.0000 0.44390  0.48030  0.14350  Biso   1.000  C
  C497     1.0000 0.92100  0.06930  0.63930  Biso   1.000  C
  C498     1.0000 0.07900  0.06930  0.86070  Biso   1.000  C
  C499     1.0000 0.42100  0.56930  0.63930  Biso   1.000  C
  C500     1.0000 0.57900  0.56930  0.86070  Biso   1.000  C
  C501     1.0000 0.07900  0.93070  0.36070  Biso   1.000  C
  C502     1.0000 0.92100  0.93070  0.13930  Biso   1.000  C
  C503     1.0000 0.57900  0.43070  0.36070  Biso   1.000  C
  C504     1.0000 0.42100  0.43070  0.13930  Biso   1.000  C
  C505     1.0000 0.94150  0.10880  0.69040  Biso   1.000  C
  C506     1.0000 0.05850  0.10880  0.80960  Biso   1.000  C
  C507     1.0000 0.44150  0.60880  0.69040  Biso   1.000  C
  C508     1.0000 0.55850  0.60880  0.80960  Biso   1.000  C
  C509     1.0000 0.05850  0.89120  0.30960  Biso   1.000  C
  C510     1.0000 0.94150  0.89120  0.19040  Biso   1.000  C
  C511     1.0000 0.55850  0.39120  0.30960  Biso   1.000  C
  C512     1.0000 0.44150  0.39120  0.19040  Biso   1.000  C
  H345     1.0000 0.96850  0.10300  0.72470  Biso   1.000  H
  H346     1.0000 0.03150  0.10300  0.77530  Biso   1.000  H
  H347     1.0000 0.46850  0.60300  0.72470  Biso   1.000  H
  H348     1.0000 0.53150  0.60300  0.77530  Biso   1.000  H
  H349     1.0000 0.03150  0.89700  0.27530  Biso   1.000  H
  H350     1.0000 0.96850  0.89700  0.22470  Biso   1.000  H
  H351     1.0000 0.53150  0.39700  0.27530  Biso   1.000  H
  H352     1.0000 0.46850  0.39700  0.22470  Biso   1.000  H
  C513     1.0000 0.92230  0.15710  0.69120  Biso   1.000  C
  C514     1.0000 0.07770  0.15710  0.80880  Biso   1.000  C
  C515     1.0000 0.42230  0.65710  0.69120  Biso   1.000  C
  C516     1.0000 0.57770  0.65710  0.80880  Biso   1.000  C
  C517     1.0000 0.07770  0.84290  0.30880  Biso   1.000  C
  C518     1.0000 0.92230  0.84290  0.19120  Biso   1.000  C
  C519     1.0000 0.57770  0.34290  0.30880  Biso   1.000  C
  C520     1.0000 0.42230  0.34290  0.19120  Biso   1.000  C
  C521     1.0000 0.88210  0.16390  0.63850  Biso   1.000  C
  C522     1.0000 0.11790  0.16390  0.86150  Biso   1.000  C
  C523     1.0000 0.38210  0.66390  0.63850  Biso   1.000  C
  C524     1.0000 0.61790  0.66390  0.86150  Biso   1.000  C
  C525     1.0000 0.11790  0.83610  0.36150  Biso   1.000  C
  C526     1.0000 0.88210  0.83610  0.13850  Biso   1.000  C
  C527     1.0000 0.61790  0.33610  0.36150  Biso   1.000  C
  C528     1.0000 0.38210  0.33610  0.13850  Biso   1.000  C
  H353     1.0000 0.86870  0.19560  0.63650  Biso   1.000  H
  H354     1.0000 0.13130  0.19560  0.86350  Biso   1.000  H
  H355     1.0000 0.36870  0.69560  0.63650  Biso   1.000  H
  H356     1.0000 0.63130  0.69560  0.86350  Biso   1.000  H
  H357     1.0000 0.13130  0.80440  0.36350  Biso   1.000  H
  H358     1.0000 0.86870  0.80440  0.13650  Biso   1.000  H
  H359     1.0000 0.63130  0.30440  0.36350  Biso   1.000  H
  H360     1.0000 0.36870  0.30440  0.13650  Biso   1.000  H
  C529     1.0000 0.86170  0.12440  0.58890  Biso   1.000  C
  C530     1.0000 0.13830  0.12440  0.91110  Biso   1.000  C
  C531     1.0000 0.36170  0.62440  0.58890  Biso   1.000  C
  C532     1.0000 0.63830  0.62440  0.91110  Biso   1.000  C
  C533     1.0000 0.13830  0.87560  0.41110  Biso   1.000  C
  C534     1.0000 0.86170  0.87560  0.08890  Biso   1.000  C
  C535     1.0000 0.63830  0.37560  0.41110  Biso   1.000  C
  C536     1.0000 0.36170  0.37560  0.08890  Biso   1.000  C
  H361     1.0000 0.83460  0.12960  0.55500  Biso   1.000  H
  H362     1.0000 0.16540  0.12960  0.94500  Biso   1.000  H
  H363     1.0000 0.33460  0.62960  0.55500  Biso   1.000  H
  H364     1.0000 0.66540  0.62960  0.94500  Biso   1.000  H
  H365     1.0000 0.16540  0.87040  0.44500  Biso   1.000  H
  H366     1.0000 0.83460  0.87040  0.05500  Biso   1.000  H
  H367     1.0000 0.66540  0.37040  0.44500  Biso   1.000  H
  H368     1.0000 0.33460  0.37040  0.05500  Biso   1.000  H
  C537     1.0000 0.88100  0.07800  0.58920  Biso   1.000  C
  C538     1.0000 0.11900  0.07800  0.91080  Biso   1.000  C
  C539     1.0000 0.38100  0.57800  0.58920  Biso   1.000  C
  C540     1.0000 0.61900  0.57800  0.91080  Biso   1.000  C
  C541     1.0000 0.11900  0.92200  0.41080  Biso   1.000  C
  C542     1.0000 0.88100  0.92200  0.08920  Biso   1.000  C
  C543     1.0000 0.61900  0.42200  0.41080  Biso   1.000  C
  C544     1.0000 0.38100  0.42200  0.08920  Biso   1.000  C
  H369     1.0000 0.86700  0.05190  0.55520  Biso   1.000  H
  H370     1.0000 0.13300  0.05190  0.94480  Biso   1.000  H
  H371     1.0000 0.36700  0.55190  0.55520  Biso   1.000  H
  H372     1.0000 0.63300  0.55190  0.94480  Biso   1.000  H
  H373     1.0000 0.13300  0.94810  0.44480  Biso   1.000  H
  H374     1.0000 0.86700  0.94810  0.05520  Biso   1.000  H
  H375     1.0000 0.63300  0.44810  0.44480  Biso   1.000  H
  H376     1.0000 0.36700  0.44810  0.05520  Biso   1.000  H
  C545     1.0000 0.02410  0.24670  0.48280  Biso   1.000  C
  C546     1.0000 0.97590  0.24670  0.01720  Biso   1.000  C
  C547     1.0000 0.52410  0.74670  0.48280  Biso   1.000  C
  C548     1.0000 0.47590  0.74670  0.01720  Biso   1.000  C
  C549     1.0000 0.97590  0.75330  0.51720  Biso   1.000  C
  C550     1.0000 0.02410  0.75330  0.98280  Biso   1.000  C
  C551     1.0000 0.47590  0.25330  0.51720  Biso   1.000  C
  C552     1.0000 0.52410  0.25330  0.98280  Biso   1.000  C
  C553     1.0000 0.10890  0.18830  0.05680  Biso   1.000  C
  C554     1.0000 0.89110  0.18830  0.44320  Biso   1.000  C
  C555     1.0000 0.60890  0.68830  0.05680  Biso   1.000  C
  C556     1.0000 0.39110  0.68830  0.44320  Biso   1.000  C
  C557     1.0000 0.89110  0.81170  0.94320  Biso   1.000  C
  C558     1.0000 0.10890  0.81170  0.55680  Biso   1.000  C
  C559     1.0000 0.39110  0.31170  0.94320  Biso   1.000  C
  C560     1.0000 0.60890  0.31170  0.55680  Biso   1.000  C
  H377     1.0000 0.13210  0.18050  0.09950  Biso   1.000  H
  H378     1.0000 0.86790  0.18050  0.40050  Biso   1.000  H
  H379     1.0000 0.63210  0.68050  0.09950  Biso   1.000  H
  H380     1.0000 0.36790  0.68050  0.40050  Biso   1.000  H
  H381     1.0000 0.86790  0.81950  0.90050  Biso   1.000  H
  H382     1.0000 0.13210  0.81950  0.59950  Biso   1.000  H
  H383     1.0000 0.36790  0.31950  0.90050  Biso   1.000  H
  H384     1.0000 0.63210  0.31950  0.59950  Biso   1.000  H
  C561     1.0000 0.26920  0.47620  0.03150  Biso   1.000  C
  C562     1.0000 0.73080  0.47620  0.46850  Biso   1.000  C
  C563     1.0000 0.76920  0.97620  0.03150  Biso   1.000  C
  C564     1.0000 0.23080  0.97620  0.46850  Biso   1.000  C
  C565     1.0000 0.73080  0.52380  0.96850  Biso   1.000  C
  C566     1.0000 0.26920  0.52380  0.53150  Biso   1.000  C
  C567     1.0000 0.23080  0.02380  0.96850  Biso   1.000  C
  C568     1.0000 0.76920  0.02380  0.53150  Biso   1.000  C
  H385     1.0000 0.26440  0.49740  0.06590  Biso   1.000  H
  H386     1.0000 0.73560  0.49740  0.43410  Biso   1.000  H
  H387     1.0000 0.76440  0.99740  0.06590  Biso   1.000  H
  H388     1.0000 0.23560  0.99740  0.43410  Biso   1.000  H
  H389     1.0000 0.73560  0.50260  0.93410  Biso   1.000  H
  H390     1.0000 0.26440  0.50260  0.56590  Biso   1.000  H
  H391     1.0000 0.23560  0.00260  0.93410  Biso   1.000  H
  H392     1.0000 0.76440  0.00260  0.56590  Biso   1.000  H
  H393     1.0000 0.26920  0.49830  0.99340  Biso   1.000  H
  H394     1.0000 0.73080  0.49830  0.50660  Biso   1.000  H
  H395     1.0000 0.76920  0.99830  0.99340  Biso   1.000  H
  H396     1.0000 0.23080  0.99830  0.50660  Biso   1.000  H
  H397     1.0000 0.73080  0.50170  0.00660  Biso   1.000  H
  H398     1.0000 0.26920  0.50170  0.49340  Biso   1.000  H
  H399     1.0000 0.23080  0.00170  0.00660  Biso   1.000  H
  H400     1.0000 0.76920  0.00170  0.49340  Biso   1.000  H
  H401     1.0000 0.29530  0.45880  0.05570  Biso   1.000  H
  H402     1.0000 0.70470  0.45880  0.44430  Biso   1.000  H
  H403     1.0000 0.79530  0.95880  0.05570  Biso   1.000  H
  H404     1.0000 0.20470  0.95880  0.44430  Biso   1.000  H
  H405     1.0000 0.70470  0.54120  0.94430  Biso   1.000  H
  H406     1.0000 0.29530  0.54120  0.55570  Biso   1.000  H
  H407     1.0000 0.20470  0.04120  0.94430  Biso   1.000  H
  H408     1.0000 0.79530  0.04120  0.55570  Biso   1.000  H
  C569     1.0000 0.20950  0.33020  0.23720  Biso   1.000  C
  C570     1.0000 0.79050  0.33020  0.26280  Biso   1.000  C
  C571     1.0000 0.70950  0.83020  0.23720  Biso   1.000  C
  C572     1.0000 0.29050  0.83020  0.26280  Biso   1.000  C
  C573     1.0000 0.79050  0.66980  0.76280  Biso   1.000  C
  C574     1.0000 0.20950  0.66980  0.73720  Biso   1.000  C
  C575     1.0000 0.29050  0.16980  0.76280  Biso   1.000  C
  C576     1.0000 0.70950  0.16980  0.73720  Biso   1.000  C
  H409     1.0000 0.23400  0.30930  0.25870  Biso   1.000  H
  H410     1.0000 0.76600  0.30930  0.24130  Biso   1.000  H
  H411     1.0000 0.73400  0.80930  0.25870  Biso   1.000  H
  H412     1.0000 0.26600  0.80930  0.24130  Biso   1.000  H
  H413     1.0000 0.76600  0.69070  0.74130  Biso   1.000  H
  H414     1.0000 0.23400  0.69070  0.75870  Biso   1.000  H
  H415     1.0000 0.26600  0.19070  0.74130  Biso   1.000  H
  H416     1.0000 0.73400  0.19070  0.75870  Biso   1.000  H
  H417     1.0000 0.19060  0.31880  0.25550  Biso   1.000  H
  H418     1.0000 0.80940  0.31880  0.24450  Biso   1.000  H
  H419     1.0000 0.69060  0.81880  0.25550  Biso   1.000  H
  H420     1.0000 0.30940  0.81880  0.24450  Biso   1.000  H
  H421     1.0000 0.80940  0.68120  0.74450  Biso   1.000  H
  H422     1.0000 0.19060  0.68120  0.75550  Biso   1.000  H
  H423     1.0000 0.30940  0.18120  0.74450  Biso   1.000  H
  H424     1.0000 0.69060  0.18120  0.75550  Biso   1.000  H
  H425     1.0000 0.21620  0.36670  0.24930  Biso   1.000  H
  H426     1.0000 0.78380  0.36670  0.25070  Biso   1.000  H
  H427     1.0000 0.71620  0.86670  0.24930  Biso   1.000  H
  H428     1.0000 0.28380  0.86670  0.25070  Biso   1.000  H
  H429     1.0000 0.78380  0.63330  0.75070  Biso   1.000  H
  H430     1.0000 0.21620  0.63330  0.74930  Biso   1.000  H
  H431     1.0000 0.28380  0.13330  0.75070  Biso   1.000  H
  H432     1.0000 0.71620  0.13330  0.74930  Biso   1.000  H
  O97      1.0000 0.23260  0.27440  0.04140  Biso   1.000  O
  O98      1.0000 0.76740  0.27440  0.45860  Biso   1.000  O
  O99      1.0000 0.73260  0.77440  0.04140  Biso   1.000  O
  O100     1.0000 0.26740  0.77440  0.45860  Biso   1.000  O
  O101     1.0000 0.76740  0.72560  0.95860  Biso   1.000  O
  O102     1.0000 0.23260  0.72560  0.54140  Biso   1.000  O
  O103     1.0000 0.26740  0.22560  0.95860  Biso   1.000  O
  O104     1.0000 0.73260  0.22560  0.54140  Biso   1.000  O
  C577     1.0000 0.26590  0.28780  0.04750  Biso   1.000  C
  C578     1.0000 0.73410  0.28780  0.45250  Biso   1.000  C
  C579     1.0000 0.76590  0.78780  0.04750  Biso   1.000  C
  C580     1.0000 0.23410  0.78780  0.45250  Biso   1.000  C
  C581     1.0000 0.73410  0.71220  0.95250  Biso   1.000  C
  C582     1.0000 0.26590  0.71220  0.54750  Biso   1.000  C
  C583     1.0000 0.23410  0.21220  0.95250  Biso   1.000  C
  C584     1.0000 0.76590  0.21220  0.54750  Biso   1.000  C
  H433     1.0000 0.28610  0.27110  0.09130  Biso   1.000  H
  H434     1.0000 0.71390  0.27110  0.40870  Biso   1.000  H
  H435     1.0000 0.78610  0.77110  0.09130  Biso   1.000  H
  H436     1.0000 0.21390  0.77110  0.40870  Biso   1.000  H
  H437     1.0000 0.71390  0.72890  0.90870  Biso   1.000  H
  H438     1.0000 0.28610  0.72890  0.59130  Biso   1.000  H
  H439     1.0000 0.21390  0.22890  0.90870  Biso   1.000  H
  H440     1.0000 0.78610  0.22890  0.59130  Biso   1.000  H
  H441     1.0000 0.26800  0.32550  0.05670  Biso   1.000  H
  H442     1.0000 0.73200  0.32550  0.44330  Biso   1.000  H
  H443     1.0000 0.76800  0.82550  0.05670  Biso   1.000  H
  H444     1.0000 0.23200  0.82550  0.44330  Biso   1.000  H
  H445     1.0000 0.73200  0.67450  0.94330  Biso   1.000  H
  H446     1.0000 0.26800  0.67450  0.55670  Biso   1.000  H
  H447     1.0000 0.23200  0.17450  0.94330  Biso   1.000  H
  H448     1.0000 0.76800  0.17450  0.55670  Biso   1.000  H
  C585     1.0000 0.22110  0.22120  0.00790  Biso   1.000  C
  C586     1.0000 0.77890  0.22120  0.49210  Biso   1.000  C
  C587     1.0000 0.72110  0.72120  0.00790  Biso   1.000  C
  C588     1.0000 0.27890  0.72120  0.49210  Biso   1.000  C
  C589     1.0000 0.77890  0.77880  0.99210  Biso   1.000  C
  C590     1.0000 0.22110  0.77880  0.50790  Biso   1.000  C
  C591     1.0000 0.27890  0.27880  0.99210  Biso   1.000  C
  C592     1.0000 0.72110  0.27880  0.50790  Biso   1.000  C
  H449     1.0000 0.23320  0.19460  0.04550  Biso   1.000  H
  H450     1.0000 0.76680  0.19460  0.45450  Biso   1.000  H
  H451     1.0000 0.73320  0.69460  0.04550  Biso   1.000  H
  H452     1.0000 0.26680  0.69460  0.45450  Biso   1.000  H
  H453     1.0000 0.76680  0.80540  0.95450  Biso   1.000  H
  H454     1.0000 0.23320  0.80540  0.54550  Biso   1.000  H
  H455     1.0000 0.26680  0.30540  0.95450  Biso   1.000  H
  H456     1.0000 0.73320  0.30540  0.54550  Biso   1.000  H
  H457     1.0000 0.19150  0.21740  0.98720  Biso   1.000  H
  H458     1.0000 0.80850  0.21740  0.51280  Biso   1.000  H
  H459     1.0000 0.69150  0.71740  0.98720  Biso   1.000  H
  H460     1.0000 0.30850  0.71740  0.51280  Biso   1.000  H
  H461     1.0000 0.80850  0.78260  0.01280  Biso   1.000  H
  H462     1.0000 0.19150  0.78260  0.48720  Biso   1.000  H
  H463     1.0000 0.30850  0.28260  0.01280  Biso   1.000  H
  H464     1.0000 0.69150  0.28260  0.48720  Biso   1.000  H
  O105     1.0000 0.01570  0.95710  0.54840  Biso   1.000  O
  O106     1.0000 0.98430  0.95710  0.95160  Biso   1.000  O
  O107     1.0000 0.51570  0.45710  0.54840  Biso   1.000  O
  O108     1.0000 0.48430  0.45710  0.95160  Biso   1.000  O
  O109     1.0000 0.98430  0.04290  0.45160  Biso   1.000  O
  O110     1.0000 0.01570  0.04290  0.04840  Biso   1.000  O
  O111     1.0000 0.48430  0.54290  0.45160  Biso   1.000  O
  O112     1.0000 0.51570  0.54290  0.04840  Biso   1.000  O
  C593     1.0000 0.97570  0.95640  0.49000  Biso   1.000  C
  C594     1.0000 0.02430  0.95640  0.01000  Biso   1.000  C
  C595     1.0000 0.47570  0.45640  0.49000  Biso   1.000  C
  C596     1.0000 0.52430  0.45640  0.01000  Biso   1.000  C
  C597     1.0000 0.02430  0.04360  0.51000  Biso   1.000  C
  C598     1.0000 0.97570  0.04360  0.99000  Biso   1.000  C
  C599     1.0000 0.52430  0.54360  0.51000  Biso   1.000  C
  C600     1.0000 0.47570  0.54360  0.99000  Biso   1.000  C
  H465     1.0000 0.95790  0.93490  0.50330  Biso   1.000  H
  H466     1.0000 0.04210  0.93490  0.99670  Biso   1.000  H
  H467     1.0000 0.45790  0.43490  0.50330  Biso   1.000  H
  H468     1.0000 0.54210  0.43490  0.99670  Biso   1.000  H
  H469     1.0000 0.04210  0.06510  0.49670  Biso   1.000  H
  H470     1.0000 0.95790  0.06510  0.00330  Biso   1.000  H
  H471     1.0000 0.54210  0.56510  0.49670  Biso   1.000  H
  H472     1.0000 0.45790  0.56510  0.00330  Biso   1.000  H
  H473     1.0000 0.97670  0.94040  0.44770  Biso   1.000  H
  H474     1.0000 0.02330  0.94040  0.05230  Biso   1.000  H
  H475     1.0000 0.47670  0.44040  0.44770  Biso   1.000  H
  H476     1.0000 0.52330  0.44040  0.05230  Biso   1.000  H
  H477     1.0000 0.02330  0.05960  0.55230  Biso   1.000  H
  H478     1.0000 0.97670  0.05960  0.94770  Biso   1.000  H
  H479     1.0000 0.52330  0.55960  0.55230  Biso   1.000  H
  H480     1.0000 0.47670  0.55960  0.94770  Biso   1.000  H
  C601     1.0000 0.04180  0.98900  0.52900  Biso   1.000  C
  C602     1.0000 0.95820  0.98900  0.97100  Biso   1.000  C
  C603     1.0000 0.54180  0.48900  0.52900  Biso   1.000  C
  C604     1.0000 0.45820  0.48900  0.97100  Biso   1.000  C
  C605     1.0000 0.95820  0.01100  0.47100  Biso   1.000  C
  C606     1.0000 0.04180  0.01100  0.02900  Biso   1.000  C
  C607     1.0000 0.45820  0.51100  0.47100  Biso   1.000  C
  C608     1.0000 0.54180  0.51100  0.02900  Biso   1.000  C
  H481     1.0000 0.04420  0.97350  0.48770  Biso   1.000  H
  H482     1.0000 0.95580  0.97350  0.01230  Biso   1.000  H
  H483     1.0000 0.54420  0.47350  0.48770  Biso   1.000  H
  H484     1.0000 0.45580  0.47350  0.01230  Biso   1.000  H
  H485     1.0000 0.95580  0.02650  0.51230  Biso   1.000  H
  H486     1.0000 0.04420  0.02650  0.98770  Biso   1.000  H
  H487     1.0000 0.45580  0.52650  0.51230  Biso   1.000  H
  H488     1.0000 0.54420  0.52650  0.98770  Biso   1.000  H
  H489     1.0000 0.06900  0.99070  0.56940  Biso   1.000  H
  H490     1.0000 0.93100  0.99070  0.93060  Biso   1.000  H
  H491     1.0000 0.56900  0.49070  0.56940  Biso   1.000  H
  H492     1.0000 0.43100  0.49070  0.93060  Biso   1.000  H
  H493     1.0000 0.93100  0.00930  0.43060  Biso   1.000  H
  H494     1.0000 0.06900  0.00930  0.06940  Biso   1.000  H
  H495     1.0000 0.43100  0.50930  0.43060  Biso   1.000  H
  H496     1.0000 0.56900  0.50930  0.06940  Biso   1.000  H
  O113     1.0000 0.96210  0.47470  0.45670  Biso   1.000  O
  O114     1.0000 0.03790  0.47470  0.04330  Biso   1.000  O
  O115     1.0000 0.46210  0.97470  0.45670  Biso   1.000  O
  O116     1.0000 0.53790  0.97470  0.04330  Biso   1.000  O
  O117     1.0000 0.03790  0.52530  0.54330  Biso   1.000  O
  O118     1.0000 0.96210  0.52530  0.95670  Biso   1.000  O
  O119     1.0000 0.53790  0.02530  0.54330  Biso   1.000  O
  O120     1.0000 0.46210  0.02530  0.95670  Biso   1.000  O
  C609     1.0000 0.99860  0.44620  0.48660  Biso   1.000  C
  C610     1.0000 0.00140  0.44620  0.01340  Biso   1.000  C
  C611     1.0000 0.49860  0.94620  0.48660  Biso   1.000  C
  C612     1.0000 0.50140  0.94620  0.01340  Biso   1.000  C
  C613     1.0000 0.00140  0.55380  0.51340  Biso   1.000  C
  C614     1.0000 0.99860  0.55380  0.98660  Biso   1.000  C
  C615     1.0000 0.50140  0.05380  0.51340  Biso   1.000  C
  C616     1.0000 0.49860  0.05380  0.98660  Biso   1.000  C
  H497     1.0000 0.99670  0.41680  0.45480  Biso   1.000  H
  H498     1.0000 0.00330  0.41680  0.04520  Biso   1.000  H
  H499     1.0000 0.49670  0.91680  0.45480  Biso   1.000  H
  H500     1.0000 0.50330  0.91680  0.04520  Biso   1.000  H
  H501     1.0000 0.00330  0.58320  0.54520  Biso   1.000  H
  H502     1.0000 0.99670  0.58320  0.95480  Biso   1.000  H
  H503     1.0000 0.50330  0.08320  0.54520  Biso   1.000  H
  H504     1.0000 0.49670  0.08320  0.95480  Biso   1.000  H
  H505     1.0000 0.00270  0.43190  0.53320  Biso   1.000  H
  H506     1.0000 0.99730  0.43190  0.96680  Biso   1.000  H
  H507     1.0000 0.50270  0.93190  0.53320  Biso   1.000  H
  H508     1.0000 0.49730  0.93190  0.96680  Biso   1.000  H
  H509     1.0000 0.99730  0.56810  0.46680  Biso   1.000  H
  H510     1.0000 0.00270  0.56810  0.03320  Biso   1.000  H
  H511     1.0000 0.49730  0.06810  0.46680  Biso   1.000  H
  H512     1.0000 0.50270  0.06810  0.03320  Biso   1.000  H
  C617     1.0000 0.96400  0.51870  0.50280  Biso   1.000  C
  C618     1.0000 0.03600  0.51870  0.99720  Biso   1.000  C
  C619     1.0000 0.46400  0.01870  0.50280  Biso   1.000  C
  C620     1.0000 0.53600  0.01870  0.99720  Biso   1.000  C
  C621     1.0000 0.03600  0.48130  0.49720  Biso   1.000  C
  C622     1.0000 0.96400  0.48130  0.00280  Biso   1.000  C
  C623     1.0000 0.53600  0.98130  0.49720  Biso   1.000  C
  C624     1.0000 0.46400  0.98130  0.00280  Biso   1.000  C
  H513     1.0000 0.96690  0.50600  0.54960  Biso   1.000  H
  H514     1.0000 0.03310  0.50600  0.95040  Biso   1.000  H
  H515     1.0000 0.46690  0.00600  0.54960  Biso   1.000  H
  H516     1.0000 0.53310  0.00600  0.95040  Biso   1.000  H
  H517     1.0000 0.03310  0.49400  0.45040  Biso   1.000  H
  H518     1.0000 0.96690  0.49400  0.04960  Biso   1.000  H
  H519     1.0000 0.53310  0.99400  0.45040  Biso   1.000  H
  H520     1.0000 0.46690  0.99400  0.04960  Biso   1.000  H
  H521     1.0000 0.93890  0.53930  0.48050  Biso   1.000  H
  H522     1.0000 0.06110  0.53930  0.01950  Biso   1.000  H
  H523     1.0000 0.43890  0.03930  0.48050  Biso   1.000  H
  H524     1.0000 0.56110  0.03930  0.01950  Biso   1.000  H
  H525     1.0000 0.06110  0.46070  0.51950  Biso   1.000  H
  H526     1.0000 0.93890  0.46070  0.98050  Biso   1.000  H
  H527     1.0000 0.56110  0.96070  0.51950  Biso   1.000  H
  H528     1.0000 0.43890  0.96070  0.98050  Biso   1.000  H
