data_image0
_cell_length_a       23.7806
_cell_length_b       17.9565
_cell_length_c       42.1757
_cell_angle_alpha    90
_cell_angle_beta     105.348
_cell_angle_gamma    90

_symmetry_space_group_name_H-M    "P 1"
_symmetry_int_tables_number       1

loop_
  _symmetry_equiv_pos_as_xyz
  'x, y, z'

loop_
  _atom_site_label
  _atom_site_occupancy
  _atom_site_fract_x
  _atom_site_fract_y
  _atom_site_fract_z
  _atom_site_thermal_displace_type
  _atom_site_B_iso_or_equiv
  _atom_site_type_symbol
  Cu1      1.0000 0.50000  0.00000  0.00000  Biso   1.000  Cu
  Cu2      1.0000 0.50000  0.00000  0.50000  Biso   1.000  Cu
  Cu3      1.0000 0.00000  0.50000  0.00000  Biso   1.000  Cu
  Cu4      1.0000 0.00000  0.50000  0.50000  Biso   1.000  Cu
  Cu5      1.0000 0.68184  0.96116  0.21253  Biso   1.000  Cu
  Cu6      1.0000 0.31816  0.96116  0.28747  Biso   1.000  Cu
  Cu7      1.0000 0.18184  0.46116  0.21253  Biso   1.000  Cu
  Cu8      1.0000 0.81816  0.46116  0.28747  Biso   1.000  Cu
  Cu9      1.0000 0.31816  0.03884  0.78747  Biso   1.000  Cu
  Cu10     1.0000 0.68184  0.03884  0.71253  Biso   1.000  Cu
  Cu11     1.0000 0.81816  0.53884  0.78747  Biso   1.000  Cu
  Cu12     1.0000 0.18184  0.53884  0.71253  Biso   1.000  Cu
  Cu13     1.0000 0.47743  0.57437  0.14422  Biso   1.000  Cu
  Cu14     1.0000 0.52257  0.57437  0.35578  Biso   1.000  Cu
  Cu15     1.0000 0.97743  0.07437  0.14422  Biso   1.000  Cu
  Cu16     1.0000 0.02257  0.07437  0.35578  Biso   1.000  Cu
  Cu17     1.0000 0.52257  0.42563  0.85578  Biso   1.000  Cu
  Cu18     1.0000 0.47743  0.42563  0.64422  Biso   1.000  Cu
  Cu19     1.0000 0.02257  0.92563  0.85578  Biso   1.000  Cu
  Cu20     1.0000 0.97743  0.92563  0.64422  Biso   1.000  Cu
  Cu21     1.0000 0.77661  0.82246  0.95890  Biso   1.000  Cu
  Cu22     1.0000 0.22339  0.82246  0.54110  Biso   1.000  Cu
  Cu23     1.0000 0.27661  0.32246  0.95890  Biso   1.000  Cu
  Cu24     1.0000 0.72339  0.32246  0.54110  Biso   1.000  Cu
  Cu25     1.0000 0.22339  0.17754  0.04110  Biso   1.000  Cu
  Cu26     1.0000 0.77661  0.17754  0.45890  Biso   1.000  Cu
  Cu27     1.0000 0.72339  0.67754  0.04110  Biso   1.000  Cu
  Cu28     1.0000 0.27661  0.67754  0.45890  Biso   1.000  Cu
  O1       1.0000 0.45877  0.67610  0.15716  Biso   1.000  O
  O2       1.0000 0.54123  0.67610  0.34284  Biso   1.000  O
  O3       1.0000 0.95877  0.17610  0.15716  Biso   1.000  O
  O4       1.0000 0.04123  0.17610  0.34284  Biso   1.000  O
  O5       1.0000 0.54123  0.32390  0.84284  Biso   1.000  O
  O6       1.0000 0.45877  0.32390  0.65716  Biso   1.000  O
  O7       1.0000 0.04123  0.82390  0.84284  Biso   1.000  O
  O8       1.0000 0.95877  0.82390  0.65716  Biso   1.000  O
  O9       1.0000 0.63204  0.02238  0.16230  Biso   1.000  O
  O10      1.0000 0.36796  0.02238  0.33770  Biso   1.000  O
  O11      1.0000 0.13204  0.52238  0.16230  Biso   1.000  O
  O12      1.0000 0.86796  0.52238  0.33770  Biso   1.000  O
  O13      1.0000 0.36796  0.97762  0.83770  Biso   1.000  O
  O14      1.0000 0.63204  0.97762  0.66230  Biso   1.000  O
  O15      1.0000 0.86796  0.47762  0.83770  Biso   1.000  O
  O16      1.0000 0.13204  0.47762  0.66230  Biso   1.000  O
  O17      1.0000 0.73721  0.04341  0.21815  Biso   1.000  O
  O18      1.0000 0.26279  0.04341  0.28185  Biso   1.000  O
  O19      1.0000 0.23721  0.54341  0.21815  Biso   1.000  O
  O20      1.0000 0.76279  0.54341  0.28185  Biso   1.000  O
  O21      1.0000 0.26279  0.95659  0.78185  Biso   1.000  O
  O22      1.0000 0.73721  0.95659  0.71815  Biso   1.000  O
  O23      1.0000 0.76279  0.45659  0.78185  Biso   1.000  O
  O24      1.0000 0.23721  0.45659  0.71815  Biso   1.000  O
  O25      1.0000 0.49279  0.10237  0.01301  Biso   1.000  O
  O26      1.0000 0.50721  0.10237  0.48699  Biso   1.000  O
  O27      1.0000 0.99279  0.60237  0.01301  Biso   1.000  O
  O28      1.0000 0.00721  0.60237  0.48699  Biso   1.000  O
  O29      1.0000 0.50721  0.89763  0.98699  Biso   1.000  O
  O30      1.0000 0.49279  0.89763  0.51301  Biso   1.000  O
  O31      1.0000 0.00721  0.39763  0.98699  Biso   1.000  O
  O32      1.0000 0.99279  0.39763  0.51301  Biso   1.000  O
  F1       1.0000 0.44279  0.82561  0.17250  Biso   1.000  F
  F2       1.0000 0.55721  0.82561  0.32750  Biso   1.000  F
  F3       1.0000 0.94279  0.32561  0.17250  Biso   1.000  F
  F4       1.0000 0.05721  0.32561  0.32750  Biso   1.000  F
  F5       1.0000 0.55721  0.17439  0.82750  Biso   1.000  F
  F6       1.0000 0.44279  0.17439  0.67250  Biso   1.000  F
  F7       1.0000 0.05721  0.67439  0.82750  Biso   1.000  F
  F8       1.0000 0.94279  0.67439  0.67250  Biso   1.000  F
  O33      1.0000 0.49318  0.47479  0.12962  Biso   1.000  O
  O34      1.0000 0.50682  0.47479  0.37038  Biso   1.000  O
  O35      1.0000 0.99318  0.97479  0.12962  Biso   1.000  O
  O36      1.0000 0.00682  0.97479  0.37038  Biso   1.000  O
  O37      1.0000 0.50682  0.52521  0.87038  Biso   1.000  O
  O38      1.0000 0.49318  0.52521  0.62962  Biso   1.000  O
  O39      1.0000 0.00682  0.02521  0.87038  Biso   1.000  O
  O40      1.0000 0.99318  0.02521  0.62962  Biso   1.000  O
  O41      1.0000 0.63337  0.01607  0.23585  Biso   1.000  O
  O42      1.0000 0.36663  0.01607  0.26415  Biso   1.000  O
  O43      1.0000 0.13337  0.51607  0.23585  Biso   1.000  O
  O44      1.0000 0.86663  0.51607  0.26415  Biso   1.000  O
  O45      1.0000 0.36663  0.98393  0.76415  Biso   1.000  O
  O46      1.0000 0.63337  0.98393  0.73585  Biso   1.000  O
  O47      1.0000 0.86663  0.48393  0.76415  Biso   1.000  O
  O48      1.0000 0.13337  0.48393  0.73585  Biso   1.000  O
  O49      1.0000 0.58066  0.01453  0.99843  Biso   1.000  O
  O50      1.0000 0.41934  0.01453  0.50157  Biso   1.000  O
  O51      1.0000 0.08066  0.51453  0.99843  Biso   1.000  O
  O52      1.0000 0.91934  0.51453  0.50157  Biso   1.000  O
  O53      1.0000 0.41934  0.98547  0.00157  Biso   1.000  O
  O54      1.0000 0.58066  0.98547  0.49843  Biso   1.000  O
  O55      1.0000 0.91934  0.48547  0.00157  Biso   1.000  O
  O56      1.0000 0.08066  0.48547  0.49843  Biso   1.000  O
  O57      1.0000 0.52850  0.96347  0.05609  Biso   1.000  O
  O58      1.0000 0.47150  0.96347  0.44391  Biso   1.000  O
  O59      1.0000 0.02850  0.46347  0.05609  Biso   1.000  O
  O60      1.0000 0.97150  0.46347  0.44391  Biso   1.000  O
  O61      1.0000 0.47150  0.03653  0.94391  Biso   1.000  O
  O62      1.0000 0.52850  0.03653  0.55609  Biso   1.000  O
  O63      1.0000 0.97150  0.53653  0.94391  Biso   1.000  O
  O64      1.0000 0.02850  0.53653  0.55609  Biso   1.000  O
  N1       1.0000 0.62655  0.87775  0.20550  Biso   1.000  N
  N2       1.0000 0.37345  0.87775  0.29450  Biso   1.000  N
  N3       1.0000 0.12655  0.37775  0.20550  Biso   1.000  N
  N4       1.0000 0.87345  0.37775  0.29450  Biso   1.000  N
  N5       1.0000 0.37345  0.12225  0.79450  Biso   1.000  N
  N6       1.0000 0.62655  0.12225  0.70550  Biso   1.000  N
  N7       1.0000 0.87345  0.62225  0.79450  Biso   1.000  N
  N8       1.0000 0.12655  0.62225  0.70550  Biso   1.000  N
  O65      1.0000 0.55773  0.60651  0.14928  Biso   1.000  O
  O66      1.0000 0.44227  0.60651  0.35072  Biso   1.000  O
  O67      1.0000 0.05773  0.10651  0.14928  Biso   1.000  O
  O68      1.0000 0.94227  0.10651  0.35072  Biso   1.000  O
  O69      1.0000 0.44227  0.39349  0.85072  Biso   1.000  O
  O70      1.0000 0.55773  0.39349  0.64928  Biso   1.000  O
  O71      1.0000 0.94227  0.89349  0.85072  Biso   1.000  O
  O72      1.0000 0.05773  0.89349  0.64928  Biso   1.000  O
  N9       1.0000 0.89945  0.04143  0.14701  Biso   1.000  N
  N10      1.0000 0.10055  0.04143  0.35299  Biso   1.000  N
  N11      1.0000 0.39945  0.54143  0.14701  Biso   1.000  N
  N12      1.0000 0.60055  0.54143  0.35299  Biso   1.000  N
  N13      1.0000 0.10055  0.95857  0.85299  Biso   1.000  N
  N14      1.0000 0.89945  0.95857  0.64701  Biso   1.000  N
  N15      1.0000 0.60055  0.45857  0.85299  Biso   1.000  N
  N16      1.0000 0.39945  0.45857  0.64701  Biso   1.000  N
  N17      1.0000 0.56734  0.79310  0.21582  Biso   1.000  N
  N18      1.0000 0.43266  0.79310  0.28418  Biso   1.000  N
  N19      1.0000 0.06734  0.29310  0.21582  Biso   1.000  N
  N20      1.0000 0.93266  0.29310  0.28418  Biso   1.000  N
  N21      1.0000 0.43266  0.20690  0.78418  Biso   1.000  N
  N22      1.0000 0.56734  0.20690  0.71582  Biso   1.000  N
  N23      1.0000 0.93266  0.70690  0.78418  Biso   1.000  N
  N24      1.0000 0.06734  0.70690  0.71582  Biso   1.000  N
  O73      1.0000 0.83355  0.77884  0.93760  Biso   1.000  O
  O74      1.0000 0.16645  0.77884  0.56240  Biso   1.000  O
  O75      1.0000 0.33355  0.27884  0.93760  Biso   1.000  O
  O76      1.0000 0.66645  0.27884  0.56240  Biso   1.000  O
  O77      1.0000 0.16645  0.22116  0.06240  Biso   1.000  O
  O78      1.0000 0.83355  0.22116  0.43760  Biso   1.000  O
  O79      1.0000 0.66645  0.72116  0.06240  Biso   1.000  O
  O80      1.0000 0.33355  0.72116  0.43760  Biso   1.000  O
  O81      1.0000 0.52396  0.53329  0.20040  Biso   1.000  O
  O82      1.0000 0.47604  0.53329  0.29960  Biso   1.000  O
  O83      1.0000 0.02396  0.03329  0.20040  Biso   1.000  O
  O84      1.0000 0.97604  0.03329  0.29960  Biso   1.000  O
  O85      1.0000 0.47604  0.46671  0.79960  Biso   1.000  O
  O86      1.0000 0.52396  0.46671  0.70040  Biso   1.000  O
  O87      1.0000 0.97604  0.96671  0.79960  Biso   1.000  O
  O88      1.0000 0.02396  0.96671  0.70040  Biso   1.000  O
  N25      1.0000 0.80849  0.00377  0.13158  Biso   1.000  N
  N26      1.0000 0.19151  0.00377  0.36842  Biso   1.000  N
  N27      1.0000 0.30849  0.50377  0.13158  Biso   1.000  N
  N28      1.0000 0.69151  0.50377  0.36842  Biso   1.000  N
  N29      1.0000 0.19151  0.99623  0.86842  Biso   1.000  N
  N30      1.0000 0.80849  0.99623  0.63158  Biso   1.000  N
  N31      1.0000 0.69151  0.49623  0.86842  Biso   1.000  N
  N32      1.0000 0.30849  0.49623  0.63158  Biso   1.000  N
  O89      1.0000 0.73113  0.90699  0.18989  Biso   1.000  O
  O90      1.0000 0.26887  0.90699  0.31011  Biso   1.000  O
  O91      1.0000 0.23113  0.40699  0.18989  Biso   1.000  O
  O92      1.0000 0.76887  0.40699  0.31011  Biso   1.000  O
  O93      1.0000 0.26887  0.09301  0.81011  Biso   1.000  O
  O94      1.0000 0.73113  0.09301  0.68989  Biso   1.000  O
  O95      1.0000 0.76887  0.59301  0.81011  Biso   1.000  O
  O96      1.0000 0.23113  0.59301  0.68989  Biso   1.000  O
  C1       1.0000 0.53285  0.67576  0.23240  Biso   1.000  C
  C2       1.0000 0.46715  0.67576  0.26760  Biso   1.000  C
  C3       1.0000 0.03285  0.17576  0.23240  Biso   1.000  C
  C4       1.0000 0.96715  0.17576  0.26760  Biso   1.000  C
  C5       1.0000 0.46715  0.32424  0.76760  Biso   1.000  C
  C6       1.0000 0.53285  0.32424  0.73240  Biso   1.000  C
  C7       1.0000 0.96715  0.82424  0.76760  Biso   1.000  C
  C8       1.0000 0.03285  0.82424  0.73240  Biso   1.000  C
  H1       1.0000 0.55460  0.65010  0.22050  Biso   1.000  H
  H2       1.0000 0.44540  0.65010  0.27950  Biso   1.000  H
  H3       1.0000 0.05460  0.15010  0.22050  Biso   1.000  H
  H4       1.0000 0.94540  0.15010  0.27950  Biso   1.000  H
  H5       1.0000 0.44540  0.34990  0.77950  Biso   1.000  H
  H6       1.0000 0.55460  0.34990  0.72050  Biso   1.000  H
  H7       1.0000 0.94540  0.84990  0.77950  Biso   1.000  H
  H8       1.0000 0.05460  0.84990  0.72050  Biso   1.000  H
  N33      1.0000 0.54148  0.98534  0.08613  Biso   1.000  N
  N34      1.0000 0.45852  0.98534  0.41387  Biso   1.000  N
  N35      1.0000 0.04148  0.48534  0.08613  Biso   1.000  N
  N36      1.0000 0.95852  0.48534  0.41387  Biso   1.000  N
  N37      1.0000 0.45852  0.01466  0.91387  Biso   1.000  N
  N38      1.0000 0.54148  0.01466  0.58613  Biso   1.000  N
  N39      1.0000 0.95852  0.51466  0.91387  Biso   1.000  N
  N40      1.0000 0.04148  0.51466  0.58613  Biso   1.000  N
  N41      1.0000 0.72727  0.83767  0.98949  Biso   1.000  N
  N42      1.0000 0.27273  0.83767  0.51051  Biso   1.000  N
  N43      1.0000 0.22727  0.33767  0.98949  Biso   1.000  N
  N44      1.0000 0.77273  0.33767  0.51051  Biso   1.000  N
  N45      1.0000 0.27273  0.16233  0.01051  Biso   1.000  N
  N46      1.0000 0.72727  0.16233  0.48949  Biso   1.000  N
  N47      1.0000 0.77273  0.66233  0.01051  Biso   1.000  N
  N48      1.0000 0.22727  0.66233  0.48949  Biso   1.000  N
  F9       1.0000 0.59750  0.75947  0.85855  Biso   1.000  F
  F10      1.0000 0.40250  0.75947  0.64145  Biso   1.000  F
  F11      1.0000 0.09750  0.25947  0.85855  Biso   1.000  F
  F12      1.0000 0.90250  0.25947  0.64145  Biso   1.000  F
  F13      1.0000 0.40250  0.24053  0.14145  Biso   1.000  F
  F14      1.0000 0.59750  0.24053  0.35855  Biso   1.000  F
  F15      1.0000 0.90250  0.74053  0.14145  Biso   1.000  F
  F16      1.0000 0.09750  0.74053  0.35855  Biso   1.000  F
  N49      1.0000 0.59031  0.00999  0.13663  Biso   1.000  N
  N50      1.0000 0.40969  0.00999  0.36337  Biso   1.000  N
  N51      1.0000 0.09031  0.50999  0.13663  Biso   1.000  N
  N52      1.0000 0.90969  0.50999  0.36337  Biso   1.000  N
  N53      1.0000 0.40969  0.99001  0.86337  Biso   1.000  N
  N54      1.0000 0.59031  0.99001  0.63663  Biso   1.000  N
  N55      1.0000 0.90969  0.49001  0.86337  Biso   1.000  N
  N56      1.0000 0.09031  0.49001  0.63663  Biso   1.000  N
  F17      1.0000 0.46248  0.23915  0.02375  Biso   1.000  F
  F18      1.0000 0.53752  0.23915  0.47625  Biso   1.000  F
  F19      1.0000 0.96248  0.73915  0.02375  Biso   1.000  F
  F20      1.0000 0.03752  0.73915  0.47625  Biso   1.000  F
  F21      1.0000 0.53752  0.76085  0.97625  Biso   1.000  F
  F22      1.0000 0.46248  0.76085  0.52375  Biso   1.000  F
  F23      1.0000 0.03752  0.26085  0.97625  Biso   1.000  F
  F24      1.0000 0.96248  0.26085  0.52375  Biso   1.000  F
  F25      1.0000 0.63959  0.67313  0.89130  Biso   1.000  F
  F26      1.0000 0.36041  0.67313  0.60870  Biso   1.000  F
  F27      1.0000 0.13959  0.17313  0.89130  Biso   1.000  F
  F28      1.0000 0.86041  0.17313  0.60870  Biso   1.000  F
  F29      1.0000 0.36041  0.32687  0.10870  Biso   1.000  F
  F30      1.0000 0.63959  0.32687  0.39130  Biso   1.000  F
  F31      1.0000 0.86041  0.82687  0.10870  Biso   1.000  F
  F32      1.0000 0.13959  0.82687  0.39130  Biso   1.000  F
  N57      1.0000 0.69916  0.87866  0.03210  Biso   1.000  N
  N58      1.0000 0.30084  0.87866  0.46790  Biso   1.000  N
  N59      1.0000 0.19916  0.37866  0.03210  Biso   1.000  N
  N60      1.0000 0.80084  0.37866  0.46790  Biso   1.000  N
  N61      1.0000 0.30084  0.12134  0.96790  Biso   1.000  N
  N62      1.0000 0.69916  0.12134  0.53210  Biso   1.000  N
  N63      1.0000 0.80084  0.62134  0.96790  Biso   1.000  N
  N64      1.0000 0.19916  0.62134  0.53210  Biso   1.000  N
  C9       1.0000 0.75398  0.93670  0.08311  Biso   1.000  C
  C10      1.0000 0.24602  0.93670  0.41689  Biso   1.000  C
  C11      1.0000 0.25398  0.43670  0.08311  Biso   1.000  C
  C12      1.0000 0.74602  0.43670  0.41689  Biso   1.000  C
  C13      1.0000 0.24602  0.06330  0.91689  Biso   1.000  C
  C14      1.0000 0.75398  0.06330  0.58311  Biso   1.000  C
  C15      1.0000 0.74602  0.56330  0.91689  Biso   1.000  C
  C16      1.0000 0.25398  0.56330  0.58311  Biso   1.000  C
  H9       1.0000 0.78880  0.92330  0.07850  Biso   1.000  H
  H10      1.0000 0.21120  0.92330  0.42150  Biso   1.000  H
  H11      1.0000 0.28880  0.42330  0.07850  Biso   1.000  H
  H12      1.0000 0.71120  0.42330  0.42150  Biso   1.000  H
  H13      1.0000 0.21120  0.07670  0.92150  Biso   1.000  H
  H14      1.0000 0.78880  0.07670  0.57850  Biso   1.000  H
  H15      1.0000 0.71120  0.57670  0.92150  Biso   1.000  H
  H16      1.0000 0.28880  0.57670  0.57850  Biso   1.000  H
  C17      1.0000 0.70089  0.91580  0.06223  Biso   1.000  C
  C18      1.0000 0.29911  0.91580  0.43777  Biso   1.000  C
  C19      1.0000 0.20089  0.41580  0.06223  Biso   1.000  C
  C20      1.0000 0.79911  0.41580  0.43777  Biso   1.000  C
  C21      1.0000 0.29911  0.08420  0.93777  Biso   1.000  C
  C22      1.0000 0.70089  0.08420  0.56223  Biso   1.000  C
  C23      1.0000 0.79911  0.58420  0.93777  Biso   1.000  C
  C24      1.0000 0.20089  0.58420  0.56223  Biso   1.000  C
  F33      1.0000 0.38582  0.74771  0.18700  Biso   1.000  F
  F34      1.0000 0.61418  0.74771  0.31300  Biso   1.000  F
  F35      1.0000 0.88582  0.24771  0.18700  Biso   1.000  F
  F36      1.0000 0.11418  0.24771  0.31300  Biso   1.000  F
  F37      1.0000 0.61418  0.25229  0.81300  Biso   1.000  F
  F38      1.0000 0.38582  0.25229  0.68700  Biso   1.000  F
  F39      1.0000 0.11418  0.75229  0.81300  Biso   1.000  F
  F40      1.0000 0.88582  0.75229  0.68700  Biso   1.000  F
  C25      1.0000 0.75437  0.97787  0.11092  Biso   1.000  C
  C26      1.0000 0.24563  0.97787  0.38908  Biso   1.000  C
  C27      1.0000 0.25437  0.47787  0.11092  Biso   1.000  C
  C28      1.0000 0.74563  0.47787  0.38908  Biso   1.000  C
  C29      1.0000 0.24563  0.02213  0.88908  Biso   1.000  C
  C30      1.0000 0.75437  0.02213  0.61092  Biso   1.000  C
  C31      1.0000 0.74563  0.52213  0.88908  Biso   1.000  C
  C32      1.0000 0.25437  0.52213  0.61092  Biso   1.000  C
  C33      1.0000 0.64904  0.93240  0.06981  Biso   1.000  C
  C34      1.0000 0.35096  0.93240  0.43019  Biso   1.000  C
  C35      1.0000 0.14904  0.43240  0.06981  Biso   1.000  C
  C36      1.0000 0.85096  0.43240  0.43019  Biso   1.000  C
  C37      1.0000 0.35096  0.06760  0.93019  Biso   1.000  C
  C38      1.0000 0.64904  0.06760  0.56981  Biso   1.000  C
  C39      1.0000 0.85096  0.56760  0.93019  Biso   1.000  C
  C40      1.0000 0.14904  0.56760  0.56981  Biso   1.000  C
  H17      1.0000 0.61370  0.91750  0.05580  Biso   1.000  H
  H18      1.0000 0.38630  0.91750  0.44420  Biso   1.000  H
  H19      1.0000 0.11370  0.41750  0.05580  Biso   1.000  H
  H20      1.0000 0.88630  0.41750  0.44420  Biso   1.000  H
  H21      1.0000 0.38630  0.08250  0.94420  Biso   1.000  H
  H22      1.0000 0.61370  0.08250  0.55580  Biso   1.000  H
  H23      1.0000 0.88630  0.58250  0.94420  Biso   1.000  H
  H24      1.0000 0.11370  0.58250  0.55580  Biso   1.000  H
  C41      1.0000 0.50000  0.55520  0.25000  Biso   1.000  C
  C42      1.0000 0.00000  0.05520  0.25000  Biso   1.000  C
  C43      1.0000 0.50000  0.44480  0.75000  Biso   1.000  C
  C44      1.0000 0.00000  0.94480  0.75000  Biso   1.000  C
  O97      1.0000 0.44148  0.61123  0.09177  Biso   1.000  O
  O98      1.0000 0.55852  0.61123  0.40823  Biso   1.000  O
  O99      1.0000 0.94148  0.11123  0.09177  Biso   1.000  O
  O100     1.0000 0.05852  0.11123  0.40823  Biso   1.000  O
  O101     1.0000 0.55852  0.38877  0.90823  Biso   1.000  O
  O102     1.0000 0.44148  0.38877  0.59177  Biso   1.000  O
  O103     1.0000 0.05852  0.88877  0.90823  Biso   1.000  O
  O104     1.0000 0.94148  0.88877  0.59177  Biso   1.000  O
  O105     1.0000 0.83816  0.87513  0.99009  Biso   1.000  O
  O106     1.0000 0.16184  0.87513  0.50991  Biso   1.000  O
  O107     1.0000 0.33816  0.37513  0.99009  Biso   1.000  O
  O108     1.0000 0.66184  0.37513  0.50991  Biso   1.000  O
  O109     1.0000 0.16184  0.12487  0.00991  Biso   1.000  O
  O110     1.0000 0.83816  0.12487  0.49009  Biso   1.000  O
  O111     1.0000 0.66184  0.62487  0.00991  Biso   1.000  O
  O112     1.0000 0.33816  0.62487  0.49009  Biso   1.000  O
  F41      1.0000 0.58756  0.75508  0.90754  Biso   1.000  F
  F42      1.0000 0.41244  0.75508  0.59246  Biso   1.000  F
  F43      1.0000 0.08756  0.25508  0.90754  Biso   1.000  F
  F44      1.0000 0.91244  0.25508  0.59246  Biso   1.000  F
  F45      1.0000 0.41244  0.24492  0.09246  Biso   1.000  F
  F46      1.0000 0.58756  0.24492  0.40754  Biso   1.000  F
  F47      1.0000 0.91244  0.74492  0.09246  Biso   1.000  F
  F48      1.0000 0.08756  0.74492  0.40754  Biso   1.000  F
  C45      1.0000 0.53258  0.75282  0.23288  Biso   1.000  C
  C46      1.0000 0.46742  0.75282  0.26712  Biso   1.000  C
  C47      1.0000 0.03258  0.25282  0.23288  Biso   1.000  C
  C48      1.0000 0.96742  0.25282  0.26712  Biso   1.000  C
  C49      1.0000 0.46742  0.24718  0.76712  Biso   1.000  C
  C50      1.0000 0.53258  0.24718  0.73288  Biso   1.000  C
  C51      1.0000 0.96742  0.74718  0.76712  Biso   1.000  C
  C52      1.0000 0.03258  0.74718  0.73288  Biso   1.000  C
  C53      1.0000 0.65015  0.97160  0.09845  Biso   1.000  C
  C54      1.0000 0.34985  0.97160  0.40155  Biso   1.000  C
  C55      1.0000 0.15015  0.47160  0.09845  Biso   1.000  C
  C56      1.0000 0.84985  0.47160  0.40155  Biso   1.000  C
  C57      1.0000 0.34985  0.02840  0.90155  Biso   1.000  C
  C58      1.0000 0.65015  0.02840  0.59845  Biso   1.000  C
  C59      1.0000 0.84985  0.52840  0.90155  Biso   1.000  C
  C60      1.0000 0.15015  0.52840  0.59845  Biso   1.000  C
  O113     1.0000 0.75944  0.91960  0.92698  Biso   1.000  O
  O114     1.0000 0.24056  0.91960  0.57302  Biso   1.000  O
  O115     1.0000 0.25944  0.41960  0.92698  Biso   1.000  O
  O116     1.0000 0.74056  0.41960  0.57302  Biso   1.000  O
  O117     1.0000 0.24056  0.08040  0.07302  Biso   1.000  O
  O118     1.0000 0.75944  0.08040  0.42698  Biso   1.000  O
  O119     1.0000 0.74056  0.58040  0.07302  Biso   1.000  O
  O120     1.0000 0.25944  0.58040  0.42698  Biso   1.000  O
  O121     1.0000 0.71359  0.76824  0.92869  Biso   1.000  O
  O122     1.0000 0.28641  0.76824  0.57131  Biso   1.000  O
  O123     1.0000 0.21359  0.26824  0.92869  Biso   1.000  O
  O124     1.0000 0.78641  0.26824  0.57131  Biso   1.000  O
  O125     1.0000 0.28641  0.23176  0.07131  Biso   1.000  O
  O126     1.0000 0.71359  0.23176  0.42869  Biso   1.000  O
  O127     1.0000 0.78641  0.73176  0.07131  Biso   1.000  O
  O128     1.0000 0.21359  0.73176  0.42869  Biso   1.000  O
  N65      1.0000 0.51095  0.51162  0.22640  Biso   1.000  N
  N66      1.0000 0.48905  0.51162  0.27360  Biso   1.000  N
  N67      1.0000 0.01095  0.01162  0.22640  Biso   1.000  N
  N68      1.0000 0.98905  0.01162  0.27360  Biso   1.000  N
  N69      1.0000 0.48905  0.48838  0.77360  Biso   1.000  N
  N70      1.0000 0.51095  0.48838  0.72640  Biso   1.000  N
  N71      1.0000 0.98905  0.98838  0.77360  Biso   1.000  N
  N72      1.0000 0.01095  0.98838  0.72640  Biso   1.000  N
  C61      1.0000 0.57721  0.77500  0.18575  Biso   1.000  C
  C62      1.0000 0.42279  0.77500  0.31425  Biso   1.000  C
  C63      1.0000 0.07721  0.27500  0.18575  Biso   1.000  C
  C64      1.0000 0.92279  0.27500  0.31425  Biso   1.000  C
  C65      1.0000 0.42279  0.22500  0.81425  Biso   1.000  C
  C66      1.0000 0.57721  0.22500  0.68575  Biso   1.000  C
  C67      1.0000 0.92279  0.72500  0.81425  Biso   1.000  C
  C68      1.0000 0.07721  0.72500  0.68575  Biso   1.000  C
  H25      1.0000 0.56200  0.73460  0.17240  Biso   1.000  H
  H26      1.0000 0.43800  0.73460  0.32760  Biso   1.000  H
  H27      1.0000 0.06200  0.23460  0.17240  Biso   1.000  H
  H28      1.0000 0.93800  0.23460  0.32760  Biso   1.000  H
  H29      1.0000 0.43800  0.26540  0.82760  Biso   1.000  H
  H30      1.0000 0.56200  0.26540  0.67240  Biso   1.000  H
  H31      1.0000 0.93800  0.76540  0.82760  Biso   1.000  H
  H32      1.0000 0.06200  0.76540  0.67240  Biso   1.000  H
  F49      1.0000 0.67130  0.61269  0.12188  Biso   1.000  F
  F50      1.0000 0.32870  0.61269  0.37812  Biso   1.000  F
  F51      1.0000 0.17130  0.11269  0.12188  Biso   1.000  F
  F52      1.0000 0.82870  0.11269  0.37812  Biso   1.000  F
  F53      1.0000 0.32870  0.38731  0.87812  Biso   1.000  F
  F54      1.0000 0.67130  0.38731  0.62188  Biso   1.000  F
  F55      1.0000 0.82870  0.88731  0.87812  Biso   1.000  F
  F56      1.0000 0.17130  0.88731  0.62188  Biso   1.000  F
  C69      1.0000 0.70329  0.99580  0.11901  Biso   1.000  C
  C70      1.0000 0.29671  0.99580  0.38099  Biso   1.000  C
  C71      1.0000 0.20329  0.49580  0.11901  Biso   1.000  C
  C72      1.0000 0.79671  0.49580  0.38099  Biso   1.000  C
  C73      1.0000 0.29671  0.00420  0.88099  Biso   1.000  C
  C74      1.0000 0.70329  0.00420  0.61901  Biso   1.000  C
  C75      1.0000 0.79671  0.50420  0.88099  Biso   1.000  C
  C76      1.0000 0.20329  0.50420  0.61901  Biso   1.000  C
  H33      1.0000 0.70430  0.02340  0.13780  Biso   1.000  H
  H34      1.0000 0.29570  0.02340  0.36220  Biso   1.000  H
  H35      1.0000 0.20430  0.52340  0.13780  Biso   1.000  H
  H36      1.0000 0.79570  0.52340  0.36220  Biso   1.000  H
  H37      1.0000 0.29570  0.97660  0.86220  Biso   1.000  H
  H38      1.0000 0.70430  0.97660  0.63780  Biso   1.000  H
  H39      1.0000 0.79570  0.47660  0.86220  Biso   1.000  H
  H40      1.0000 0.20430  0.47660  0.63780  Biso   1.000  H
  F57      1.0000 0.69880  0.56192  0.16885  Biso   1.000  F
  F58      1.0000 0.30120  0.56192  0.33115  Biso   1.000  F
  F59      1.0000 0.19880  0.06192  0.16885  Biso   1.000  F
  F60      1.0000 0.80120  0.06192  0.33115  Biso   1.000  F
  F61      1.0000 0.30120  0.43808  0.83115  Biso   1.000  F
  F62      1.0000 0.69880  0.43808  0.66885  Biso   1.000  F
  F63      1.0000 0.80120  0.93808  0.83115  Biso   1.000  F
  F64      1.0000 0.19880  0.93808  0.66885  Biso   1.000  F
  C77      1.0000 0.50000  0.63710  0.25000  Biso   1.000  C
  C78      1.0000 0.00000  0.13710  0.25000  Biso   1.000  C
  C79      1.0000 0.50000  0.36290  0.75000  Biso   1.000  C
  C80      1.0000 0.00000  0.86290  0.75000  Biso   1.000  C
  C81      1.0000 0.49395  0.99650  0.10329  Biso   1.000  C
  C82      1.0000 0.50605  0.99650  0.39671  Biso   1.000  C
  C83      1.0000 0.99395  0.49650  0.10329  Biso   1.000  C
  C84      1.0000 0.00605  0.49650  0.39671  Biso   1.000  C
  C85      1.0000 0.50605  0.00350  0.89671  Biso   1.000  C
  C86      1.0000 0.49395  0.00350  0.60329  Biso   1.000  C
  C87      1.0000 0.00605  0.50350  0.89671  Biso   1.000  C
  C88      1.0000 0.99395  0.50350  0.60329  Biso   1.000  C
  C89      1.0000 0.50000  0.79250  0.25000  Biso   1.000  C
  C90      1.0000 0.00000  0.29250  0.25000  Biso   1.000  C
  C91      1.0000 0.50000  0.20750  0.75000  Biso   1.000  C
  C92      1.0000 0.00000  0.70750  0.75000  Biso   1.000  C
  H41      1.0000 0.50000  0.84420  0.25000  Biso   1.000  H
  H42      1.0000 0.00000  0.34420  0.25000  Biso   1.000  H
  H43      1.0000 0.50000  0.15580  0.75000  Biso   1.000  H
  H44      1.0000 0.00000  0.65580  0.75000  Biso   1.000  H
  F65      1.0000 0.80281  0.19394  0.26482  Biso   1.000  F
  F66      1.0000 0.19719  0.19394  0.23518  Biso   1.000  F
  F67      1.0000 0.30281  0.69394  0.26482  Biso   1.000  F
  F68      1.0000 0.69719  0.69394  0.23518  Biso   1.000  F
  F69      1.0000 0.19719  0.80606  0.73518  Biso   1.000  F
  F70      1.0000 0.80281  0.80606  0.76482  Biso   1.000  F
  F71      1.0000 0.69719  0.30606  0.73518  Biso   1.000  F
  F72      1.0000 0.30281  0.30606  0.76482  Biso   1.000  F
  O129     1.0000 0.73477  0.91417  0.26092  Biso   1.000  O
  O130     1.0000 0.26523  0.91417  0.23908  Biso   1.000  O
  O131     1.0000 0.23477  0.41417  0.26092  Biso   1.000  O
  O132     1.0000 0.76523  0.41417  0.23908  Biso   1.000  O
  O133     1.0000 0.26523  0.08583  0.73908  Biso   1.000  O
  O134     1.0000 0.73477  0.08583  0.76092  Biso   1.000  O
  O135     1.0000 0.76523  0.58583  0.73908  Biso   1.000  O
  O136     1.0000 0.23477  0.58583  0.76092  Biso   1.000  O
  C93      1.0000 0.60640  0.07650  0.00235  Biso   1.000  C
  C94      1.0000 0.39360  0.07650  0.49765  Biso   1.000  C
  C95      1.0000 0.10640  0.57650  0.00235  Biso   1.000  C
  C96      1.0000 0.89360  0.57650  0.49765  Biso   1.000  C
  C97      1.0000 0.39360  0.92350  0.99765  Biso   1.000  C
  C98      1.0000 0.60640  0.92350  0.50235  Biso   1.000  C
  C99      1.0000 0.89360  0.42350  0.99765  Biso   1.000  C
  C100     1.0000 0.10640  0.42350  0.50235  Biso   1.000  C
  C101     1.0000 0.67858  0.79530  0.90321  Biso   1.000  C
  C102     1.0000 0.32142  0.79530  0.59679  Biso   1.000  C
  C103     1.0000 0.17858  0.29530  0.90321  Biso   1.000  C
  C104     1.0000 0.82142  0.29530  0.59679  Biso   1.000  C
  C105     1.0000 0.32142  0.20470  0.09679  Biso   1.000  C
  C106     1.0000 0.67858  0.20470  0.40321  Biso   1.000  C
  C107     1.0000 0.82142  0.70470  0.09679  Biso   1.000  C
  C108     1.0000 0.17858  0.70470  0.40321  Biso   1.000  C
  C109     1.0000 0.41822  0.71640  0.14014  Biso   1.000  C
  C110     1.0000 0.58178  0.71640  0.35986  Biso   1.000  C
  C111     1.0000 0.91822  0.21640  0.14014  Biso   1.000  C
  C112     1.0000 0.08178  0.21640  0.35986  Biso   1.000  C
  C113     1.0000 0.58178  0.28360  0.85986  Biso   1.000  C
  C114     1.0000 0.41822  0.28360  0.64014  Biso   1.000  C
  C115     1.0000 0.08178  0.78360  0.85986  Biso   1.000  C
  C116     1.0000 0.91822  0.78360  0.64014  Biso   1.000  C
  C117     1.0000 0.59838  0.85520  0.22678  Biso   1.000  C
  C118     1.0000 0.40162  0.85520  0.27322  Biso   1.000  C
  C119     1.0000 0.09838  0.35520  0.22678  Biso   1.000  C
  C120     1.0000 0.90162  0.35520  0.27322  Biso   1.000  C
  C121     1.0000 0.40162  0.14480  0.77322  Biso   1.000  C
  C122     1.0000 0.59838  0.14480  0.72678  Biso   1.000  C
  C123     1.0000 0.90162  0.64480  0.77322  Biso   1.000  C
  C124     1.0000 0.09838  0.64480  0.72678  Biso   1.000  C
  H45      1.0000 0.59970  0.87880  0.24660  Biso   1.000  H
  H46      1.0000 0.40030  0.87880  0.25340  Biso   1.000  H
  H47      1.0000 0.09970  0.37880  0.24660  Biso   1.000  H
  H48      1.0000 0.90030  0.37880  0.25340  Biso   1.000  H
  H49      1.0000 0.40030  0.12120  0.75340  Biso   1.000  H
  H50      1.0000 0.59970  0.12120  0.74660  Biso   1.000  H
  H51      1.0000 0.90030  0.62120  0.75340  Biso   1.000  H
  H52      1.0000 0.09970  0.62120  0.74660  Biso   1.000  H
  F73      1.0000 0.35374  0.81673  0.14426  Biso   1.000  F
  F74      1.0000 0.64626  0.81673  0.35574  Biso   1.000  F
  F75      1.0000 0.85374  0.31673  0.14426  Biso   1.000  F
  F76      1.0000 0.14626  0.31673  0.35574  Biso   1.000  F
  F77      1.0000 0.64626  0.18327  0.85574  Biso   1.000  F
  F78      1.0000 0.35374  0.18327  0.64426  Biso   1.000  F
  F79      1.0000 0.14626  0.68327  0.85574  Biso   1.000  F
  F80      1.0000 0.85374  0.68327  0.64426  Biso   1.000  F
  F81      1.0000 0.95393  0.70803  0.94277  Biso   1.000  F
  F82      1.0000 0.04607  0.70803  0.55723  Biso   1.000  F
  F83      1.0000 0.45393  0.20803  0.94277  Biso   1.000  F
  F84      1.0000 0.54607  0.20803  0.55723  Biso   1.000  F
  F85      1.0000 0.04607  0.29197  0.05723  Biso   1.000  F
  F86      1.0000 0.95393  0.29197  0.44277  Biso   1.000  F
  F87      1.0000 0.54607  0.79197  0.05723  Biso   1.000  F
  F88      1.0000 0.45393  0.79197  0.44277  Biso   1.000  F
  F89      1.0000 0.95683  0.80254  0.91225  Biso   1.000  F
  F90      1.0000 0.04317  0.80254  0.58775  Biso   1.000  F
  F91      1.0000 0.45683  0.30254  0.91225  Biso   1.000  F
  F92      1.0000 0.54317  0.30254  0.58775  Biso   1.000  F
  F93      1.0000 0.04317  0.19746  0.08775  Biso   1.000  F
  F94      1.0000 0.95683  0.19746  0.41225  Biso   1.000  F
  F95      1.0000 0.54317  0.69746  0.08775  Biso   1.000  F
  F96      1.0000 0.45683  0.69746  0.41225  Biso   1.000  F
  C125     1.0000 0.59533  0.98840  0.10688  Biso   1.000  C
  C126     1.0000 0.40467  0.98840  0.39312  Biso   1.000  C
  C127     1.0000 0.09533  0.48840  0.10688  Biso   1.000  C
  C128     1.0000 0.90467  0.48840  0.39312  Biso   1.000  C
  C129     1.0000 0.40467  0.01160  0.89312  Biso   1.000  C
  C130     1.0000 0.59533  0.01160  0.60688  Biso   1.000  C
  C131     1.0000 0.90467  0.51160  0.89312  Biso   1.000  C
  C132     1.0000 0.09533  0.51160  0.60688  Biso   1.000  C
  F97      1.0000 0.88838  0.72224  0.89775  Biso   1.000  F
  F98      1.0000 0.11162  0.72224  0.60225  Biso   1.000  F
  F99      1.0000 0.38838  0.22224  0.89775  Biso   1.000  F
  F100     1.0000 0.61162  0.22224  0.60225  Biso   1.000  F
  F101     1.0000 0.11162  0.27776  0.10225  Biso   1.000  F
  F102     1.0000 0.88838  0.27776  0.39775  Biso   1.000  F
  F103     1.0000 0.61162  0.77776  0.10225  Biso   1.000  F
  F104     1.0000 0.38838  0.77776  0.39775  Biso   1.000  F
  C133     1.0000 0.61344  0.82780  0.17982  Biso   1.000  C
  C134     1.0000 0.38656  0.82780  0.32018  Biso   1.000  C
  C135     1.0000 0.11344  0.32780  0.17982  Biso   1.000  C
  C136     1.0000 0.88656  0.32780  0.32018  Biso   1.000  C
  C137     1.0000 0.38656  0.17220  0.82018  Biso   1.000  C
  C138     1.0000 0.61344  0.17220  0.67982  Biso   1.000  C
  C139     1.0000 0.88656  0.67220  0.82018  Biso   1.000  C
  C140     1.0000 0.11344  0.67220  0.67982  Biso   1.000  C
  H53      1.0000 0.62740  0.83020  0.16120  Biso   1.000  H
  H54      1.0000 0.37260  0.83020  0.33880  Biso   1.000  H
  H55      1.0000 0.12740  0.33020  0.16120  Biso   1.000  H
  H56      1.0000 0.87260  0.33020  0.33880  Biso   1.000  H
  H57      1.0000 0.37260  0.16980  0.83880  Biso   1.000  H
  H58      1.0000 0.62740  0.16980  0.66120  Biso   1.000  H
  H59      1.0000 0.87260  0.66980  0.83880  Biso   1.000  H
  H60      1.0000 0.12740  0.66980  0.66120  Biso   1.000  H
  C141     1.0000 0.39911  0.77720  0.16076  Biso   1.000  C
  C142     1.0000 0.60089  0.77720  0.33924  Biso   1.000  C
  C143     1.0000 0.89911  0.27720  0.16076  Biso   1.000  C
  C144     1.0000 0.10089  0.27720  0.33924  Biso   1.000  C
  C145     1.0000 0.60089  0.22280  0.83924  Biso   1.000  C
  C146     1.0000 0.39911  0.22280  0.66076  Biso   1.000  C
  C147     1.0000 0.10089  0.72280  0.83924  Biso   1.000  C
  C148     1.0000 0.89911  0.72280  0.66076  Biso   1.000  C
  F105     1.0000 0.54653  0.28102  0.02516  Biso   1.000  F
  F106     1.0000 0.45347  0.28102  0.47484  Biso   1.000  F
  F107     1.0000 0.04653  0.78102  0.02516  Biso   1.000  F
  F108     1.0000 0.95347  0.78102  0.47484  Biso   1.000  F
  F109     1.0000 0.45347  0.71898  0.97484  Biso   1.000  F
  F110     1.0000 0.54653  0.71898  0.52516  Biso   1.000  F
  F111     1.0000 0.95347  0.21898  0.97484  Biso   1.000  F
  F112     1.0000 0.04653  0.21898  0.52516  Biso   1.000  F
  C149     1.0000 0.53284  0.15030  0.01711  Biso   1.000  C
  C150     1.0000 0.46716  0.15030  0.48289  Biso   1.000  C
  C151     1.0000 0.03284  0.65030  0.01711  Biso   1.000  C
  C152     1.0000 0.96716  0.65030  0.48289  Biso   1.000  C
  C153     1.0000 0.46716  0.84970  0.98289  Biso   1.000  C
  C154     1.0000 0.53284  0.84970  0.51711  Biso   1.000  C
  C155     1.0000 0.96716  0.34970  0.98289  Biso   1.000  C
  C156     1.0000 0.03284  0.34970  0.51711  Biso   1.000  C
  C157     1.0000 0.88495  0.80190  0.94224  Biso   1.000  C
  C158     1.0000 0.11505  0.80190  0.55776  Biso   1.000  C
  C159     1.0000 0.38495  0.30190  0.94224  Biso   1.000  C
  C160     1.0000 0.61505  0.30190  0.55776  Biso   1.000  C
  C161     1.0000 0.11505  0.19810  0.05776  Biso   1.000  C
  C162     1.0000 0.88495  0.19810  0.44224  Biso   1.000  C
  C163     1.0000 0.61505  0.69810  0.05776  Biso   1.000  C
  C164     1.0000 0.38495  0.69810  0.44224  Biso   1.000  C
  F113     1.0000 0.65906  0.66862  0.16392  Biso   1.000  F
  F114     1.0000 0.34094  0.66862  0.33608  Biso   1.000  F
  F115     1.0000 0.15906  0.16862  0.16392  Biso   1.000  F
  F116     1.0000 0.84094  0.16862  0.33608  Biso   1.000  F
  F117     1.0000 0.34094  0.33138  0.83608  Biso   1.000  F
  F118     1.0000 0.65906  0.33138  0.66392  Biso   1.000  F
  F119     1.0000 0.84094  0.83138  0.83608  Biso   1.000  F
  F120     1.0000 0.15906  0.83138  0.66392  Biso   1.000  F
  C165     1.0000 0.67921  0.86400  0.88825  Biso   1.000  C
  C166     1.0000 0.32079  0.86400  0.61175  Biso   1.000  C
  C167     1.0000 0.17921  0.36400  0.88825  Biso   1.000  C
  C168     1.0000 0.82079  0.36400  0.61175  Biso   1.000  C
  C169     1.0000 0.32079  0.13600  0.11175  Biso   1.000  C
  C170     1.0000 0.67921  0.13600  0.38825  Biso   1.000  C
  C171     1.0000 0.82079  0.63600  0.11175  Biso   1.000  C
  C172     1.0000 0.17921  0.63600  0.38825  Biso   1.000  C
  H61      1.0000 0.65210  0.87300  0.86830  Biso   1.000  H
  H62      1.0000 0.34790  0.87300  0.63170  Biso   1.000  H
  H63      1.0000 0.15210  0.37300  0.86830  Biso   1.000  H
  H64      1.0000 0.84790  0.37300  0.63170  Biso   1.000  H
  H65      1.0000 0.34790  0.12700  0.13170  Biso   1.000  H
  H66      1.0000 0.65210  0.12700  0.36830  Biso   1.000  H
  H67      1.0000 0.84790  0.62700  0.13170  Biso   1.000  H
  H68      1.0000 0.15210  0.62700  0.36830  Biso   1.000  H
  C173     1.0000 0.85931  0.01120  0.12308  Biso   1.000  C
  C174     1.0000 0.14069  0.01120  0.37692  Biso   1.000  C
  C175     1.0000 0.35931  0.51120  0.12308  Biso   1.000  C
  C176     1.0000 0.64069  0.51120  0.37692  Biso   1.000  C
  C177     1.0000 0.14069  0.98880  0.87692  Biso   1.000  C
  C178     1.0000 0.85931  0.98880  0.62308  Biso   1.000  C
  C179     1.0000 0.64069  0.48880  0.87692  Biso   1.000  C
  C180     1.0000 0.35931  0.48880  0.62308  Biso   1.000  C
  H69      1.0000 0.86490  0.99680  0.10300  Biso   1.000  H
  H70      1.0000 0.13510  0.99680  0.39700  Biso   1.000  H
  H71      1.0000 0.36490  0.49680  0.10300  Biso   1.000  H
  H72      1.0000 0.63510  0.49680  0.39700  Biso   1.000  H
  H73      1.0000 0.13510  0.00320  0.89700  Biso   1.000  H
  H74      1.0000 0.86490  0.00320  0.60300  Biso   1.000  H
  H75      1.0000 0.63510  0.50320  0.89700  Biso   1.000  H
  H76      1.0000 0.36490  0.50320  0.60300  Biso   1.000  H
  C181     1.0000 0.65178  0.06970  0.25458  Biso   1.000  C
  C182     1.0000 0.34822  0.06970  0.24542  Biso   1.000  C
  C183     1.0000 0.15178  0.56970  0.25458  Biso   1.000  C
  C184     1.0000 0.84822  0.56970  0.24542  Biso   1.000  C
  C185     1.0000 0.34822  0.93030  0.74542  Biso   1.000  C
  C186     1.0000 0.65178  0.93030  0.75458  Biso   1.000  C
  C187     1.0000 0.84822  0.43030  0.74542  Biso   1.000  C
  C188     1.0000 0.15178  0.43030  0.75458  Biso   1.000  C
  C189     1.0000 0.65118  0.84650  0.01077  Biso   1.000  C
  C190     1.0000 0.34882  0.84650  0.48923  Biso   1.000  C
  C191     1.0000 0.15118  0.34650  0.01077  Biso   1.000  C
  C192     1.0000 0.84882  0.34650  0.48923  Biso   1.000  C
  C193     1.0000 0.34882  0.15350  0.98923  Biso   1.000  C
  C194     1.0000 0.65118  0.15350  0.51077  Biso   1.000  C
  C195     1.0000 0.84882  0.65350  0.98923  Biso   1.000  C
  C196     1.0000 0.15118  0.65350  0.51077  Biso   1.000  C
  H77      1.0000 0.61380  0.84300  0.01360  Biso   1.000  H
  H78      1.0000 0.38620  0.84300  0.48640  Biso   1.000  H
  H79      1.0000 0.11380  0.34300  0.01360  Biso   1.000  H
  H80      1.0000 0.88620  0.34300  0.48640  Biso   1.000  H
  H81      1.0000 0.38620  0.15700  0.98640  Biso   1.000  H
  H82      1.0000 0.61380  0.15700  0.51360  Biso   1.000  H
  H83      1.0000 0.88620  0.65700  0.98640  Biso   1.000  H
  H84      1.0000 0.11380  0.65700  0.51360  Biso   1.000  H
  C197     1.0000 0.81808  0.03170  0.16318  Biso   1.000  C
  C198     1.0000 0.18192  0.03170  0.33682  Biso   1.000  C
  C199     1.0000 0.31808  0.53170  0.16318  Biso   1.000  C
  C200     1.0000 0.68192  0.53170  0.33682  Biso   1.000  C
  C201     1.0000 0.18192  0.96830  0.83682  Biso   1.000  C
  C202     1.0000 0.81808  0.96830  0.66318  Biso   1.000  C
  C203     1.0000 0.68192  0.46830  0.83682  Biso   1.000  C
  C204     1.0000 0.31808  0.46830  0.66318  Biso   1.000  C
  H85      1.0000 0.79130  0.03390  0.17570  Biso   1.000  H
  H86      1.0000 0.20870  0.03390  0.32430  Biso   1.000  H
  H87      1.0000 0.29130  0.53390  0.17570  Biso   1.000  H
  H88      1.0000 0.70870  0.53390  0.32430  Biso   1.000  H
  H89      1.0000 0.20870  0.96610  0.82430  Biso   1.000  H
  H90      1.0000 0.79130  0.96610  0.67570  Biso   1.000  H
  H91      1.0000 0.70870  0.46610  0.82430  Biso   1.000  H
  H92      1.0000 0.29130  0.46610  0.67570  Biso   1.000  H
  C205     1.0000 0.74241  0.09130  0.24037  Biso   1.000  C
  C206     1.0000 0.25759  0.09130  0.25963  Biso   1.000  C
  C207     1.0000 0.24241  0.59130  0.24037  Biso   1.000  C
  C208     1.0000 0.75759  0.59130  0.25963  Biso   1.000  C
  C209     1.0000 0.25759  0.90870  0.75963  Biso   1.000  C
  C210     1.0000 0.74241  0.90870  0.74037  Biso   1.000  C
  C211     1.0000 0.75759  0.40870  0.75963  Biso   1.000  C
  C212     1.0000 0.24241  0.40870  0.74037  Biso   1.000  C
  C213     1.0000 0.52882  0.03340  0.13593  Biso   1.000  C
  C214     1.0000 0.47118  0.03340  0.36407  Biso   1.000  C
  C215     1.0000 0.02882  0.53340  0.13593  Biso   1.000  C
  C216     1.0000 0.97118  0.53340  0.36407  Biso   1.000  C
  C217     1.0000 0.47118  0.96660  0.86407  Biso   1.000  C
  C218     1.0000 0.52882  0.96660  0.63593  Biso   1.000  C
  C219     1.0000 0.97118  0.46660  0.86407  Biso   1.000  C
  C220     1.0000 0.02882  0.46660  0.63593  Biso   1.000  C
  C221     1.0000 0.66907  0.82120  0.98490  Biso   1.000  C
  C222     1.0000 0.33093  0.82120  0.51510  Biso   1.000  C
  C223     1.0000 0.16907  0.32120  0.98490  Biso   1.000  C
  C224     1.0000 0.83093  0.32120  0.51510  Biso   1.000  C
  C225     1.0000 0.33093  0.17880  0.01510  Biso   1.000  C
  C226     1.0000 0.66907  0.17880  0.48490  Biso   1.000  C
  C227     1.0000 0.83093  0.67880  0.01510  Biso   1.000  C
  C228     1.0000 0.16907  0.67880  0.48490  Biso   1.000  C
  H93      1.0000 0.64570  0.79640  0.96680  Biso   1.000  H
  H94      1.0000 0.35430  0.79640  0.53320  Biso   1.000  H
  H95      1.0000 0.14570  0.29640  0.96680  Biso   1.000  H
  H96      1.0000 0.85430  0.29640  0.53320  Biso   1.000  H
  H97      1.0000 0.35430  0.20360  0.03320  Biso   1.000  H
  H98      1.0000 0.64570  0.20360  0.46680  Biso   1.000  H
  H99      1.0000 0.85430  0.70360  0.03320  Biso   1.000  H
  H100     1.0000 0.14570  0.70360  0.46680  Biso   1.000  H
  C229     1.0000 0.76399  0.85370  0.20185  Biso   1.000  C
  C230     1.0000 0.23601  0.85370  0.29815  Biso   1.000  C
  C231     1.0000 0.26399  0.35370  0.20185  Biso   1.000  C
  C232     1.0000 0.73601  0.35370  0.29815  Biso   1.000  C
  C233     1.0000 0.23601  0.14630  0.79815  Biso   1.000  C
  C234     1.0000 0.76399  0.14630  0.70185  Biso   1.000  C
  C235     1.0000 0.73601  0.64630  0.79815  Biso   1.000  C
  C236     1.0000 0.26399  0.64630  0.70185  Biso   1.000  C
  C237     1.0000 0.65725  0.60350  0.15024  Biso   1.000  C
  C238     1.0000 0.34275  0.60350  0.34976  Biso   1.000  C
  C239     1.0000 0.15725  0.10350  0.15024  Biso   1.000  C
  C240     1.0000 0.84275  0.10350  0.34976  Biso   1.000  C
  C241     1.0000 0.34275  0.39650  0.84976  Biso   1.000  C
  C242     1.0000 0.65725  0.39650  0.65024  Biso   1.000  C
  C243     1.0000 0.84275  0.89650  0.84976  Biso   1.000  C
  C244     1.0000 0.15725  0.89650  0.65024  Biso   1.000  C
  C245     1.0000 0.87377  0.05480  0.17211  Biso   1.000  C
  C246     1.0000 0.12623  0.05480  0.32789  Biso   1.000  C
  C247     1.0000 0.37377  0.55480  0.17211  Biso   1.000  C
  C248     1.0000 0.62623  0.55480  0.32789  Biso   1.000  C
  C249     1.0000 0.12623  0.94520  0.82789  Biso   1.000  C
  C250     1.0000 0.87377  0.94520  0.67211  Biso   1.000  C
  C251     1.0000 0.62623  0.44520  0.82789  Biso   1.000  C
  C252     1.0000 0.37377  0.44520  0.67211  Biso   1.000  C
  H101     1.0000 0.89220  0.07660  0.19220  Biso   1.000  H
  H102     1.0000 0.10780  0.07660  0.30780  Biso   1.000  H
  H103     1.0000 0.39220  0.57660  0.19220  Biso   1.000  H
  H104     1.0000 0.60780  0.57660  0.30780  Biso   1.000  H
  H105     1.0000 0.10780  0.92340  0.80780  Biso   1.000  H
  H106     1.0000 0.89220  0.92340  0.69220  Biso   1.000  H
  H107     1.0000 0.60780  0.42340  0.80780  Biso   1.000  H
  H108     1.0000 0.39220  0.42340  0.69220  Biso   1.000  H
  C253     1.0000 0.47062  0.91880  0.10703  Biso   1.000  C
  C254     1.0000 0.52938  0.91880  0.39297  Biso   1.000  C
  C255     1.0000 0.97062  0.41880  0.10703  Biso   1.000  C
  C256     1.0000 0.02938  0.41880  0.39297  Biso   1.000  C
  C257     1.0000 0.52938  0.08120  0.89297  Biso   1.000  C
  C258     1.0000 0.47062  0.08120  0.60703  Biso   1.000  C
  C259     1.0000 0.02938  0.58120  0.89297  Biso   1.000  C
  C260     1.0000 0.97062  0.58120  0.60703  Biso   1.000  C
  H109     1.0000 0.45650  0.89640  0.08570  Biso   1.000  H
  H110     1.0000 0.54350  0.89640  0.41430  Biso   1.000  H
  H111     1.0000 0.95650  0.39640  0.08570  Biso   1.000  H
  H112     1.0000 0.04350  0.39640  0.41430  Biso   1.000  H
  H113     1.0000 0.54350  0.10360  0.91430  Biso   1.000  H
  H114     1.0000 0.45650  0.10360  0.58570  Biso   1.000  H
  H115     1.0000 0.04350  0.60360  0.91430  Biso   1.000  H
  H116     1.0000 0.95650  0.60360  0.58570  Biso   1.000  H
  H117     1.0000 0.43930  0.92240  0.11740  Biso   1.000  H
  H118     1.0000 0.56070  0.92240  0.38260  Biso   1.000  H
  H119     1.0000 0.93930  0.42240  0.11740  Biso   1.000  H
  H120     1.0000 0.06070  0.42240  0.38260  Biso   1.000  H
  H121     1.0000 0.56070  0.07760  0.88260  Biso   1.000  H
  H122     1.0000 0.43930  0.07760  0.61740  Biso   1.000  H
  H123     1.0000 0.06070  0.57760  0.88260  Biso   1.000  H
  H124     1.0000 0.93930  0.57760  0.61740  Biso   1.000  H
  H125     1.0000 0.50130  0.88880  0.12030  Biso   1.000  H
  H126     1.0000 0.49870  0.88880  0.37970  Biso   1.000  H
  H127     1.0000 0.00130  0.38880  0.12030  Biso   1.000  H
  H128     1.0000 0.99870  0.38880  0.37970  Biso   1.000  H
  H129     1.0000 0.49870  0.11120  0.87970  Biso   1.000  H
  H130     1.0000 0.50130  0.11120  0.62030  Biso   1.000  H
  H131     1.0000 0.99870  0.61120  0.87970  Biso   1.000  H
  H132     1.0000 0.00130  0.61120  0.62030  Biso   1.000  H
  F121     1.0000 0.81164  0.15370  0.21949  Biso   1.000  F
  F122     1.0000 0.18836  0.15370  0.28051  Biso   1.000  F
  F123     1.0000 0.31164  0.65370  0.21949  Biso   1.000  F
  F124     1.0000 0.68836  0.65370  0.28051  Biso   1.000  F
  F125     1.0000 0.18836  0.84630  0.78051  Biso   1.000  F
  F126     1.0000 0.81164  0.84630  0.71949  Biso   1.000  F
  F127     1.0000 0.68836  0.34630  0.78051  Biso   1.000  F
  F128     1.0000 0.31164  0.34630  0.71949  Biso   1.000  F
  F129     1.0000 0.67831  0.01420  0.98219  Biso   1.000  F
  F130     1.0000 0.32169  0.01420  0.51781  Biso   1.000  F
  F131     1.0000 0.17831  0.51420  0.98219  Biso   1.000  F
  F132     1.0000 0.82169  0.51420  0.51781  Biso   1.000  F
  F133     1.0000 0.32169  0.98580  0.01781  Biso   1.000  F
  F134     1.0000 0.67831  0.98580  0.48219  Biso   1.000  F
  F135     1.0000 0.82169  0.48580  0.01781  Biso   1.000  F
  F136     1.0000 0.17831  0.48580  0.48219  Biso   1.000  F
  C261     1.0000 0.51886  0.22340  0.03228  Biso   1.000  C
  C262     1.0000 0.48114  0.22340  0.46772  Biso   1.000  C
  C263     1.0000 0.01886  0.72340  0.03228  Biso   1.000  C
  C264     1.0000 0.98114  0.72340  0.46772  Biso   1.000  C
  C265     1.0000 0.48114  0.77660  0.96772  Biso   1.000  C
  C266     1.0000 0.51886  0.77660  0.53228  Biso   1.000  C
  C267     1.0000 0.98114  0.27660  0.96772  Biso   1.000  C
  C268     1.0000 0.01886  0.27660  0.53228  Biso   1.000  C
  C269     1.0000 0.59728  0.56610  0.14418  Biso   1.000  C
  C270     1.0000 0.40272  0.56610  0.35582  Biso   1.000  C
  C271     1.0000 0.09728  0.06610  0.14418  Biso   1.000  C
  C272     1.0000 0.90272  0.06610  0.35582  Biso   1.000  C
  C273     1.0000 0.40272  0.43390  0.85582  Biso   1.000  C
  C274     1.0000 0.59728  0.43390  0.64418  Biso   1.000  C
  C275     1.0000 0.90272  0.93390  0.85582  Biso   1.000  C
  C276     1.0000 0.09728  0.93390  0.64418  Biso   1.000  C
  C277     1.0000 0.71930  0.92110  0.90202  Biso   1.000  C
  C278     1.0000 0.28070  0.92110  0.59798  Biso   1.000  C
  C279     1.0000 0.21930  0.42110  0.90202  Biso   1.000  C
  C280     1.0000 0.78070  0.42110  0.59798  Biso   1.000  C
  C281     1.0000 0.28070  0.07890  0.09798  Biso   1.000  C
  C282     1.0000 0.71930  0.07890  0.40202  Biso   1.000  C
  C283     1.0000 0.78070  0.57890  0.09798  Biso   1.000  C
  C284     1.0000 0.21930  0.57890  0.40202  Biso   1.000  C
  C285     1.0000 0.58697  0.14360  0.01160  Biso   1.000  C
  C286     1.0000 0.41303  0.14360  0.48840  Biso   1.000  C
  C287     1.0000 0.08697  0.64360  0.01160  Biso   1.000  C
  C288     1.0000 0.91303  0.64360  0.48840  Biso   1.000  C
  C289     1.0000 0.41303  0.85640  0.98840  Biso   1.000  C
  C290     1.0000 0.58697  0.85640  0.51160  Biso   1.000  C
  C291     1.0000 0.91303  0.35640  0.98840  Biso   1.000  C
  C292     1.0000 0.08697  0.35640  0.51160  Biso   1.000  C
  H133     1.0000 0.61110  0.18520  0.01410  Biso   1.000  H
  H134     1.0000 0.38890  0.18520  0.48590  Biso   1.000  H
  H135     1.0000 0.11110  0.68520  0.01410  Biso   1.000  H
  H136     1.0000 0.88890  0.68520  0.48590  Biso   1.000  H
  H137     1.0000 0.38890  0.81480  0.98590  Biso   1.000  H
  H138     1.0000 0.61110  0.81480  0.51410  Biso   1.000  H
  H139     1.0000 0.88890  0.31480  0.98590  Biso   1.000  H
  H140     1.0000 0.11110  0.31480  0.51410  Biso   1.000  H
  F137     1.0000 0.49992  0.36271  0.08722  Biso   1.000  F
  F138     1.0000 0.50008  0.36271  0.41278  Biso   1.000  F
  F139     1.0000 0.99992  0.86271  0.08722  Biso   1.000  F
  F140     1.0000 0.00008  0.86271  0.41278  Biso   1.000  F
  F141     1.0000 0.50008  0.63729  0.91278  Biso   1.000  F
  F142     1.0000 0.49992  0.63729  0.58722  Biso   1.000  F
  F143     1.0000 0.00008  0.13729  0.91278  Biso   1.000  F
  F144     1.0000 0.99992  0.13729  0.58722  Biso   1.000  F
  C293     1.0000 0.74374  0.87230  0.01802  Biso   1.000  C
  C294     1.0000 0.25626  0.87230  0.48198  Biso   1.000  C
  C295     1.0000 0.24374  0.37230  0.01802  Biso   1.000  C
  C296     1.0000 0.75626  0.37230  0.48198  Biso   1.000  C
  C297     1.0000 0.25626  0.12770  0.98198  Biso   1.000  C
  C298     1.0000 0.74374  0.12770  0.51802  Biso   1.000  C
  C299     1.0000 0.75626  0.62770  0.98198  Biso   1.000  C
  C300     1.0000 0.24374  0.62770  0.51802  Biso   1.000  C
  H141     1.0000 0.78130  0.89000  0.02730  Biso   1.000  H
  H142     1.0000 0.21870  0.89000  0.47270  Biso   1.000  H
  H143     1.0000 0.28130  0.39000  0.02730  Biso   1.000  H
  H144     1.0000 0.71870  0.39000  0.47270  Biso   1.000  H
  H145     1.0000 0.21870  0.11000  0.97270  Biso   1.000  H
  H146     1.0000 0.78130  0.11000  0.52730  Biso   1.000  H
  H147     1.0000 0.71870  0.61000  0.97270  Biso   1.000  H
  H148     1.0000 0.28130  0.61000  0.52730  Biso   1.000  H
  F145     1.0000 0.97947  0.93370  0.01859  Biso   1.000  F
  F146     1.0000 0.02053  0.93370  0.48141  Biso   1.000  F
  F147     1.0000 0.47947  0.43370  0.01859  Biso   1.000  F
  F148     1.0000 0.52053  0.43370  0.48141  Biso   1.000  F
  F149     1.0000 0.02053  0.06630  0.98141  Biso   1.000  F
  F150     1.0000 0.97947  0.06630  0.51859  Biso   1.000  F
  F151     1.0000 0.52053  0.56630  0.98141  Biso   1.000  F
  F152     1.0000 0.47947  0.56630  0.51859  Biso   1.000  F
  C301     1.0000 0.91364  0.85630  0.96378  Biso   1.000  C
  C302     1.0000 0.08636  0.85630  0.53622  Biso   1.000  C
  C303     1.0000 0.41364  0.35630  0.96378  Biso   1.000  C
  C304     1.0000 0.58636  0.35630  0.53622  Biso   1.000  C
  C305     1.0000 0.08636  0.14370  0.03622  Biso   1.000  C
  C306     1.0000 0.91364  0.14370  0.46378  Biso   1.000  C
  C307     1.0000 0.58636  0.64370  0.03622  Biso   1.000  C
  C308     1.0000 0.41364  0.64370  0.46378  Biso   1.000  C
  H149     1.0000 0.95040  0.87210  0.96280  Biso   1.000  H
  H150     1.0000 0.04960  0.87210  0.53720  Biso   1.000  H
  H151     1.0000 0.45040  0.37210  0.96280  Biso   1.000  H
  H152     1.0000 0.54960  0.37210  0.53720  Biso   1.000  H
  H153     1.0000 0.04960  0.12790  0.03720  Biso   1.000  H
  H154     1.0000 0.95040  0.12790  0.46280  Biso   1.000  H
  H155     1.0000 0.54960  0.62790  0.03720  Biso   1.000  H
  H156     1.0000 0.45040  0.62790  0.46280  Biso   1.000  H
  C309     1.0000 0.54165  0.45360  0.12669  Biso   1.000  C
  C310     1.0000 0.45835  0.45360  0.37331  Biso   1.000  C
  C311     1.0000 0.04165  0.95360  0.12669  Biso   1.000  C
  C312     1.0000 0.95835  0.95360  0.37331  Biso   1.000  C
  C313     1.0000 0.45835  0.54640  0.87331  Biso   1.000  C
  C314     1.0000 0.54165  0.54640  0.62669  Biso   1.000  C
  C315     1.0000 0.95835  0.04640  0.87331  Biso   1.000  C
  C316     1.0000 0.04165  0.04640  0.62669  Biso   1.000  C
  F153     1.0000 0.52955  0.32622  0.13626  Biso   1.000  F
  F154     1.0000 0.47045  0.32622  0.36374  Biso   1.000  F
  F155     1.0000 0.02955  0.82622  0.13626  Biso   1.000  F
  F156     1.0000 0.97045  0.82622  0.36374  Biso   1.000  F
  F157     1.0000 0.47045  0.67378  0.86374  Biso   1.000  F
  F158     1.0000 0.52955  0.67378  0.63626  Biso   1.000  F
  F159     1.0000 0.97045  0.17378  0.86374  Biso   1.000  F
  F160     1.0000 0.02955  0.17378  0.63626  Biso   1.000  F
  C317     1.0000 0.80017  0.13400  0.24666  Biso   1.000  C
  C318     1.0000 0.19983  0.13400  0.25334  Biso   1.000  C
  C319     1.0000 0.30017  0.63400  0.24666  Biso   1.000  C
  C320     1.0000 0.69983  0.63400  0.25334  Biso   1.000  C
  C321     1.0000 0.19983  0.86600  0.75334  Biso   1.000  C
  C322     1.0000 0.80017  0.86600  0.74666  Biso   1.000  C
  C323     1.0000 0.69983  0.36600  0.75334  Biso   1.000  C
  C324     1.0000 0.30017  0.36600  0.74666  Biso   1.000  C
  F161     1.0000 0.82715  0.85400  0.16800  Biso   1.000  F
  F162     1.0000 0.17285  0.85400  0.33200  Biso   1.000  F
  F163     1.0000 0.32715  0.35400  0.16800  Biso   1.000  F
  F164     1.0000 0.67285  0.35400  0.33200  Biso   1.000  F
  F165     1.0000 0.17285  0.14600  0.83200  Biso   1.000  F
  F166     1.0000 0.82715  0.14600  0.66800  Biso   1.000  F
  F167     1.0000 0.67285  0.64600  0.83200  Biso   1.000  F
  F168     1.0000 0.32715  0.64600  0.66800  Biso   1.000  F
  C325     1.0000 0.44627  0.04560  0.08209  Biso   1.000  C
  C326     1.0000 0.55373  0.04560  0.41791  Biso   1.000  C
  C327     1.0000 0.94627  0.54560  0.08209  Biso   1.000  C
  C328     1.0000 0.05373  0.54560  0.41791  Biso   1.000  C
  C329     1.0000 0.55373  0.95440  0.91791  Biso   1.000  C
  C330     1.0000 0.44627  0.95440  0.58209  Biso   1.000  C
  C331     1.0000 0.05373  0.45440  0.91791  Biso   1.000  C
  C332     1.0000 0.94627  0.45440  0.58209  Biso   1.000  C
  H157     1.0000 0.46330  0.09060  0.07650  Biso   1.000  H
  H158     1.0000 0.53670  0.09060  0.42350  Biso   1.000  H
  H159     1.0000 0.96330  0.59060  0.07650  Biso   1.000  H
  H160     1.0000 0.03670  0.59060  0.42350  Biso   1.000  H
  H161     1.0000 0.53670  0.90940  0.92350  Biso   1.000  H
  H162     1.0000 0.46330  0.90940  0.57650  Biso   1.000  H
  H163     1.0000 0.03670  0.40940  0.92350  Biso   1.000  H
  H164     1.0000 0.96330  0.40940  0.57650  Biso   1.000  H
  H165     1.0000 0.41830  0.05770  0.09410  Biso   1.000  H
  H166     1.0000 0.58170  0.05770  0.40590  Biso   1.000  H
  H167     1.0000 0.91830  0.55770  0.09410  Biso   1.000  H
  H168     1.0000 0.08170  0.55770  0.40590  Biso   1.000  H
  H169     1.0000 0.58170  0.94230  0.90590  Biso   1.000  H
  H170     1.0000 0.41830  0.94230  0.59410  Biso   1.000  H
  H171     1.0000 0.08170  0.44230  0.90590  Biso   1.000  H
  H172     1.0000 0.91830  0.44230  0.59410  Biso   1.000  H
  H173     1.0000 0.42720  0.01940  0.06230  Biso   1.000  H
  H174     1.0000 0.57280  0.01940  0.43770  Biso   1.000  H
  H175     1.0000 0.92720  0.51940  0.06230  Biso   1.000  H
  H176     1.0000 0.07280  0.51940  0.43770  Biso   1.000  H
  H177     1.0000 0.57280  0.98060  0.93770  Biso   1.000  H
  H178     1.0000 0.42720  0.98060  0.56230  Biso   1.000  H
  H179     1.0000 0.07280  0.48060  0.93770  Biso   1.000  H
  H180     1.0000 0.92720  0.48060  0.56230  Biso   1.000  H
  F169     1.0000 0.68165  0.13170  0.98423  Biso   1.000  F
  F170     1.0000 0.31835  0.13170  0.51577  Biso   1.000  F
  F171     1.0000 0.18165  0.63170  0.98423  Biso   1.000  F
  F172     1.0000 0.81835  0.63170  0.51577  Biso   1.000  F
  F173     1.0000 0.31835  0.86830  0.01577  Biso   1.000  F
  F174     1.0000 0.68165  0.86830  0.48423  Biso   1.000  F
  F175     1.0000 0.81835  0.36830  0.01577  Biso   1.000  F
  F176     1.0000 0.18165  0.36830  0.48423  Biso   1.000  F
  F177     1.0000 0.59123  0.35131  0.10970  Biso   1.000  F
  F178     1.0000 0.40877  0.35131  0.39030  Biso   1.000  F
  F179     1.0000 0.09123  0.85131  0.10970  Biso   1.000  F
  F180     1.0000 0.90877  0.85131  0.39030  Biso   1.000  F
  F181     1.0000 0.40877  0.64869  0.89030  Biso   1.000  F
  F182     1.0000 0.59123  0.64869  0.60970  Biso   1.000  F
  F183     1.0000 0.90877  0.14869  0.89030  Biso   1.000  F
  F184     1.0000 0.09123  0.14869  0.60970  Biso   1.000  F
  C333     1.0000 0.62588  0.74520  0.88959  Biso   1.000  C
  C334     1.0000 0.37412  0.74520  0.61041  Biso   1.000  C
  C335     1.0000 0.12588  0.24520  0.88959  Biso   1.000  C
  C336     1.0000 0.87412  0.24520  0.61041  Biso   1.000  C
  C337     1.0000 0.37412  0.25480  0.11041  Biso   1.000  C
  C338     1.0000 0.62588  0.25480  0.38959  Biso   1.000  C
  C339     1.0000 0.87412  0.75480  0.11041  Biso   1.000  C
  C340     1.0000 0.12588  0.75480  0.38959  Biso   1.000  C
  F185     1.0000 0.90628  0.94470  0.03907  Biso   1.000  F
  F186     1.0000 0.09372  0.94470  0.46093  Biso   1.000  F
  F187     1.0000 0.40628  0.44470  0.03907  Biso   1.000  F
  F188     1.0000 0.59372  0.44470  0.46093  Biso   1.000  F
  F189     1.0000 0.09372  0.05530  0.96093  Biso   1.000  F
  F190     1.0000 0.90628  0.05530  0.53907  Biso   1.000  F
  F191     1.0000 0.59372  0.55530  0.96093  Biso   1.000  F
  F192     1.0000 0.40628  0.55530  0.53907  Biso   1.000  F
  F193     1.0000 0.75724  0.03137  0.88464  Biso   1.000  F
  F194     1.0000 0.24276  0.03137  0.61536  Biso   1.000  F
  F195     1.0000 0.25724  0.53137  0.88464  Biso   1.000  F
  F196     1.0000 0.74276  0.53137  0.61536  Biso   1.000  F
  F197     1.0000 0.24276  0.96863  0.11536  Biso   1.000  F
  F198     1.0000 0.75724  0.96863  0.38464  Biso   1.000  F
  F199     1.0000 0.74276  0.46863  0.11536  Biso   1.000  F
  F200     1.0000 0.25724  0.46863  0.38464  Biso   1.000  F
  F201     1.0000 0.63317  0.12080  0.30260  Biso   1.000  F
  F202     1.0000 0.36683  0.12080  0.19740  Biso   1.000  F
  F203     1.0000 0.13317  0.62080  0.30260  Biso   1.000  F
  F204     1.0000 0.86683  0.62080  0.19740  Biso   1.000  F
  F205     1.0000 0.36683  0.87920  0.69740  Biso   1.000  F
  F206     1.0000 0.63317  0.87920  0.80260  Biso   1.000  F
  F207     1.0000 0.86683  0.37920  0.69740  Biso   1.000  F
  F208     1.0000 0.13317  0.37920  0.80260  Biso   1.000  F
  C341     1.0000 0.92120  0.75880  0.92317  Biso   1.000  C
  C342     1.0000 0.07880  0.75880  0.57683  Biso   1.000  C
  C343     1.0000 0.42120  0.25880  0.92317  Biso   1.000  C
  C344     1.0000 0.57880  0.25880  0.57683  Biso   1.000  C
  C345     1.0000 0.07880  0.24120  0.07683  Biso   1.000  C
  C346     1.0000 0.92120  0.24120  0.42317  Biso   1.000  C
  C347     1.0000 0.57880  0.74120  0.07683  Biso   1.000  C
  C348     1.0000 0.42120  0.74120  0.42317  Biso   1.000  C
  C349     1.0000 0.39070  0.71370  0.10708  Biso   1.000  C
  C350     1.0000 0.60930  0.71370  0.39292  Biso   1.000  C
  C351     1.0000 0.89070  0.21370  0.10708  Biso   1.000  C
  C352     1.0000 0.10930  0.21370  0.39292  Biso   1.000  C
  C353     1.0000 0.60930  0.28630  0.89292  Biso   1.000  C
  C354     1.0000 0.39070  0.28630  0.60708  Biso   1.000  C
  C355     1.0000 0.10930  0.78630  0.89292  Biso   1.000  C
  C356     1.0000 0.89070  0.78630  0.60708  Biso   1.000  C
  H181     1.0000 0.36100  0.74760  0.09860  Biso   1.000  H
  H182     1.0000 0.63900  0.74760  0.40140  Biso   1.000  H
  H183     1.0000 0.86100  0.24760  0.09860  Biso   1.000  H
  H184     1.0000 0.13900  0.24760  0.40140  Biso   1.000  H
  H185     1.0000 0.63900  0.25240  0.90140  Biso   1.000  H
  H186     1.0000 0.36100  0.25240  0.59860  Biso   1.000  H
  H187     1.0000 0.13900  0.75240  0.90140  Biso   1.000  H
  H188     1.0000 0.86100  0.75240  0.59860  Biso   1.000  H
  C357     1.0000 0.70441  0.10750  0.25919  Biso   1.000  C
  C358     1.0000 0.29559  0.10750  0.24081  Biso   1.000  C
  C359     1.0000 0.20441  0.60750  0.25919  Biso   1.000  C
  C360     1.0000 0.79559  0.60750  0.24081  Biso   1.000  C
  C361     1.0000 0.29559  0.89250  0.74081  Biso   1.000  C
  C362     1.0000 0.70441  0.89250  0.75919  Biso   1.000  C
  C363     1.0000 0.79559  0.39250  0.74081  Biso   1.000  C
  C364     1.0000 0.20441  0.39250  0.75919  Biso   1.000  C
  H189     1.0000 0.71420  0.14430  0.27520  Biso   1.000  H
  H190     1.0000 0.28580  0.14430  0.22480  Biso   1.000  H
  H191     1.0000 0.21420  0.64430  0.27520  Biso   1.000  H
  H192     1.0000 0.78580  0.64430  0.22480  Biso   1.000  H
  H193     1.0000 0.28580  0.85570  0.72480  Biso   1.000  H
  H194     1.0000 0.71420  0.85570  0.77520  Biso   1.000  H
  H195     1.0000 0.78580  0.35570  0.72480  Biso   1.000  H
  H196     1.0000 0.21420  0.35570  0.77520  Biso   1.000  H
  F209     1.0000 0.84366  0.08891  0.26199  Biso   1.000  F
  F210     1.0000 0.15634  0.08891  0.23801  Biso   1.000  F
  F211     1.0000 0.34366  0.58891  0.26199  Biso   1.000  F
  F212     1.0000 0.65634  0.58891  0.23801  Biso   1.000  F
  F213     1.0000 0.15634  0.91109  0.73801  Biso   1.000  F
  F214     1.0000 0.84366  0.91109  0.76199  Biso   1.000  F
  F215     1.0000 0.65634  0.41109  0.73801  Biso   1.000  F
  F216     1.0000 0.34366  0.41109  0.76199  Biso   1.000  F
  F217     1.0000 0.68150  0.04220  0.90043  Biso   1.000  F
  F218     1.0000 0.31850  0.04220  0.59957  Biso   1.000  F
  F219     1.0000 0.18150  0.54220  0.90043  Biso   1.000  F
  F220     1.0000 0.81850  0.54220  0.59957  Biso   1.000  F
  F221     1.0000 0.31850  0.95780  0.09957  Biso   1.000  F
  F222     1.0000 0.68150  0.95780  0.40043  Biso   1.000  F
  F223     1.0000 0.81850  0.45780  0.09957  Biso   1.000  F
  F224     1.0000 0.18150  0.45780  0.40043  Biso   1.000  F
  C365     1.0000 0.40550  0.66170  0.08530  Biso   1.000  C
  C366     1.0000 0.59450  0.66170  0.41470  Biso   1.000  C
  C367     1.0000 0.90550  0.16170  0.08530  Biso   1.000  C
  C368     1.0000 0.09450  0.16170  0.41470  Biso   1.000  C
  C369     1.0000 0.59450  0.33830  0.91470  Biso   1.000  C
  C370     1.0000 0.40550  0.33830  0.58530  Biso   1.000  C
  C371     1.0000 0.09450  0.83830  0.91470  Biso   1.000  C
  C372     1.0000 0.90550  0.83830  0.58530  Biso   1.000  C
  F225     1.0000 0.70759  0.06570  0.02596  Biso   1.000  F
  F226     1.0000 0.29241  0.06570  0.47404  Biso   1.000  F
  F227     1.0000 0.20759  0.56570  0.02596  Biso   1.000  F
  F228     1.0000 0.79241  0.56570  0.47404  Biso   1.000  F
  F229     1.0000 0.29241  0.93430  0.97404  Biso   1.000  F
  F230     1.0000 0.70759  0.93430  0.52596  Biso   1.000  F
  F231     1.0000 0.79241  0.43430  0.97404  Biso   1.000  F
  F232     1.0000 0.20759  0.43430  0.52596  Biso   1.000  F
  C373     1.0000 0.76732  0.86150  0.26086  Biso   1.000  C
  C374     1.0000 0.23268  0.86150  0.23914  Biso   1.000  C
  C375     1.0000 0.26732  0.36150  0.26086  Biso   1.000  C
  C376     1.0000 0.73268  0.36150  0.23914  Biso   1.000  C
  C377     1.0000 0.23268  0.13850  0.73914  Biso   1.000  C
  C378     1.0000 0.76732  0.13850  0.76086  Biso   1.000  C
  C379     1.0000 0.73268  0.63850  0.73914  Biso   1.000  C
  C380     1.0000 0.26732  0.63850  0.76086  Biso   1.000  C
  C381     1.0000 0.51531  0.43070  0.23597  Biso   1.000  C
  C382     1.0000 0.48469  0.43070  0.26403  Biso   1.000  C
  C383     1.0000 0.01531  0.93070  0.23597  Biso   1.000  C
  C384     1.0000 0.98469  0.93070  0.26403  Biso   1.000  C
  C385     1.0000 0.48469  0.56930  0.76403  Biso   1.000  C
  C386     1.0000 0.51531  0.56930  0.73597  Biso   1.000  C
  C387     1.0000 0.98469  0.06930  0.76403  Biso   1.000  C
  C388     1.0000 0.01531  0.06930  0.73597  Biso   1.000  C
  C389     1.0000 0.78240  0.82830  0.23373  Biso   1.000  C
  C390     1.0000 0.21760  0.82830  0.26627  Biso   1.000  C
  C391     1.0000 0.28240  0.32830  0.23373  Biso   1.000  C
  C392     1.0000 0.71760  0.32830  0.26627  Biso   1.000  C
  C393     1.0000 0.21760  0.17170  0.76627  Biso   1.000  C
  C394     1.0000 0.78240  0.17170  0.73373  Biso   1.000  C
  C395     1.0000 0.71760  0.67170  0.76627  Biso   1.000  C
  C396     1.0000 0.28240  0.67170  0.73373  Biso   1.000  C
  H197     1.0000 0.80640  0.78660  0.23770  Biso   1.000  H
  H198     1.0000 0.19360  0.78660  0.26230  Biso   1.000  H
  H199     1.0000 0.30640  0.28660  0.23770  Biso   1.000  H
  H200     1.0000 0.69360  0.28660  0.26230  Biso   1.000  H
  H201     1.0000 0.19360  0.21340  0.76230  Biso   1.000  H
  H202     1.0000 0.80640  0.21340  0.73770  Biso   1.000  H
  H203     1.0000 0.69360  0.71340  0.76230  Biso   1.000  H
  H204     1.0000 0.30640  0.71340  0.73770  Biso   1.000  H
  C397     1.0000 0.54120  0.37270  0.11462  Biso   1.000  C
  C398     1.0000 0.45880  0.37270  0.38538  Biso   1.000  C
  C399     1.0000 0.04120  0.87270  0.11462  Biso   1.000  C
  C400     1.0000 0.95880  0.87270  0.38538  Biso   1.000  C
  C401     1.0000 0.45880  0.62730  0.88538  Biso   1.000  C
  C402     1.0000 0.54120  0.62730  0.61462  Biso   1.000  C
  C403     1.0000 0.95880  0.12730  0.88538  Biso   1.000  C
  C404     1.0000 0.04120  0.12730  0.61462  Biso   1.000  C
  C405     1.0000 0.59357  0.49300  0.13301  Biso   1.000  C
  C406     1.0000 0.40643  0.49300  0.36699  Biso   1.000  C
  C407     1.0000 0.09357  0.99300  0.13301  Biso   1.000  C
  C408     1.0000 0.90643  0.99300  0.36699  Biso   1.000  C
  C409     1.0000 0.40643  0.50700  0.86699  Biso   1.000  C
  C410     1.0000 0.59357  0.50700  0.63301  Biso   1.000  C
  C411     1.0000 0.90643  0.00700  0.86699  Biso   1.000  C
  C412     1.0000 0.09357  0.00700  0.63301  Biso   1.000  C
  H205     1.0000 0.62660  0.47010  0.12970  Biso   1.000  H
  H206     1.0000 0.37340  0.47010  0.37030  Biso   1.000  H
  H207     1.0000 0.12660  0.97010  0.12970  Biso   1.000  H
  H208     1.0000 0.87340  0.97010  0.37030  Biso   1.000  H
  H209     1.0000 0.37340  0.52990  0.87030  Biso   1.000  H
  H210     1.0000 0.62660  0.52990  0.62970  Biso   1.000  H
  H211     1.0000 0.87340  0.02990  0.87030  Biso   1.000  H
  H212     1.0000 0.12660  0.02990  0.62970  Biso   1.000  H
  F233     1.0000 0.33914  0.60400  0.04010  Biso   1.000  F
  F234     1.0000 0.66086  0.60400  0.45990  Biso   1.000  F
  F235     1.0000 0.83914  0.10400  0.04010  Biso   1.000  F
  F236     1.0000 0.16086  0.10400  0.45990  Biso   1.000  F
  F237     1.0000 0.66086  0.39600  0.95990  Biso   1.000  F
  F238     1.0000 0.33914  0.39600  0.54010  Biso   1.000  F
  F239     1.0000 0.16086  0.89600  0.95990  Biso   1.000  F
  F240     1.0000 0.83914  0.89600  0.54010  Biso   1.000  F
  C413     1.0000 0.88838  0.88770  0.98676  Biso   1.000  C
  C414     1.0000 0.11162  0.88770  0.51324  Biso   1.000  C
  C415     1.0000 0.38838  0.38770  0.98676  Biso   1.000  C
  C416     1.0000 0.61162  0.38770  0.51324  Biso   1.000  C
  C417     1.0000 0.11162  0.11230  0.01324  Biso   1.000  C
  C418     1.0000 0.88838  0.11230  0.48676  Biso   1.000  C
  C419     1.0000 0.61162  0.61230  0.01324  Biso   1.000  C
  C420     1.0000 0.38838  0.61230  0.48676  Biso   1.000  C
  C421     1.0000 0.52960  0.11800  0.13575  Biso   1.000  C
  C422     1.0000 0.47040  0.11800  0.36425  Biso   1.000  C
  C423     1.0000 0.02960  0.61800  0.13575  Biso   1.000  C
  C424     1.0000 0.97040  0.61800  0.36425  Biso   1.000  C
  C425     1.0000 0.47040  0.88200  0.86425  Biso   1.000  C
  C426     1.0000 0.52960  0.88200  0.63575  Biso   1.000  C
  C427     1.0000 0.97040  0.38200  0.86425  Biso   1.000  C
  C428     1.0000 0.02960  0.38200  0.63575  Biso   1.000  C
  H213     1.0000 0.55760  0.13570  0.15510  Biso   1.000  H
  H214     1.0000 0.44240  0.13570  0.34490  Biso   1.000  H
  H215     1.0000 0.05760  0.63570  0.15510  Biso   1.000  H
  H216     1.0000 0.94240  0.63570  0.34490  Biso   1.000  H
  H217     1.0000 0.44240  0.86430  0.84490  Biso   1.000  H
  H218     1.0000 0.55760  0.86430  0.65510  Biso   1.000  H
  H219     1.0000 0.94240  0.36430  0.84490  Biso   1.000  H
  H220     1.0000 0.05760  0.36430  0.65510  Biso   1.000  H
  H221     1.0000 0.49170  0.13650  0.13550  Biso   1.000  H
  H222     1.0000 0.50830  0.13650  0.36450  Biso   1.000  H
  H223     1.0000 0.99170  0.63650  0.13550  Biso   1.000  H
  H224     1.0000 0.00830  0.63650  0.36450  Biso   1.000  H
  H225     1.0000 0.50830  0.86350  0.86450  Biso   1.000  H
  H226     1.0000 0.49170  0.86350  0.63550  Biso   1.000  H
  H227     1.0000 0.00830  0.36350  0.86450  Biso   1.000  H
  H228     1.0000 0.99170  0.36350  0.63550  Biso   1.000  H
  H229     1.0000 0.54010  0.13520  0.11650  Biso   1.000  H
  H230     1.0000 0.45990  0.13520  0.38350  Biso   1.000  H
  H231     1.0000 0.04010  0.63520  0.11650  Biso   1.000  H
  H232     1.0000 0.95990  0.63520  0.38350  Biso   1.000  H
  H233     1.0000 0.45990  0.86480  0.88350  Biso   1.000  H
  H234     1.0000 0.54010  0.86480  0.61650  Biso   1.000  H
  H235     1.0000 0.95990  0.36480  0.88350  Biso   1.000  H
  H236     1.0000 0.04010  0.36480  0.61650  Biso   1.000  H
  F241     1.0000 0.74600  0.80970  0.14638  Biso   1.000  F
  F242     1.0000 0.25400  0.80970  0.35362  Biso   1.000  F
  F243     1.0000 0.24600  0.30970  0.14638  Biso   1.000  F
  F244     1.0000 0.75400  0.30970  0.35362  Biso   1.000  F
  F245     1.0000 0.25400  0.19030  0.85362  Biso   1.000  F
  F246     1.0000 0.74600  0.19030  0.64638  Biso   1.000  F
  F247     1.0000 0.75400  0.69030  0.85362  Biso   1.000  F
  F248     1.0000 0.24600  0.69030  0.64638  Biso   1.000  F
  F249     1.0000 0.91225  0.01295  0.99851  Biso   1.000  F
  F250     1.0000 0.08775  0.01295  0.50149  Biso   1.000  F
  F251     1.0000 0.41225  0.51295  0.99851  Biso   1.000  F
  F252     1.0000 0.58775  0.51295  0.50149  Biso   1.000  F
  F253     1.0000 0.08775  0.98705  0.00149  Biso   1.000  F
  F254     1.0000 0.91225  0.98705  0.49851  Biso   1.000  F
  F255     1.0000 0.58775  0.48705  0.00149  Biso   1.000  F
  F256     1.0000 0.41225  0.48705  0.49851  Biso   1.000  F
  F257     1.0000 0.53348  0.21694  0.06489  Biso   1.000  F
  F258     1.0000 0.46652  0.21694  0.43511  Biso   1.000  F
  F259     1.0000 0.03348  0.71694  0.06489  Biso   1.000  F
  F260     1.0000 0.96652  0.71694  0.43511  Biso   1.000  F
  F261     1.0000 0.46652  0.78306  0.93511  Biso   1.000  F
  F262     1.0000 0.53348  0.78306  0.56489  Biso   1.000  F
  F263     1.0000 0.96652  0.28306  0.93511  Biso   1.000  F
  F264     1.0000 0.03348  0.28306  0.56489  Biso   1.000  F
  C429     1.0000 0.66801  0.07460  0.99691  Biso   1.000  C
  C430     1.0000 0.33199  0.07460  0.50309  Biso   1.000  C
  C431     1.0000 0.16801  0.57460  0.99691  Biso   1.000  C
  C432     1.0000 0.83199  0.57460  0.50309  Biso   1.000  C
  C433     1.0000 0.33199  0.92540  0.00309  Biso   1.000  C
  C434     1.0000 0.66801  0.92540  0.49691  Biso   1.000  C
  C435     1.0000 0.83199  0.42540  0.00309  Biso   1.000  C
  C436     1.0000 0.16801  0.42540  0.49691  Biso   1.000  C
  C437     1.0000 0.58090  0.41490  0.24769  Biso   1.000  C
  C438     1.0000 0.41910  0.41490  0.25231  Biso   1.000  C
  C439     1.0000 0.08090  0.91490  0.24769  Biso   1.000  C
  C440     1.0000 0.91910  0.91490  0.25231  Biso   1.000  C
  C441     1.0000 0.41910  0.58510  0.75231  Biso   1.000  C
  C442     1.0000 0.58090  0.58510  0.74769  Biso   1.000  C
  C443     1.0000 0.91910  0.08510  0.75231  Biso   1.000  C
  C444     1.0000 0.08090  0.08510  0.74769  Biso   1.000  C
  H237     1.0000 0.59850  0.42440  0.23010  Biso   1.000  H
  H238     1.0000 0.40150  0.42440  0.26990  Biso   1.000  H
  H239     1.0000 0.09850  0.92440  0.23010  Biso   1.000  H
  H240     1.0000 0.90150  0.92440  0.26990  Biso   1.000  H
  H241     1.0000 0.40150  0.57560  0.76990  Biso   1.000  H
  H242     1.0000 0.59850  0.57560  0.73010  Biso   1.000  H
  H243     1.0000 0.90150  0.07560  0.76990  Biso   1.000  H
  H244     1.0000 0.09850  0.07560  0.73010  Biso   1.000  H
  H245     1.0000 0.58700  0.36370  0.25430  Biso   1.000  H
  H246     1.0000 0.41300  0.36370  0.24570  Biso   1.000  H
  H247     1.0000 0.08700  0.86370  0.25430  Biso   1.000  H
  H248     1.0000 0.91300  0.86370  0.24570  Biso   1.000  H
  H249     1.0000 0.41300  0.63630  0.74570  Biso   1.000  H
  H250     1.0000 0.58700  0.63630  0.75430  Biso   1.000  H
  H251     1.0000 0.91300  0.13630  0.74570  Biso   1.000  H
  H252     1.0000 0.08700  0.13630  0.75430  Biso   1.000  H
  H253     1.0000 0.59820  0.44660  0.26600  Biso   1.000  H
  H254     1.0000 0.40180  0.44660  0.23400  Biso   1.000  H
  H255     1.0000 0.09820  0.94660  0.26600  Biso   1.000  H
  H256     1.0000 0.90180  0.94660  0.23400  Biso   1.000  H
  H257     1.0000 0.40180  0.55340  0.73400  Biso   1.000  H
  H258     1.0000 0.59820  0.55340  0.76600  Biso   1.000  H
  H259     1.0000 0.90180  0.05340  0.73400  Biso   1.000  H
  H260     1.0000 0.09820  0.05340  0.76600  Biso   1.000  H
  C445     1.0000 0.78700  0.81300  0.17591  Biso   1.000  C
  C446     1.0000 0.21300  0.81300  0.32409  Biso   1.000  C
  C447     1.0000 0.28700  0.31300  0.17591  Biso   1.000  C
  C448     1.0000 0.71300  0.31300  0.32409  Biso   1.000  C
  C449     1.0000 0.21300  0.18700  0.82409  Biso   1.000  C
  C450     1.0000 0.78700  0.18700  0.67591  Biso   1.000  C
  C451     1.0000 0.71300  0.68700  0.82409  Biso   1.000  C
  C452     1.0000 0.28700  0.68700  0.67591  Biso   1.000  C
  C453     1.0000 0.60830  0.09570  0.27328  Biso   1.000  C
  C454     1.0000 0.39170  0.09570  0.22672  Biso   1.000  C
  C455     1.0000 0.10830  0.59570  0.27328  Biso   1.000  C
  C456     1.0000 0.89170  0.59570  0.22672  Biso   1.000  C
  C457     1.0000 0.39170  0.90430  0.72672  Biso   1.000  C
  C458     1.0000 0.60830  0.90430  0.77328  Biso   1.000  C
  C459     1.0000 0.89170  0.40430  0.72672  Biso   1.000  C
  C460     1.0000 0.10830  0.40430  0.77328  Biso   1.000  C
  C461     1.0000 0.51334  0.00400  0.16660  Biso   1.000  C
  C462     1.0000 0.48666  0.00400  0.33340  Biso   1.000  C
  C463     1.0000 0.01334  0.50400  0.16660  Biso   1.000  C
  C464     1.0000 0.98666  0.50400  0.33340  Biso   1.000  C
  C465     1.0000 0.48666  0.99600  0.83340  Biso   1.000  C
  C466     1.0000 0.51334  0.99600  0.66660  Biso   1.000  C
  C467     1.0000 0.98666  0.49600  0.83340  Biso   1.000  C
  C468     1.0000 0.01334  0.49600  0.66660  Biso   1.000  C
  H261     1.0000 0.51890  0.95100  0.16800  Biso   1.000  H
  H262     1.0000 0.48110  0.95100  0.33200  Biso   1.000  H
  H263     1.0000 0.01890  0.45100  0.16800  Biso   1.000  H
  H264     1.0000 0.98110  0.45100  0.33200  Biso   1.000  H
  H265     1.0000 0.48110  0.04900  0.83200  Biso   1.000  H
  H266     1.0000 0.51890  0.04900  0.66800  Biso   1.000  H
  H267     1.0000 0.98110  0.54900  0.83200  Biso   1.000  H
  H268     1.0000 0.01890  0.54900  0.66800  Biso   1.000  H
  H269     1.0000 0.47340  0.01550  0.16530  Biso   1.000  H
  H270     1.0000 0.52660  0.01550  0.33470  Biso   1.000  H
  H271     1.0000 0.97340  0.51550  0.16530  Biso   1.000  H
  H272     1.0000 0.02660  0.51550  0.33470  Biso   1.000  H
  H273     1.0000 0.52660  0.98450  0.83470  Biso   1.000  H
  H274     1.0000 0.47340  0.98450  0.66530  Biso   1.000  H
  H275     1.0000 0.02660  0.48450  0.83470  Biso   1.000  H
  H276     1.0000 0.97340  0.48450  0.66530  Biso   1.000  H
  H277     1.0000 0.53810  0.02710  0.18580  Biso   1.000  H
  H278     1.0000 0.46190  0.02710  0.31420  Biso   1.000  H
  H279     1.0000 0.03810  0.52710  0.18580  Biso   1.000  H
  H280     1.0000 0.96190  0.52710  0.31420  Biso   1.000  H
  H281     1.0000 0.46190  0.97290  0.81420  Biso   1.000  H
  H282     1.0000 0.53810  0.97290  0.68580  Biso   1.000  H
  H283     1.0000 0.96190  0.47290  0.81420  Biso   1.000  H
  H284     1.0000 0.03810  0.47290  0.68580  Biso   1.000  H
  F265     1.0000 0.80210  0.74670  0.18238  Biso   1.000  F
  F266     1.0000 0.19790  0.74670  0.31762  Biso   1.000  F
  F267     1.0000 0.30210  0.24670  0.18238  Biso   1.000  F
  F268     1.0000 0.69790  0.24670  0.31762  Biso   1.000  F
  F269     1.0000 0.19790  0.25330  0.81762  Biso   1.000  F
  F270     1.0000 0.80210  0.25330  0.68238  Biso   1.000  F
  F271     1.0000 0.69790  0.75330  0.81762  Biso   1.000  F
  F272     1.0000 0.30210  0.75330  0.68238  Biso   1.000  F
  F273     1.0000 0.40720  0.66660  0.02976  Biso   1.000  F
  F274     1.0000 0.59280  0.66660  0.47024  Biso   1.000  F
  F275     1.0000 0.90720  0.16660  0.02976  Biso   1.000  F
  F276     1.0000 0.09280  0.16660  0.47024  Biso   1.000  F
  F277     1.0000 0.59280  0.33340  0.97024  Biso   1.000  F
  F278     1.0000 0.40720  0.33340  0.52976  Biso   1.000  F
  F279     1.0000 0.09280  0.83340  0.97024  Biso   1.000  F
  F280     1.0000 0.90720  0.83340  0.52976  Biso   1.000  F
  C469     1.0000 0.92240  0.94520  0.01112  Biso   1.000  C
  C470     1.0000 0.07760  0.94520  0.48888  Biso   1.000  C
  C471     1.0000 0.42240  0.44520  0.01112  Biso   1.000  C
  C472     1.0000 0.57760  0.44520  0.48888  Biso   1.000  C
  C473     1.0000 0.07760  0.05480  0.98888  Biso   1.000  C
  C474     1.0000 0.92240  0.05480  0.51112  Biso   1.000  C
  C475     1.0000 0.57760  0.55480  0.98888  Biso   1.000  C
  C476     1.0000 0.42240  0.55480  0.51112  Biso   1.000  C
  C477     1.0000 0.48670  0.38330  0.20647  Biso   1.000  C
  C478     1.0000 0.51330  0.38330  0.29353  Biso   1.000  C
  C479     1.0000 0.98670  0.88330  0.20647  Biso   1.000  C
  C480     1.0000 0.01330  0.88330  0.29353  Biso   1.000  C
  C481     1.0000 0.51330  0.61670  0.79353  Biso   1.000  C
  C482     1.0000 0.48670  0.61670  0.70647  Biso   1.000  C
  C483     1.0000 0.01330  0.11670  0.79353  Biso   1.000  C
  C484     1.0000 0.98670  0.11670  0.70647  Biso   1.000  C
  H285     1.0000 0.44700  0.39880  0.19780  Biso   1.000  H
  H286     1.0000 0.55300  0.39880  0.30220  Biso   1.000  H
  H287     1.0000 0.94700  0.89880  0.19780  Biso   1.000  H
  H288     1.0000 0.05300  0.89880  0.30220  Biso   1.000  H
  H289     1.0000 0.55300  0.60120  0.80220  Biso   1.000  H
  H290     1.0000 0.44700  0.60120  0.69780  Biso   1.000  H
  H291     1.0000 0.05300  0.10120  0.80220  Biso   1.000  H
  H292     1.0000 0.94700  0.10120  0.69780  Biso   1.000  H
  H293     1.0000 0.48770  0.33200  0.21300  Biso   1.000  H
  H294     1.0000 0.51230  0.33200  0.28700  Biso   1.000  H
  H295     1.0000 0.98770  0.83200  0.21300  Biso   1.000  H
  H296     1.0000 0.01230  0.83200  0.28700  Biso   1.000  H
  H297     1.0000 0.51230  0.66800  0.78700  Biso   1.000  H
  H298     1.0000 0.48770  0.66800  0.71300  Biso   1.000  H
  H299     1.0000 0.01230  0.16800  0.78700  Biso   1.000  H
  H300     1.0000 0.98770  0.16800  0.71300  Biso   1.000  H
  H301     1.0000 0.50740  0.38900  0.18990  Biso   1.000  H
  H302     1.0000 0.49260  0.38900  0.31010  Biso   1.000  H
  H303     1.0000 0.00740  0.88900  0.18990  Biso   1.000  H
  H304     1.0000 0.99260  0.88900  0.31010  Biso   1.000  H
  H305     1.0000 0.49260  0.61100  0.81010  Biso   1.000  H
  H306     1.0000 0.50740  0.61100  0.68990  Biso   1.000  H
  H307     1.0000 0.99260  0.11100  0.81010  Biso   1.000  H
  H308     1.0000 0.00740  0.11100  0.68990  Biso   1.000  H
  C485     1.0000 0.79420  0.82620  0.29465  Biso   1.000  C
  C486     1.0000 0.20580  0.82620  0.20535  Biso   1.000  C
  C487     1.0000 0.29420  0.32620  0.29465  Biso   1.000  C
  C488     1.0000 0.70580  0.32620  0.20535  Biso   1.000  C
  C489     1.0000 0.20580  0.17380  0.70535  Biso   1.000  C
  C490     1.0000 0.79420  0.17380  0.79465  Biso   1.000  C
  C491     1.0000 0.70580  0.67380  0.70535  Biso   1.000  C
  C492     1.0000 0.29420  0.67380  0.79465  Biso   1.000  C
  F281     1.0000 0.57570  0.04240  0.27869  Biso   1.000  F
  F282     1.0000 0.42430  0.04240  0.22131  Biso   1.000  F
  F283     1.0000 0.07570  0.54240  0.27869  Biso   1.000  F
  F284     1.0000 0.92430  0.54240  0.22131  Biso   1.000  F
  F285     1.0000 0.42430  0.95760  0.72131  Biso   1.000  F
  F286     1.0000 0.57570  0.95760  0.77869  Biso   1.000  F
  F287     1.0000 0.92430  0.45760  0.72131  Biso   1.000  F
  F288     1.0000 0.07570  0.45760  0.77869  Biso   1.000  F
  C493     1.0000 0.70990  0.99800  0.88487  Biso   1.000  C
  C494     1.0000 0.29010  0.99800  0.61513  Biso   1.000  C
  C495     1.0000 0.20990  0.49800  0.88487  Biso   1.000  C
  C496     1.0000 0.79010  0.49800  0.61513  Biso   1.000  C
  C497     1.0000 0.29010  0.00200  0.11513  Biso   1.000  C
  C498     1.0000 0.70990  0.00200  0.38487  Biso   1.000  C
  C499     1.0000 0.79010  0.50200  0.11513  Biso   1.000  C
  C500     1.0000 0.20990  0.50200  0.38487  Biso   1.000  C
  F289     1.0000 0.83340  0.87020  0.31197  Biso   1.000  F
  F290     1.0000 0.16660  0.87020  0.18803  Biso   1.000  F
  F291     1.0000 0.33340  0.37020  0.31197  Biso   1.000  F
  F292     1.0000 0.66660  0.37020  0.18803  Biso   1.000  F
  F293     1.0000 0.16660  0.12980  0.68803  Biso   1.000  F
  F294     1.0000 0.83340  0.12980  0.81197  Biso   1.000  F
  F295     1.0000 0.66660  0.62980  0.68803  Biso   1.000  F
  F296     1.0000 0.33340  0.62980  0.81197  Biso   1.000  F
  C501     1.0000 0.37000  0.66530  0.04835  Biso   1.000  C
  C502     1.0000 0.63000  0.66530  0.45165  Biso   1.000  C
  C503     1.0000 0.87000  0.16530  0.04835  Biso   1.000  C
  C504     1.0000 0.13000  0.16530  0.45165  Biso   1.000  C
  C505     1.0000 0.63000  0.33470  0.95165  Biso   1.000  C
  C506     1.0000 0.37000  0.33470  0.54835  Biso   1.000  C
  C507     1.0000 0.13000  0.83470  0.95165  Biso   1.000  C
  C508     1.0000 0.87000  0.83470  0.54835  Biso   1.000  C
  F297     1.0000 0.68960  0.98960  0.85184  Biso   1.000  F
  F298     1.0000 0.31040  0.98960  0.64816  Biso   1.000  F
  F299     1.0000 0.18960  0.48960  0.85184  Biso   1.000  F
  F300     1.0000 0.81040  0.48960  0.64816  Biso   1.000  F
  F301     1.0000 0.31040  0.01040  0.14816  Biso   1.000  F
  F302     1.0000 0.68960  0.01040  0.35184  Biso   1.000  F
  F303     1.0000 0.81040  0.51040  0.14816  Biso   1.000  F
  F304     1.0000 0.18960  0.51040  0.35184  Biso   1.000  F
  F305     1.0000 0.57160  0.13230  0.26120  Biso   1.000  F
  F306     1.0000 0.42840  0.13230  0.23880  Biso   1.000  F
  F307     1.0000 0.07160  0.63230  0.26120  Biso   1.000  F
  F308     1.0000 0.92840  0.63230  0.23880  Biso   1.000  F
  F309     1.0000 0.42840  0.86770  0.73880  Biso   1.000  F
  F310     1.0000 0.57160  0.86770  0.76120  Biso   1.000  F
  F311     1.0000 0.92840  0.36770  0.73880  Biso   1.000  F
  F312     1.0000 0.07160  0.36770  0.76120  Biso   1.000  F
  F313     1.0000 0.80080  0.75530  0.29570  Biso   1.000  F
  F314     1.0000 0.19920  0.75530  0.20430  Biso   1.000  F
  F315     1.0000 0.30080  0.25530  0.29570  Biso   1.000  F
  F316     1.0000 0.69920  0.25530  0.20430  Biso   1.000  F
  F317     1.0000 0.19920  0.24470  0.70430  Biso   1.000  F
  F318     1.0000 0.80080  0.24470  0.79570  Biso   1.000  F
  F319     1.0000 0.69920  0.74470  0.70430  Biso   1.000  F
  F320     1.0000 0.30080  0.74470  0.79570  Biso   1.000  F
  F321     1.0000 0.35220  0.73050  0.03993  Biso   1.000  F
  F322     1.0000 0.64780  0.73050  0.46007  Biso   1.000  F
  F323     1.0000 0.85220  0.23050  0.03993  Biso   1.000  F
  F324     1.0000 0.14780  0.23050  0.46007  Biso   1.000  F
  F325     1.0000 0.64780  0.26950  0.96007  Biso   1.000  F
  F326     1.0000 0.35220  0.26950  0.53993  Biso   1.000  F
  F327     1.0000 0.14780  0.76950  0.96007  Biso   1.000  F
  F328     1.0000 0.85220  0.76950  0.53993  Biso   1.000  F
  F329     1.0000 0.75090  0.80840  0.30830  Biso   1.000  F
  F330     1.0000 0.24910  0.80840  0.19170  Biso   1.000  F
  F331     1.0000 0.25090  0.30840  0.30830  Biso   1.000  F
  F332     1.0000 0.74910  0.30840  0.19170  Biso   1.000  F
  F333     1.0000 0.24910  0.19160  0.69170  Biso   1.000  F
  F334     1.0000 0.75090  0.19160  0.80830  Biso   1.000  F
  F335     1.0000 0.74910  0.69160  0.69170  Biso   1.000  F
  F336     1.0000 0.25090  0.69160  0.80830  Biso   1.000  F
  F337     1.0000 0.66190  0.00320  0.86050  Biso   1.000  F
  F338     1.0000 0.33810  0.00320  0.63950  Biso   1.000  F
  F339     1.0000 0.16190  0.50320  0.86050  Biso   1.000  F
  F340     1.0000 0.83810  0.50320  0.63950  Biso   1.000  F
  F341     1.0000 0.33810  0.99680  0.13950  Biso   1.000  F
  F342     1.0000 0.66190  0.99680  0.36050  Biso   1.000  F
  F343     1.0000 0.83810  0.49680  0.13950  Biso   1.000  F
  F344     1.0000 0.16190  0.49680  0.36050  Biso   1.000  F
  F345     1.0000 0.56160  0.13520  0.24670  Biso   1.000  F
  F346     1.0000 0.43840  0.13520  0.25330  Biso   1.000  F
  F347     1.0000 0.06160  0.63520  0.24670  Biso   1.000  F
  F348     1.0000 0.93840  0.63520  0.25330  Biso   1.000  F
  F349     1.0000 0.43840  0.86480  0.75330  Biso   1.000  F
  F350     1.0000 0.56160  0.86480  0.74670  Biso   1.000  F
  F351     1.0000 0.93840  0.36480  0.75330  Biso   1.000  F
  F352     1.0000 0.06160  0.36480  0.74670  Biso   1.000  F
  F353     1.0000 0.59050  0.16880  0.26240  Biso   1.000  F
  F354     1.0000 0.40950  0.16880  0.23760  Biso   1.000  F
  F355     1.0000 0.09050  0.66880  0.26240  Biso   1.000  F
  F356     1.0000 0.90950  0.66880  0.23760  Biso   1.000  F
  F357     1.0000 0.40950  0.83120  0.73760  Biso   1.000  F
  F358     1.0000 0.59050  0.83120  0.76240  Biso   1.000  F
  F359     1.0000 0.90950  0.33120  0.73760  Biso   1.000  F
  F360     1.0000 0.09050  0.33120  0.76240  Biso   1.000  F
  F361     1.0000 0.32070  0.71290  0.04299  Biso   1.000  F
  F362     1.0000 0.67930  0.71290  0.45701  Biso   1.000  F
  F363     1.0000 0.82070  0.21290  0.04299  Biso   1.000  F
  F364     1.0000 0.17930  0.21290  0.45701  Biso   1.000  F
  F365     1.0000 0.67930  0.28710  0.95701  Biso   1.000  F
  F366     1.0000 0.32070  0.28710  0.54299  Biso   1.000  F
  F367     1.0000 0.17930  0.78710  0.95701  Biso   1.000  F
  F368     1.0000 0.82070  0.78710  0.54299  Biso   1.000  F
  F369     1.0000 0.76890  0.84540  0.31840  Biso   1.000  F
  F370     1.0000 0.23110  0.84540  0.18160  Biso   1.000  F
  F371     1.0000 0.26890  0.34540  0.31840  Biso   1.000  F
  F372     1.0000 0.73110  0.34540  0.18160  Biso   1.000  F
  F373     1.0000 0.23110  0.15460  0.68160  Biso   1.000  F
  F374     1.0000 0.76890  0.15460  0.81840  Biso   1.000  F
  F375     1.0000 0.73110  0.65460  0.68160  Biso   1.000  F
  F376     1.0000 0.26890  0.65460  0.81840  Biso   1.000  F
  F377     1.0000 0.83290  0.77260  0.29420  Biso   1.000  F
  F378     1.0000 0.16710  0.77260  0.20580  Biso   1.000  F
  F379     1.0000 0.33290  0.27260  0.29420  Biso   1.000  F
  F380     1.0000 0.66710  0.27260  0.20580  Biso   1.000  F
  F381     1.0000 0.16710  0.22740  0.70580  Biso   1.000  F
  F382     1.0000 0.83290  0.22740  0.79420  Biso   1.000  F
  F383     1.0000 0.66710  0.72740  0.70580  Biso   1.000  F
  F384     1.0000 0.33290  0.72740  0.79420  Biso   1.000  F
