data_image0
_cell_length_a       34.8341
_cell_length_b       35.0272
_cell_length_c       20.0899
_cell_angle_alpha    90
_cell_angle_beta     90
_cell_angle_gamma    90

_symmetry_space_group_name_H-M    "P 1"
_symmetry_int_tables_number       1

loop_
  _symmetry_equiv_pos_as_xyz
  'x, y, z'

loop_
  _atom_site_label
  _atom_site_occupancy
  _atom_site_fract_x
  _atom_site_fract_y
  _atom_site_fract_z
  _atom_site_thermal_displace_type
  _atom_site_B_iso_or_equiv
  _atom_site_type_symbol
  Y1       1.0000 0.74528  0.23960  0.67373  Biso   1.000  Y
  Y2       1.0000 0.25472  0.76040  0.67373  Biso   1.000  Y
  Y3       1.0000 0.75473  0.73960  0.32627  Biso   1.000  Y
  Y4       1.0000 0.24527  0.26040  0.32627  Biso   1.000  Y
  Y5       1.0000 0.25472  0.76040  0.32627  Biso   1.000  Y
  Y6       1.0000 0.74528  0.23960  0.32627  Biso   1.000  Y
  Y7       1.0000 0.24527  0.26040  0.67373  Biso   1.000  Y
  Y8       1.0000 0.75473  0.73960  0.67373  Biso   1.000  Y
  Y9       1.0000 0.76653  0.17098  0.50000  Biso   1.000  Y
  Y10      1.0000 0.23347  0.82902  0.50000  Biso   1.000  Y
  Y11      1.0000 0.73347  0.67098  0.50000  Biso   1.000  Y
  Y12      1.0000 0.26653  0.32902  0.50000  Biso   1.000  Y
  Cu1      1.0000 0.00000  0.50000  0.00000  Biso   1.000  Cu
  Cu2      1.0000 0.50000  0.00000  0.00000  Biso   1.000  Cu
  Cu3      1.0000 0.50270  0.50270  0.00000  Biso   1.000  Cu
  Cu4      1.0000 0.49730  0.49730  0.00000  Biso   1.000  Cu
  Cu5      1.0000 0.99730  0.00270  0.00000  Biso   1.000  Cu
  Cu6      1.0000 0.00270  0.99730  0.00000  Biso   1.000  Cu
  O1       1.0000 0.78720  0.68301  0.66340  Biso   1.000  O
  O2       1.0000 0.21280  0.31699  0.66340  Biso   1.000  O
  O3       1.0000 0.71280  0.18301  0.33660  Biso   1.000  O
  O4       1.0000 0.28720  0.81699  0.33660  Biso   1.000  O
  O5       1.0000 0.21280  0.31699  0.33660  Biso   1.000  O
  O6       1.0000 0.78720  0.68301  0.33660  Biso   1.000  O
  O7       1.0000 0.28720  0.81699  0.66340  Biso   1.000  O
  O8       1.0000 0.71280  0.18301  0.66340  Biso   1.000  O
  O9       1.0000 0.75720  0.64522  0.59170  Biso   1.000  O
  O10      1.0000 0.24280  0.35478  0.59170  Biso   1.000  O
  O11      1.0000 0.74280  0.14522  0.40830  Biso   1.000  O
  O12      1.0000 0.25720  0.85478  0.40830  Biso   1.000  O
  O13      1.0000 0.24280  0.35478  0.40830  Biso   1.000  O
  O14      1.0000 0.75720  0.64522  0.40830  Biso   1.000  O
  O15      1.0000 0.25720  0.85478  0.59170  Biso   1.000  O
  O16      1.0000 0.74280  0.14522  0.59170  Biso   1.000  O
  O17      1.0000 0.77284  0.29915  0.64350  Biso   1.000  O
  O18      1.0000 0.22716  0.70085  0.64350  Biso   1.000  O
  O19      1.0000 0.72716  0.79915  0.35650  Biso   1.000  O
  O20      1.0000 0.27284  0.20085  0.35650  Biso   1.000  O
  O21      1.0000 0.22716  0.70085  0.35650  Biso   1.000  O
  O22      1.0000 0.77284  0.29915  0.35650  Biso   1.000  O
  O23      1.0000 0.27284  0.20085  0.64350  Biso   1.000  O
  O24      1.0000 0.72716  0.79915  0.64350  Biso   1.000  O
  O25      1.0000 0.78493  0.27884  0.74310  Biso   1.000  O
  O26      1.0000 0.21507  0.72116  0.74310  Biso   1.000  O
  O27      1.0000 0.71507  0.77884  0.25690  Biso   1.000  O
  O28      1.0000 0.28493  0.22116  0.25690  Biso   1.000  O
  O29      1.0000 0.21507  0.72116  0.25690  Biso   1.000  O
  O30      1.0000 0.78493  0.27884  0.25690  Biso   1.000  O
  O31      1.0000 0.28493  0.22116  0.74310  Biso   1.000  O
  O32      1.0000 0.71507  0.77884  0.74310  Biso   1.000  O
  O33      1.0000 0.30217  0.29196  0.66180  Biso   1.000  O
  O34      1.0000 0.69783  0.70804  0.66180  Biso   1.000  O
  O35      1.0000 0.19783  0.79196  0.33820  Biso   1.000  O
  O36      1.0000 0.80217  0.20804  0.33820  Biso   1.000  O
  O37      1.0000 0.69783  0.70804  0.33820  Biso   1.000  O
  O38      1.0000 0.30217  0.29196  0.33820  Biso   1.000  O
  O39      1.0000 0.80217  0.20804  0.66180  Biso   1.000  O
  O40      1.0000 0.19783  0.79196  0.66180  Biso   1.000  O
  O41      1.0000 0.31772  0.31930  0.56660  Biso   1.000  O
  O42      1.0000 0.68228  0.68070  0.56660  Biso   1.000  O
  O43      1.0000 0.18228  0.81930  0.43340  Biso   1.000  O
  O44      1.0000 0.81772  0.18070  0.43340  Biso   1.000  O
  O45      1.0000 0.68228  0.68070  0.43340  Biso   1.000  O
  O46      1.0000 0.31772  0.31930  0.43340  Biso   1.000  O
  O47      1.0000 0.81772  0.18070  0.56660  Biso   1.000  O
  O48      1.0000 0.18228  0.81930  0.56660  Biso   1.000  O
  O49      1.0000 0.70082  0.26820  0.74340  Biso   1.000  O
  O50      1.0000 0.29918  0.73180  0.74340  Biso   1.000  O
  O51      1.0000 0.79918  0.76820  0.25660  Biso   1.000  O
  O52      1.0000 0.20082  0.23180  0.25660  Biso   1.000  O
  O53      1.0000 0.29918  0.73180  0.25660  Biso   1.000  O
  O54      1.0000 0.70082  0.26820  0.25660  Biso   1.000  O
  O55      1.0000 0.20082  0.23180  0.74340  Biso   1.000  O
  O56      1.0000 0.79918  0.76820  0.74340  Biso   1.000  O
  O57      1.0000 0.68482  0.26593  0.64090  Biso   1.000  O
  O58      1.0000 0.31518  0.73407  0.64090  Biso   1.000  O
  O59      1.0000 0.81518  0.76593  0.35910  Biso   1.000  O
  O60      1.0000 0.18482  0.23407  0.35910  Biso   1.000  O
  O61      1.0000 0.31518  0.73407  0.35910  Biso   1.000  O
  O62      1.0000 0.68482  0.26593  0.35910  Biso   1.000  O
  O63      1.0000 0.18482  0.23407  0.64090  Biso   1.000  O
  O64      1.0000 0.81518  0.76593  0.64090  Biso   1.000  O
  O65      1.0000 0.74868  0.23231  0.55326  Biso   1.000  O
  O66      1.0000 0.25132  0.76769  0.55326  Biso   1.000  O
  O67      1.0000 0.75132  0.73231  0.44674  Biso   1.000  O
  O68      1.0000 0.24868  0.26769  0.44674  Biso   1.000  O
  O69      1.0000 0.25132  0.76769  0.44674  Biso   1.000  O
  O70      1.0000 0.74868  0.23231  0.44674  Biso   1.000  O
  O71      1.0000 0.24868  0.26769  0.55326  Biso   1.000  O
  O72      1.0000 0.75132  0.73231  0.55326  Biso   1.000  O
  O73      1.0000 0.75350  0.20520  0.77690  Biso   1.000  O
  O74      1.0000 0.24650  0.79480  0.77690  Biso   1.000  O
  O75      1.0000 0.74650  0.70520  0.22310  Biso   1.000  O
  O76      1.0000 0.25350  0.29480  0.22310  Biso   1.000  O
  O77      1.0000 0.24650  0.79480  0.22310  Biso   1.000  O
  O78      1.0000 0.75350  0.20520  0.22310  Biso   1.000  O
  O79      1.0000 0.25350  0.29480  0.77690  Biso   1.000  O
  O80      1.0000 0.74650  0.70520  0.77690  Biso   1.000  O
  O81      1.0000 0.69570  0.17330  0.50000  Biso   1.000  O
  O82      1.0000 0.30430  0.82670  0.50000  Biso   1.000  O
  O83      1.0000 0.80430  0.67330  0.50000  Biso   1.000  O
  O84      1.0000 0.19570  0.32670  0.50000  Biso   1.000  O
  O85      1.0000 0.78920  0.10880  0.50000  Biso   1.000  O
  O86      1.0000 0.21080  0.89120  0.50000  Biso   1.000  O
  O87      1.0000 0.71080  0.60880  0.50000  Biso   1.000  O
  O88      1.0000 0.28920  0.39120  0.50000  Biso   1.000  O
  N1       1.0000 0.99560  0.50270  0.90050  Biso   1.000  N
  N2       1.0000 0.00440  0.49730  0.90050  Biso   1.000  N
  N3       1.0000 0.50440  0.00270  0.09950  Biso   1.000  N
  N4       1.0000 0.49560  0.99730  0.09950  Biso   1.000  N
  N5       1.0000 0.00440  0.49730  0.09950  Biso   1.000  N
  N6       1.0000 0.99560  0.50270  0.09950  Biso   1.000  N
  N7       1.0000 0.49560  0.99730  0.90050  Biso   1.000  N
  N8       1.0000 0.50440  0.00270  0.90050  Biso   1.000  N
  N9       1.0000 0.94318  0.49223  0.00000  Biso   1.000  N
  N10      1.0000 0.05682  0.50777  0.00000  Biso   1.000  N
  N11      1.0000 0.55682  0.99223  0.00000  Biso   1.000  N
  N12      1.0000 0.44318  0.00777  0.00000  Biso   1.000  N
  N13      1.0000 0.50053  0.44176  0.00000  Biso   1.000  N
  N14      1.0000 0.49947  0.55824  0.00000  Biso   1.000  N
  N15      1.0000 0.99947  0.94176  0.00000  Biso   1.000  N
  N16      1.0000 0.00053  0.05824  0.00000  Biso   1.000  N
  N17      1.0000 0.50000  0.50000  0.90130  Biso   1.000  N
  N18      1.0000 0.00000  0.00000  0.09870  Biso   1.000  N
  N19      1.0000 0.50000  0.50000  0.09870  Biso   1.000  N
  N20      1.0000 0.00000  0.00000  0.90130  Biso   1.000  N
  C1       1.0000 0.98160  0.49820  0.79190  Biso   1.000  C
  C2       1.0000 0.01840  0.50180  0.79190  Biso   1.000  C
  C3       1.0000 0.51840  0.99820  0.20810  Biso   1.000  C
  C4       1.0000 0.48160  0.00180  0.20810  Biso   1.000  C
  C5       1.0000 0.01840  0.50180  0.20810  Biso   1.000  C
  C6       1.0000 0.98160  0.49820  0.20810  Biso   1.000  C
  C7       1.0000 0.48160  0.00180  0.79190  Biso   1.000  C
  C8       1.0000 0.51840  0.99820  0.79190  Biso   1.000  C
  H1       1.0000 0.96620  0.49690  0.75410  Biso   1.000  H
  H2       1.0000 0.03380  0.50310  0.75410  Biso   1.000  H
  H3       1.0000 0.53380  0.99690  0.24590  Biso   1.000  H
  H4       1.0000 0.46620  0.00310  0.24590  Biso   1.000  H
  H5       1.0000 0.03380  0.50310  0.24590  Biso   1.000  H
  H6       1.0000 0.96620  0.49690  0.24590  Biso   1.000  H
  H7       1.0000 0.46620  0.00310  0.75410  Biso   1.000  H
  H8       1.0000 0.53380  0.99690  0.75410  Biso   1.000  H
  C9       1.0000 0.96812  0.49683  0.85840  Biso   1.000  C
  C10      1.0000 0.03188  0.50317  0.85840  Biso   1.000  C
  C11      1.0000 0.53188  0.99683  0.14160  Biso   1.000  C
  C12      1.0000 0.46812  0.00317  0.14160  Biso   1.000  C
  C13      1.0000 0.03188  0.50317  0.14160  Biso   1.000  C
  C14      1.0000 0.96812  0.49683  0.14160  Biso   1.000  C
  C15      1.0000 0.46812  0.00317  0.85840  Biso   1.000  C
  C16      1.0000 0.53188  0.99683  0.85840  Biso   1.000  C
  C17      1.0000 0.93065  0.49268  0.87990  Biso   1.000  C
  C18      1.0000 0.06935  0.50732  0.87990  Biso   1.000  C
  C19      1.0000 0.56935  0.99268  0.12010  Biso   1.000  C
  C20      1.0000 0.43065  0.00732  0.12010  Biso   1.000  C
  C21      1.0000 0.06935  0.50732  0.12010  Biso   1.000  C
  C22      1.0000 0.93065  0.49268  0.12010  Biso   1.000  C
  C23      1.0000 0.43065  0.00732  0.87990  Biso   1.000  C
  C24      1.0000 0.56935  0.99268  0.87990  Biso   1.000  C
  C25      1.0000 0.91904  0.49002  0.94490  Biso   1.000  C
  C26      1.0000 0.08096  0.50998  0.94490  Biso   1.000  C
  C27      1.0000 0.58096  0.99002  0.05510  Biso   1.000  C
  C28      1.0000 0.41904  0.00998  0.05510  Biso   1.000  C
  C29      1.0000 0.08096  0.50998  0.05510  Biso   1.000  C
  C30      1.0000 0.91904  0.49002  0.05510  Biso   1.000  C
  C31      1.0000 0.41904  0.00998  0.94490  Biso   1.000  C
  C32      1.0000 0.58096  0.99002  0.94490  Biso   1.000  C
  C33      1.0000 0.88025  0.48550  0.96800  Biso   1.000  C
  C34      1.0000 0.11975  0.51450  0.96800  Biso   1.000  C
  C35      1.0000 0.61975  0.98550  0.03200  Biso   1.000  C
  C36      1.0000 0.38025  0.01450  0.03200  Biso   1.000  C
  C37      1.0000 0.11975  0.51450  0.03200  Biso   1.000  C
  C38      1.0000 0.88025  0.48550  0.03200  Biso   1.000  C
  C39      1.0000 0.38025  0.01450  0.96800  Biso   1.000  C
  C40      1.0000 0.61975  0.98550  0.96800  Biso   1.000  C
  H9       1.0000 0.85870  0.48300  0.94110  Biso   1.000  H
  H10      1.0000 0.14130  0.51700  0.94110  Biso   1.000  H
  H11      1.0000 0.64130  0.98300  0.05890  Biso   1.000  H
  H12      1.0000 0.35870  0.01700  0.05890  Biso   1.000  H
  H13      1.0000 0.14130  0.51700  0.05890  Biso   1.000  H
  H14      1.0000 0.85870  0.48300  0.05890  Biso   1.000  H
  H15      1.0000 0.35870  0.01700  0.94110  Biso   1.000  H
  H16      1.0000 0.64130  0.98300  0.94110  Biso   1.000  H
  C41      1.0000 0.90073  0.48832  0.82640  Biso   1.000  C
  C42      1.0000 0.09927  0.51168  0.82640  Biso   1.000  C
  C43      1.0000 0.59927  0.98832  0.17360  Biso   1.000  C
  C44      1.0000 0.40073  0.01168  0.17360  Biso   1.000  C
  C45      1.0000 0.09927  0.51168  0.17360  Biso   1.000  C
  C46      1.0000 0.90073  0.48832  0.17360  Biso   1.000  C
  C47      1.0000 0.40073  0.01168  0.82640  Biso   1.000  C
  C48      1.0000 0.59927  0.98832  0.82640  Biso   1.000  C
  C49      1.0000 0.88578  0.45352  0.80820  Biso   1.000  C
  C50      1.0000 0.11422  0.54648  0.80820  Biso   1.000  C
  C51      1.0000 0.61422  0.95352  0.19180  Biso   1.000  C
  C52      1.0000 0.38578  0.04648  0.19180  Biso   1.000  C
  C53      1.0000 0.11422  0.54648  0.19180  Biso   1.000  C
  C54      1.0000 0.88578  0.45352  0.19180  Biso   1.000  C
  C55      1.0000 0.38578  0.04648  0.80820  Biso   1.000  C
  C56      1.0000 0.61422  0.95352  0.80820  Biso   1.000  C
  H17      1.0000 0.89550  0.43160  0.82820  Biso   1.000  H
  H18      1.0000 0.10450  0.56840  0.82820  Biso   1.000  H
  H19      1.0000 0.60450  0.93160  0.17180  Biso   1.000  H
  H20      1.0000 0.39550  0.06840  0.17180  Biso   1.000  H
  H21      1.0000 0.10450  0.56840  0.17180  Biso   1.000  H
  H22      1.0000 0.89550  0.43160  0.17180  Biso   1.000  H
  H23      1.0000 0.39550  0.06840  0.82820  Biso   1.000  H
  H24      1.0000 0.60450  0.93160  0.82820  Biso   1.000  H
  C57      1.0000 0.85671  0.44962  0.76130  Biso   1.000  C
  C58      1.0000 0.14329  0.55038  0.76130  Biso   1.000  C
  C59      1.0000 0.64329  0.94962  0.23870  Biso   1.000  C
  C60      1.0000 0.35671  0.05038  0.23870  Biso   1.000  C
  C61      1.0000 0.14329  0.55038  0.23870  Biso   1.000  C
  C62      1.0000 0.85671  0.44962  0.23870  Biso   1.000  C
  C63      1.0000 0.35671  0.05038  0.76130  Biso   1.000  C
  C64      1.0000 0.64329  0.94962  0.76130  Biso   1.000  C
  C65      1.0000 0.84262  0.48275  0.73320  Biso   1.000  C
  C66      1.0000 0.15738  0.51725  0.73320  Biso   1.000  C
  C67      1.0000 0.65738  0.98275  0.26680  Biso   1.000  C
  C68      1.0000 0.34262  0.01725  0.26680  Biso   1.000  C
  C69      1.0000 0.15738  0.51725  0.26680  Biso   1.000  C
  C70      1.0000 0.84262  0.48275  0.26680  Biso   1.000  C
  C71      1.0000 0.34262  0.01725  0.73320  Biso   1.000  C
  C72      1.0000 0.65738  0.98275  0.73320  Biso   1.000  C
  H25      1.0000 0.82270  0.48080  0.70260  Biso   1.000  H
  H26      1.0000 0.17730  0.51920  0.70260  Biso   1.000  H
  H27      1.0000 0.67730  0.98080  0.29740  Biso   1.000  H
  H28      1.0000 0.32270  0.01920  0.29740  Biso   1.000  H
  H29      1.0000 0.17730  0.51920  0.29740  Biso   1.000  H
  H30      1.0000 0.82270  0.48080  0.29740  Biso   1.000  H
  H31      1.0000 0.32270  0.01920  0.70260  Biso   1.000  H
  H32      1.0000 0.67730  0.98080  0.70260  Biso   1.000  H
  C73      1.0000 0.85648  0.51847  0.74810  Biso   1.000  C
  C74      1.0000 0.14352  0.48153  0.74810  Biso   1.000  C
  C75      1.0000 0.64352  0.01847  0.25190  Biso   1.000  C
  C76      1.0000 0.35648  0.98153  0.25190  Biso   1.000  C
  C77      1.0000 0.14352  0.48153  0.25190  Biso   1.000  C
  C78      1.0000 0.85648  0.51847  0.25190  Biso   1.000  C
  C79      1.0000 0.35648  0.98153  0.74810  Biso   1.000  C
  C80      1.0000 0.64352  0.01847  0.74810  Biso   1.000  C
  C81      1.0000 0.88519  0.52049  0.79820  Biso   1.000  C
  C82      1.0000 0.11481  0.47951  0.79820  Biso   1.000  C
  C83      1.0000 0.61481  0.02049  0.20180  Biso   1.000  C
  C84      1.0000 0.38519  0.97951  0.20180  Biso   1.000  C
  C85      1.0000 0.11481  0.47951  0.20180  Biso   1.000  C
  C86      1.0000 0.88519  0.52049  0.20180  Biso   1.000  C
  C87      1.0000 0.38519  0.97951  0.79820  Biso   1.000  C
  C88      1.0000 0.61481  0.02049  0.79820  Biso   1.000  C
  H33      1.0000 0.89370  0.54430  0.81220  Biso   1.000  H
  H34      1.0000 0.10630  0.45570  0.81220  Biso   1.000  H
  H35      1.0000 0.60630  0.04430  0.18780  Biso   1.000  H
  H36      1.0000 0.39370  0.95570  0.18780  Biso   1.000  H
  H37      1.0000 0.10630  0.45570  0.18780  Biso   1.000  H
  H38      1.0000 0.89370  0.54430  0.18780  Biso   1.000  H
  H39      1.0000 0.39370  0.95570  0.81220  Biso   1.000  H
  H40      1.0000 0.60630  0.04430  0.81220  Biso   1.000  H
  C89      1.0000 0.83860  0.55457  0.71940  Biso   1.000  C
  C90      1.0000 0.16140  0.44543  0.71940  Biso   1.000  C
  C91      1.0000 0.66140  0.05457  0.28060  Biso   1.000  C
  C92      1.0000 0.33860  0.94543  0.28060  Biso   1.000  C
  C93      1.0000 0.16140  0.44543  0.28060  Biso   1.000  C
  C94      1.0000 0.83860  0.55457  0.28060  Biso   1.000  C
  C95      1.0000 0.33860  0.94543  0.71940  Biso   1.000  C
  C96      1.0000 0.66140  0.05457  0.71940  Biso   1.000  C
  C97      1.0000 0.82250  0.55320  0.65760  Biso   1.000  C
  C98      1.0000 0.17750  0.44680  0.65760  Biso   1.000  C
  C99      1.0000 0.67750  0.05320  0.34240  Biso   1.000  C
  C100     1.0000 0.32250  0.94680  0.34240  Biso   1.000  C
  C101     1.0000 0.17750  0.44680  0.34240  Biso   1.000  C
  C102     1.0000 0.82250  0.55320  0.34240  Biso   1.000  C
  C103     1.0000 0.32250  0.94680  0.65760  Biso   1.000  C
  C104     1.0000 0.67750  0.05320  0.65760  Biso   1.000  C
  H41      1.0000 0.82350  0.53070  0.63310  Biso   1.000  H
  H42      1.0000 0.17650  0.46930  0.63310  Biso   1.000  H
  H43      1.0000 0.67650  0.03070  0.36690  Biso   1.000  H
  H44      1.0000 0.32350  0.96930  0.36690  Biso   1.000  H
  H45      1.0000 0.17650  0.46930  0.36690  Biso   1.000  H
  H46      1.0000 0.82350  0.53070  0.36690  Biso   1.000  H
  H47      1.0000 0.32350  0.96930  0.63310  Biso   1.000  H
  H48      1.0000 0.67650  0.03070  0.63310  Biso   1.000  H
  C105     1.0000 0.80540  0.58370  0.63230  Biso   1.000  C
  C106     1.0000 0.19460  0.41630  0.63230  Biso   1.000  C
  C107     1.0000 0.69460  0.08370  0.36770  Biso   1.000  C
  C108     1.0000 0.30540  0.91630  0.36770  Biso   1.000  C
  C109     1.0000 0.19460  0.41630  0.36770  Biso   1.000  C
  C110     1.0000 0.80540  0.58370  0.36770  Biso   1.000  C
  C111     1.0000 0.30540  0.91630  0.63230  Biso   1.000  C
  C112     1.0000 0.69460  0.08370  0.63230  Biso   1.000  C
  H49      1.0000 0.79510  0.58180  0.58980  Biso   1.000  H
  H50      1.0000 0.20490  0.41820  0.58980  Biso   1.000  H
  H51      1.0000 0.70490  0.08180  0.41020  Biso   1.000  H
  H52      1.0000 0.29510  0.91820  0.41020  Biso   1.000  H
  H53      1.0000 0.20490  0.41820  0.41020  Biso   1.000  H
  H54      1.0000 0.79510  0.58180  0.41020  Biso   1.000  H
  H55      1.0000 0.29510  0.91820  0.58980  Biso   1.000  H
  H56      1.0000 0.70490  0.08180  0.58980  Biso   1.000  H
  C113     1.0000 0.80216  0.61751  0.66480  Biso   1.000  C
  C114     1.0000 0.19784  0.38249  0.66480  Biso   1.000  C
  C115     1.0000 0.69784  0.11751  0.33520  Biso   1.000  C
  C116     1.0000 0.30216  0.88249  0.33520  Biso   1.000  C
  C117     1.0000 0.19784  0.38249  0.33520  Biso   1.000  C
  C118     1.0000 0.80216  0.61751  0.33520  Biso   1.000  C
  C119     1.0000 0.30216  0.88249  0.66480  Biso   1.000  C
  C120     1.0000 0.69784  0.11751  0.66480  Biso   1.000  C
  C121     1.0000 0.82180  0.61920  0.72000  Biso   1.000  C
  C122     1.0000 0.17820  0.38080  0.72000  Biso   1.000  C
  C123     1.0000 0.67820  0.11920  0.28000  Biso   1.000  C
  C124     1.0000 0.32180  0.88080  0.28000  Biso   1.000  C
  C125     1.0000 0.17820  0.38080  0.28000  Biso   1.000  C
  C126     1.0000 0.82180  0.61920  0.28000  Biso   1.000  C
  C127     1.0000 0.32180  0.88080  0.72000  Biso   1.000  C
  C128     1.0000 0.67820  0.11920  0.72000  Biso   1.000  C
  H57      1.0000 0.82390  0.64260  0.74150  Biso   1.000  H
  H58      1.0000 0.17610  0.35740  0.74150  Biso   1.000  H
  H59      1.0000 0.67610  0.14260  0.25850  Biso   1.000  H
  H60      1.0000 0.32390  0.85740  0.25850  Biso   1.000  H
  H61      1.0000 0.17610  0.35740  0.25850  Biso   1.000  H
  H62      1.0000 0.82390  0.64260  0.25850  Biso   1.000  H
  H63      1.0000 0.32390  0.85740  0.74150  Biso   1.000  H
  H64      1.0000 0.67610  0.14260  0.74150  Biso   1.000  H
  C129     1.0000 0.83970  0.58755  0.74840  Biso   1.000  C
  C130     1.0000 0.16030  0.41245  0.74840  Biso   1.000  C
  C131     1.0000 0.66030  0.08755  0.25160  Biso   1.000  C
  C132     1.0000 0.33970  0.91245  0.25160  Biso   1.000  C
  C133     1.0000 0.16030  0.41245  0.25160  Biso   1.000  C
  C134     1.0000 0.83970  0.58755  0.25160  Biso   1.000  C
  C135     1.0000 0.33970  0.91245  0.74840  Biso   1.000  C
  C136     1.0000 0.66030  0.08755  0.74840  Biso   1.000  C
  H65      1.0000 0.85260  0.59020  0.78870  Biso   1.000  H
  H66      1.0000 0.14740  0.40980  0.78870  Biso   1.000  H
  H67      1.0000 0.64740  0.09020  0.21130  Biso   1.000  H
  H68      1.0000 0.35260  0.90980  0.21130  Biso   1.000  H
  H69      1.0000 0.14740  0.40980  0.21130  Biso   1.000  H
  H70      1.0000 0.85260  0.59020  0.21130  Biso   1.000  H
  H71      1.0000 0.35260  0.90980  0.78870  Biso   1.000  H
  H72      1.0000 0.64740  0.09020  0.78870  Biso   1.000  H
  C137     1.0000 0.78335  0.65142  0.63890  Biso   1.000  C
  C138     1.0000 0.21665  0.34858  0.63890  Biso   1.000  C
  C139     1.0000 0.71665  0.15142  0.36110  Biso   1.000  C
  C140     1.0000 0.28335  0.84858  0.36110  Biso   1.000  C
  C141     1.0000 0.21665  0.34858  0.36110  Biso   1.000  C
  C142     1.0000 0.78335  0.65142  0.36110  Biso   1.000  C
  C143     1.0000 0.28335  0.84858  0.63890  Biso   1.000  C
  C144     1.0000 0.71665  0.15142  0.63890  Biso   1.000  C
  C145     1.0000 0.83952  0.41148  0.74540  Biso   1.000  C
  C146     1.0000 0.16048  0.58852  0.74540  Biso   1.000  C
  C147     1.0000 0.66048  0.91148  0.25460  Biso   1.000  C
  C148     1.0000 0.33952  0.08852  0.25460  Biso   1.000  C
  C149     1.0000 0.16048  0.58852  0.25460  Biso   1.000  C
  C150     1.0000 0.83952  0.41148  0.25460  Biso   1.000  C
  C151     1.0000 0.33952  0.08852  0.74540  Biso   1.000  C
  C152     1.0000 0.66048  0.91148  0.74540  Biso   1.000  C
  C153     1.0000 0.83760  0.38265  0.79030  Biso   1.000  C
  C154     1.0000 0.16240  0.61735  0.79030  Biso   1.000  C
  C155     1.0000 0.66240  0.88265  0.20970  Biso   1.000  C
  C156     1.0000 0.33760  0.11735  0.20970  Biso   1.000  C
  C157     1.0000 0.16240  0.61735  0.20970  Biso   1.000  C
  C158     1.0000 0.83760  0.38265  0.20970  Biso   1.000  C
  C159     1.0000 0.33760  0.11735  0.79030  Biso   1.000  C
  C160     1.0000 0.66240  0.88265  0.79030  Biso   1.000  C
  H73      1.0000 0.84800  0.38650  0.83250  Biso   1.000  H
  H74      1.0000 0.15200  0.61350  0.83250  Biso   1.000  H
  H75      1.0000 0.65200  0.88650  0.16750  Biso   1.000  H
  H76      1.0000 0.34800  0.11350  0.16750  Biso   1.000  H
  H77      1.0000 0.15200  0.61350  0.16750  Biso   1.000  H
  H78      1.0000 0.84800  0.38650  0.16750  Biso   1.000  H
  H79      1.0000 0.34800  0.11350  0.83250  Biso   1.000  H
  H80      1.0000 0.65200  0.88650  0.83250  Biso   1.000  H
  C161     1.0000 0.82150  0.34870  0.77650  Biso   1.000  C
  C162     1.0000 0.17850  0.65130  0.77650  Biso   1.000  C
  C163     1.0000 0.67850  0.84870  0.22350  Biso   1.000  C
  C164     1.0000 0.32150  0.15130  0.22350  Biso   1.000  C
  C165     1.0000 0.17850  0.65130  0.22350  Biso   1.000  C
  C166     1.0000 0.82150  0.34870  0.22350  Biso   1.000  C
  C167     1.0000 0.32150  0.15130  0.77650  Biso   1.000  C
  C168     1.0000 0.67850  0.84870  0.77650  Biso   1.000  C
  H81      1.0000 0.82000  0.33040  0.80980  Biso   1.000  H
  H82      1.0000 0.18000  0.66960  0.80980  Biso   1.000  H
  H83      1.0000 0.68000  0.83040  0.19020  Biso   1.000  H
  H84      1.0000 0.32000  0.16960  0.19020  Biso   1.000  H
  H85      1.0000 0.18000  0.66960  0.19020  Biso   1.000  H
  H86      1.0000 0.82000  0.33040  0.19020  Biso   1.000  H
  H87      1.0000 0.32000  0.16960  0.80980  Biso   1.000  H
  H88      1.0000 0.68000  0.83040  0.80980  Biso   1.000  H
  C169     1.0000 0.80692  0.34021  0.71380  Biso   1.000  C
  C170     1.0000 0.19308  0.65979  0.71380  Biso   1.000  C
  C171     1.0000 0.69308  0.84021  0.28620  Biso   1.000  C
  C172     1.0000 0.30692  0.15979  0.28620  Biso   1.000  C
  C173     1.0000 0.19308  0.65979  0.28620  Biso   1.000  C
  C174     1.0000 0.80692  0.34021  0.28620  Biso   1.000  C
  C175     1.0000 0.30692  0.15979  0.71380  Biso   1.000  C
  C176     1.0000 0.69308  0.84021  0.71380  Biso   1.000  C
  C177     1.0000 0.81010  0.36820  0.66570  Biso   1.000  C
  C178     1.0000 0.18990  0.63180  0.66570  Biso   1.000  C
  C179     1.0000 0.68990  0.86820  0.33430  Biso   1.000  C
  C180     1.0000 0.31010  0.13180  0.33430  Biso   1.000  C
  C181     1.0000 0.18990  0.63180  0.33430  Biso   1.000  C
  C182     1.0000 0.81010  0.36820  0.33430  Biso   1.000  C
  C183     1.0000 0.31010  0.13180  0.66570  Biso   1.000  C
  C184     1.0000 0.68990  0.86820  0.66570  Biso   1.000  C
  H89      1.0000 0.80100  0.36390  0.62290  Biso   1.000  H
  H90      1.0000 0.19900  0.63610  0.62290  Biso   1.000  H
  H91      1.0000 0.69900  0.86390  0.37710  Biso   1.000  H
  H92      1.0000 0.30100  0.13610  0.37710  Biso   1.000  H
  H93      1.0000 0.19900  0.63610  0.37710  Biso   1.000  H
  H94      1.0000 0.80100  0.36390  0.37710  Biso   1.000  H
  H95      1.0000 0.30100  0.13610  0.62290  Biso   1.000  H
  H96      1.0000 0.69900  0.86390  0.62290  Biso   1.000  H
  C185     1.0000 0.82750  0.40350  0.68280  Biso   1.000  C
  C186     1.0000 0.17250  0.59650  0.68280  Biso   1.000  C
  C187     1.0000 0.67250  0.90350  0.31720  Biso   1.000  C
  C188     1.0000 0.32750  0.09650  0.31720  Biso   1.000  C
  C189     1.0000 0.17250  0.59650  0.31720  Biso   1.000  C
  C190     1.0000 0.82750  0.40350  0.31720  Biso   1.000  C
  C191     1.0000 0.32750  0.09650  0.68280  Biso   1.000  C
  C192     1.0000 0.67250  0.90350  0.68280  Biso   1.000  C
  H97      1.0000 0.83080  0.42180  0.64980  Biso   1.000  H
  H98      1.0000 0.16920  0.57820  0.64980  Biso   1.000  H
  H99      1.0000 0.66920  0.92180  0.35020  Biso   1.000  H
  H100     1.0000 0.33080  0.07820  0.35020  Biso   1.000  H
  H101     1.0000 0.16920  0.57820  0.35020  Biso   1.000  H
  H102     1.0000 0.83080  0.42180  0.35020  Biso   1.000  H
  H103     1.0000 0.33080  0.07820  0.64980  Biso   1.000  H
  H104     1.0000 0.66920  0.92180  0.64980  Biso   1.000  H
  C193     1.0000 0.78800  0.30404  0.69520  Biso   1.000  C
  C194     1.0000 0.21200  0.69596  0.69520  Biso   1.000  C
  C195     1.0000 0.71200  0.80404  0.30480  Biso   1.000  C
  C196     1.0000 0.28800  0.19596  0.30480  Biso   1.000  C
  C197     1.0000 0.21200  0.69596  0.30480  Biso   1.000  C
  C198     1.0000 0.78800  0.30404  0.30480  Biso   1.000  C
  C199     1.0000 0.28800  0.19596  0.69520  Biso   1.000  C
  C200     1.0000 0.71200  0.80404  0.69520  Biso   1.000  C
  C201     1.0000 0.50225  0.38062  0.96690  Biso   1.000  C
  C202     1.0000 0.49775  0.61938  0.96690  Biso   1.000  C
  C203     1.0000 0.99775  0.88062  0.03310  Biso   1.000  C
  C204     1.0000 0.00225  0.11938  0.03310  Biso   1.000  C
  C205     1.0000 0.49775  0.61938  0.03310  Biso   1.000  C
  C206     1.0000 0.50225  0.38062  0.03310  Biso   1.000  C
  C207     1.0000 0.00225  0.11938  0.96690  Biso   1.000  C
  C208     1.0000 0.99775  0.88062  0.96690  Biso   1.000  C
  H105     1.0000 0.50280  0.35920  0.93940  Biso   1.000  H
  H106     1.0000 0.49720  0.64080  0.93940  Biso   1.000  H
  H107     1.0000 0.99720  0.85920  0.06060  Biso   1.000  H
  H108     1.0000 0.00280  0.14080  0.06060  Biso   1.000  H
  H109     1.0000 0.49720  0.64080  0.06060  Biso   1.000  H
  H110     1.0000 0.50280  0.35920  0.06060  Biso   1.000  H
  H111     1.0000 0.00280  0.14080  0.93940  Biso   1.000  H
  H112     1.0000 0.99720  0.85920  0.93940  Biso   1.000  H
  C209     1.0000 0.50125  0.41964  0.94550  Biso   1.000  C
  C210     1.0000 0.49875  0.58036  0.94550  Biso   1.000  C
  C211     1.0000 0.99875  0.91964  0.05450  Biso   1.000  C
  C212     1.0000 0.00125  0.08036  0.05450  Biso   1.000  C
  C213     1.0000 0.49875  0.58036  0.05450  Biso   1.000  C
  C214     1.0000 0.50125  0.41964  0.05450  Biso   1.000  C
  C215     1.0000 0.00125  0.08036  0.94550  Biso   1.000  C
  C216     1.0000 0.99875  0.91964  0.94550  Biso   1.000  C
  C217     1.0000 0.50059  0.43069  0.87910  Biso   1.000  C
  C218     1.0000 0.49941  0.56931  0.87910  Biso   1.000  C
  C219     1.0000 0.99941  0.93069  0.12090  Biso   1.000  C
  C220     1.0000 0.00059  0.06931  0.12090  Biso   1.000  C
  C221     1.0000 0.49941  0.56931  0.12090  Biso   1.000  C
  C222     1.0000 0.50059  0.43069  0.12090  Biso   1.000  C
  C223     1.0000 0.00059  0.06931  0.87910  Biso   1.000  C
  C224     1.0000 0.99941  0.93069  0.87910  Biso   1.000  C
  C225     1.0000 0.49954  0.46871  0.85820  Biso   1.000  C
  C226     1.0000 0.50046  0.53129  0.85820  Biso   1.000  C
  C227     1.0000 0.00046  0.96871  0.14180  Biso   1.000  C
  C228     1.0000 0.99954  0.03129  0.14180  Biso   1.000  C
  C229     1.0000 0.50046  0.53129  0.14180  Biso   1.000  C
  C230     1.0000 0.49954  0.46871  0.14180  Biso   1.000  C
  C231     1.0000 0.99954  0.03129  0.85820  Biso   1.000  C
  C232     1.0000 0.00046  0.96871  0.85820  Biso   1.000  C
  C233     1.0000 0.49970  0.48111  0.79160  Biso   1.000  C
  C234     1.0000 0.50030  0.51889  0.79160  Biso   1.000  C
  C235     1.0000 0.00030  0.98111  0.20840  Biso   1.000  C
  C236     1.0000 0.99970  0.01889  0.20840  Biso   1.000  C
  C237     1.0000 0.50030  0.51889  0.20840  Biso   1.000  C
  C238     1.0000 0.49970  0.48111  0.20840  Biso   1.000  C
  C239     1.0000 0.99970  0.01889  0.79160  Biso   1.000  C
  C240     1.0000 0.00030  0.98111  0.79160  Biso   1.000  C
  H113     1.0000 0.49950  0.46550  0.75420  Biso   1.000  H
  H114     1.0000 0.50050  0.53450  0.75420  Biso   1.000  H
  H115     1.0000 0.00050  0.96550  0.24580  Biso   1.000  H
  H116     1.0000 0.99950  0.03450  0.24580  Biso   1.000  H
  H117     1.0000 0.50050  0.53450  0.24580  Biso   1.000  H
  H118     1.0000 0.49950  0.46550  0.24580  Biso   1.000  H
  H119     1.0000 0.99950  0.03450  0.75420  Biso   1.000  H
  H120     1.0000 0.00050  0.96550  0.75420  Biso   1.000  H
  C241     1.0000 0.50080  0.40058  0.82490  Biso   1.000  C
  C242     1.0000 0.49920  0.59942  0.82490  Biso   1.000  C
  C243     1.0000 0.99920  0.90058  0.17510  Biso   1.000  C
  C244     1.0000 0.00080  0.09942  0.17510  Biso   1.000  C
  C245     1.0000 0.49920  0.59942  0.17510  Biso   1.000  C
  C246     1.0000 0.50080  0.40058  0.17510  Biso   1.000  C
  C247     1.0000 0.00080  0.09942  0.82490  Biso   1.000  C
  C248     1.0000 0.99920  0.90058  0.82490  Biso   1.000  C
  C249     1.0000 0.46668  0.38901  0.79530  Biso   1.000  C
  C250     1.0000 0.53332  0.61099  0.79530  Biso   1.000  C
  C251     1.0000 0.03332  0.88901  0.20470  Biso   1.000  C
  C252     1.0000 0.96668  0.11099  0.20470  Biso   1.000  C
  C253     1.0000 0.53332  0.61099  0.20470  Biso   1.000  C
  C254     1.0000 0.46668  0.38901  0.20470  Biso   1.000  C
  C255     1.0000 0.96668  0.11099  0.79530  Biso   1.000  C
  C256     1.0000 0.03332  0.88901  0.79530  Biso   1.000  C
  H121     1.0000 0.44360  0.39990  0.80900  Biso   1.000  H
  H122     1.0000 0.55640  0.60010  0.80900  Biso   1.000  H
  H123     1.0000 0.05640  0.89990  0.19100  Biso   1.000  H
  H124     1.0000 0.94360  0.10010  0.19100  Biso   1.000  H
  H125     1.0000 0.55640  0.60010  0.19100  Biso   1.000  H
  H126     1.0000 0.44360  0.39990  0.19100  Biso   1.000  H
  H127     1.0000 0.94360  0.10010  0.80900  Biso   1.000  H
  H128     1.0000 0.05640  0.89990  0.80900  Biso   1.000  H
  C257     1.0000 0.46654  0.36181  0.74630  Biso   1.000  C
  C258     1.0000 0.53346  0.63819  0.74630  Biso   1.000  C
  C259     1.0000 0.03346  0.86181  0.25370  Biso   1.000  C
  C260     1.0000 0.96654  0.13819  0.25370  Biso   1.000  C
  C261     1.0000 0.53346  0.63819  0.25370  Biso   1.000  C
  C262     1.0000 0.46654  0.36181  0.25370  Biso   1.000  C
  C263     1.0000 0.96654  0.13819  0.74630  Biso   1.000  C
  C264     1.0000 0.03346  0.86181  0.74630  Biso   1.000  C
  C265     1.0000 0.50059  0.34566  0.73000  Biso   1.000  C
  C266     1.0000 0.49941  0.65434  0.73000  Biso   1.000  C
  C267     1.0000 0.99941  0.84566  0.27000  Biso   1.000  C
  C268     1.0000 0.00059  0.15434  0.27000  Biso   1.000  C
  C269     1.0000 0.49941  0.65434  0.27000  Biso   1.000  C
  C270     1.0000 0.50059  0.34566  0.27000  Biso   1.000  C
  C271     1.0000 0.00059  0.15434  0.73000  Biso   1.000  C
  C272     1.0000 0.99941  0.84566  0.73000  Biso   1.000  C
  H129     1.0000 0.50040  0.32670  0.69760  Biso   1.000  H
  H130     1.0000 0.49960  0.67330  0.69760  Biso   1.000  H
  H131     1.0000 0.99960  0.82670  0.30240  Biso   1.000  H
  H132     1.0000 0.00040  0.17330  0.30240  Biso   1.000  H
  H133     1.0000 0.49960  0.67330  0.30240  Biso   1.000  H
  H134     1.0000 0.50040  0.32670  0.30240  Biso   1.000  H
  H135     1.0000 0.00040  0.17330  0.69760  Biso   1.000  H
  H136     1.0000 0.99960  0.82670  0.69760  Biso   1.000  H
  C273     1.0000 0.53586  0.35522  0.75770  Biso   1.000  C
  C274     1.0000 0.46414  0.64478  0.75770  Biso   1.000  C
  C275     1.0000 0.96414  0.85522  0.24230  Biso   1.000  C
  C276     1.0000 0.03586  0.14478  0.24230  Biso   1.000  C
  C277     1.0000 0.46414  0.64478  0.24230  Biso   1.000  C
  C278     1.0000 0.53586  0.35522  0.24230  Biso   1.000  C
  C279     1.0000 0.03586  0.14478  0.75770  Biso   1.000  C
  C280     1.0000 0.96414  0.85522  0.75770  Biso   1.000  C
  C281     1.0000 0.53414  0.38272  0.80770  Biso   1.000  C
  C282     1.0000 0.46586  0.61728  0.80770  Biso   1.000  C
  C283     1.0000 0.96586  0.88272  0.19230  Biso   1.000  C
  C284     1.0000 0.03414  0.11728  0.19230  Biso   1.000  C
  C285     1.0000 0.46586  0.61728  0.19230  Biso   1.000  C
  C286     1.0000 0.53414  0.38272  0.19230  Biso   1.000  C
  C287     1.0000 0.03414  0.11728  0.80770  Biso   1.000  C
  C288     1.0000 0.96586  0.88272  0.80770  Biso   1.000  C
  H137     1.0000 0.55660  0.38910  0.83020  Biso   1.000  H
  H138     1.0000 0.44340  0.61090  0.83020  Biso   1.000  H
  H139     1.0000 0.94340  0.88910  0.16980  Biso   1.000  H
  H140     1.0000 0.05660  0.11090  0.16980  Biso   1.000  H
  H141     1.0000 0.44340  0.61090  0.16980  Biso   1.000  H
  H142     1.0000 0.55660  0.38910  0.16980  Biso   1.000  H
  H143     1.0000 0.05660  0.11090  0.83020  Biso   1.000  H
  H144     1.0000 0.94340  0.88910  0.83020  Biso   1.000  H
  C289     1.0000 0.42918  0.34896  0.71510  Biso   1.000  C
  C290     1.0000 0.57082  0.65104  0.71510  Biso   1.000  C
  C291     1.0000 0.07082  0.84896  0.28490  Biso   1.000  C
  C292     1.0000 0.92918  0.15104  0.28490  Biso   1.000  C
  C293     1.0000 0.57082  0.65104  0.28490  Biso   1.000  C
  C294     1.0000 0.42918  0.34896  0.28490  Biso   1.000  C
  C295     1.0000 0.92918  0.15104  0.71510  Biso   1.000  C
  C296     1.0000 0.07082  0.84896  0.71510  Biso   1.000  C
  C297     1.0000 0.39860  0.34210  0.75040  Biso   1.000  C
  C298     1.0000 0.60140  0.65790  0.75040  Biso   1.000  C
  C299     1.0000 0.10140  0.84210  0.24960  Biso   1.000  C
  C300     1.0000 0.89860  0.15790  0.24960  Biso   1.000  C
  C301     1.0000 0.60140  0.65790  0.24960  Biso   1.000  C
  C302     1.0000 0.39860  0.34210  0.24960  Biso   1.000  C
  C303     1.0000 0.89860  0.15790  0.75040  Biso   1.000  C
  C304     1.0000 0.10140  0.84210  0.75040  Biso   1.000  C
  H145     1.0000 0.39920  0.34840  0.79530  Biso   1.000  H
  H146     1.0000 0.60080  0.65160  0.79530  Biso   1.000  H
  H147     1.0000 0.10080  0.84840  0.20470  Biso   1.000  H
  H148     1.0000 0.89920  0.15160  0.20470  Biso   1.000  H
  H149     1.0000 0.60080  0.65160  0.20470  Biso   1.000  H
  H150     1.0000 0.39920  0.34840  0.20470  Biso   1.000  H
  H151     1.0000 0.89920  0.15160  0.79530  Biso   1.000  H
  H152     1.0000 0.10080  0.84840  0.79530  Biso   1.000  H
  C305     1.0000 0.36520  0.32580  0.72510  Biso   1.000  C
  C306     1.0000 0.63480  0.67420  0.72510  Biso   1.000  C
  C307     1.0000 0.13480  0.82580  0.27490  Biso   1.000  C
  C308     1.0000 0.86520  0.17420  0.27490  Biso   1.000  C
  C309     1.0000 0.63480  0.67420  0.27490  Biso   1.000  C
  C310     1.0000 0.36520  0.32580  0.27490  Biso   1.000  C
  C311     1.0000 0.86520  0.17420  0.72510  Biso   1.000  C
  C312     1.0000 0.13480  0.82580  0.72510  Biso   1.000  C
  H153     1.0000 0.34660  0.31590  0.75350  Biso   1.000  H
  H154     1.0000 0.65340  0.68410  0.75350  Biso   1.000  H
  H155     1.0000 0.15340  0.81590  0.24650  Biso   1.000  H
  H156     1.0000 0.84660  0.18410  0.24650  Biso   1.000  H
  H157     1.0000 0.65340  0.68410  0.24650  Biso   1.000  H
  H158     1.0000 0.34660  0.31590  0.24650  Biso   1.000  H
  H159     1.0000 0.84660  0.18410  0.75350  Biso   1.000  H
  H160     1.0000 0.15340  0.81590  0.75350  Biso   1.000  H
  C313     1.0000 0.36041  0.32457  0.65900  Biso   1.000  C
  C314     1.0000 0.63959  0.67543  0.65900  Biso   1.000  C
  C315     1.0000 0.13959  0.82457  0.34100  Biso   1.000  C
  C316     1.0000 0.86041  0.17543  0.34100  Biso   1.000  C
  C317     1.0000 0.63959  0.67543  0.34100  Biso   1.000  C
  C318     1.0000 0.36041  0.32457  0.34100  Biso   1.000  C
  C319     1.0000 0.86041  0.17543  0.65900  Biso   1.000  C
  C320     1.0000 0.13959  0.82457  0.65900  Biso   1.000  C
  C321     1.0000 0.39150  0.33140  0.61930  Biso   1.000  C
  C322     1.0000 0.60850  0.66860  0.61930  Biso   1.000  C
  C323     1.0000 0.10850  0.83140  0.38070  Biso   1.000  C
  C324     1.0000 0.89150  0.16860  0.38070  Biso   1.000  C
  C325     1.0000 0.60850  0.66860  0.38070  Biso   1.000  C
  C326     1.0000 0.39150  0.33140  0.38070  Biso   1.000  C
  C327     1.0000 0.89150  0.16860  0.61930  Biso   1.000  C
  C328     1.0000 0.10850  0.83140  0.61930  Biso   1.000  C
  H161     1.0000 0.39040  0.32670  0.57370  Biso   1.000  H
  H162     1.0000 0.60960  0.67330  0.57370  Biso   1.000  H
  H163     1.0000 0.10960  0.82670  0.42630  Biso   1.000  H
  H164     1.0000 0.89040  0.17330  0.42630  Biso   1.000  H
  H165     1.0000 0.60960  0.67330  0.42630  Biso   1.000  H
  H166     1.0000 0.39040  0.32670  0.42630  Biso   1.000  H
  H167     1.0000 0.89040  0.17330  0.57370  Biso   1.000  H
  H168     1.0000 0.10960  0.82670  0.57370  Biso   1.000  H
  C329     1.0000 0.42630  0.34580  0.64930  Biso   1.000  C
  C330     1.0000 0.57370  0.65420  0.64930  Biso   1.000  C
  C331     1.0000 0.07370  0.84580  0.35070  Biso   1.000  C
  C332     1.0000 0.92630  0.15420  0.35070  Biso   1.000  C
  C333     1.0000 0.57370  0.65420  0.35070  Biso   1.000  C
  C334     1.0000 0.42630  0.34580  0.35070  Biso   1.000  C
  C335     1.0000 0.92630  0.15420  0.64930  Biso   1.000  C
  C336     1.0000 0.07370  0.84580  0.64930  Biso   1.000  C
  H169     1.0000 0.44680  0.35300  0.62240  Biso   1.000  H
  H170     1.0000 0.55320  0.64700  0.62240  Biso   1.000  H
  H171     1.0000 0.05320  0.85300  0.37760  Biso   1.000  H
  H172     1.0000 0.94680  0.14700  0.37760  Biso   1.000  H
  H173     1.0000 0.55320  0.64700  0.37760  Biso   1.000  H
  H174     1.0000 0.44680  0.35300  0.37760  Biso   1.000  H
  H175     1.0000 0.94680  0.14700  0.62240  Biso   1.000  H
  H176     1.0000 0.05320  0.85300  0.62240  Biso   1.000  H
  C337     1.0000 0.32354  0.31150  0.62890  Biso   1.000  C
  C338     1.0000 0.67646  0.68850  0.62890  Biso   1.000  C
  C339     1.0000 0.17646  0.81150  0.37110  Biso   1.000  C
  C340     1.0000 0.82354  0.18850  0.37110  Biso   1.000  C
  C341     1.0000 0.67646  0.68850  0.37110  Biso   1.000  C
  C342     1.0000 0.32354  0.31150  0.37110  Biso   1.000  C
  C343     1.0000 0.82354  0.18850  0.62890  Biso   1.000  C
  C344     1.0000 0.17646  0.81150  0.62890  Biso   1.000  C
  C345     1.0000 0.57192  0.33594  0.74190  Biso   1.000  C
  C346     1.0000 0.42808  0.66406  0.74190  Biso   1.000  C
  C347     1.0000 0.92808  0.83594  0.25810  Biso   1.000  C
  C348     1.0000 0.07192  0.16406  0.25810  Biso   1.000  C
  C349     1.0000 0.42808  0.66406  0.25810  Biso   1.000  C
  C350     1.0000 0.57192  0.33594  0.25810  Biso   1.000  C
  C351     1.0000 0.07192  0.16406  0.74190  Biso   1.000  C
  C352     1.0000 0.92808  0.83594  0.74190  Biso   1.000  C
  C353     1.0000 0.58035  0.32200  0.67940  Biso   1.000  C
  C354     1.0000 0.41965  0.67800  0.67940  Biso   1.000  C
  C355     1.0000 0.91965  0.82200  0.32060  Biso   1.000  C
  C356     1.0000 0.08035  0.17800  0.32060  Biso   1.000  C
  C357     1.0000 0.41965  0.67800  0.32060  Biso   1.000  C
  C358     1.0000 0.58035  0.32200  0.32060  Biso   1.000  C
  C359     1.0000 0.08035  0.17800  0.67940  Biso   1.000  C
  C360     1.0000 0.91965  0.82200  0.67940  Biso   1.000  C
  H177     1.0000 0.56220  0.32470  0.64570  Biso   1.000  H
  H178     1.0000 0.43780  0.67530  0.64570  Biso   1.000  H
  H179     1.0000 0.93780  0.82470  0.35430  Biso   1.000  H
  H180     1.0000 0.06220  0.17530  0.35430  Biso   1.000  H
  H181     1.0000 0.43780  0.67530  0.35430  Biso   1.000  H
  H182     1.0000 0.56220  0.32470  0.35430  Biso   1.000  H
  H183     1.0000 0.06220  0.17530  0.64570  Biso   1.000  H
  H184     1.0000 0.93780  0.82470  0.64570  Biso   1.000  H
  C361     1.0000 0.61353  0.30490  0.66570  Biso   1.000  C
  C362     1.0000 0.38647  0.69510  0.66570  Biso   1.000  C
  C363     1.0000 0.88647  0.80490  0.33430  Biso   1.000  C
  C364     1.0000 0.11353  0.19510  0.33430  Biso   1.000  C
  C365     1.0000 0.38647  0.69510  0.33430  Biso   1.000  C
  C366     1.0000 0.61353  0.30490  0.33430  Biso   1.000  C
  C367     1.0000 0.11353  0.19510  0.66570  Biso   1.000  C
  C368     1.0000 0.88647  0.80490  0.66570  Biso   1.000  C
  H185     1.0000 0.61820  0.29850  0.62150  Biso   1.000  H
  H186     1.0000 0.38180  0.70150  0.62150  Biso   1.000  H
  H187     1.0000 0.88180  0.79850  0.37850  Biso   1.000  H
  H188     1.0000 0.11820  0.20150  0.37850  Biso   1.000  H
  H189     1.0000 0.38180  0.70150  0.37850  Biso   1.000  H
  H190     1.0000 0.61820  0.29850  0.37850  Biso   1.000  H
  H191     1.0000 0.11820  0.20150  0.62150  Biso   1.000  H
  H192     1.0000 0.88180  0.79850  0.62150  Biso   1.000  H
  C369     1.0000 0.64093  0.29613  0.71040  Biso   1.000  C
  C370     1.0000 0.35907  0.70387  0.71040  Biso   1.000  C
  C371     1.0000 0.85907  0.79613  0.28960  Biso   1.000  C
  C372     1.0000 0.14093  0.20387  0.28960  Biso   1.000  C
  C373     1.0000 0.35907  0.70387  0.28960  Biso   1.000  C
  C374     1.0000 0.64093  0.29613  0.28960  Biso   1.000  C
  C375     1.0000 0.14093  0.20387  0.71040  Biso   1.000  C
  C376     1.0000 0.85907  0.79613  0.71040  Biso   1.000  C
  C377     1.0000 0.63200  0.30600  0.77840  Biso   1.000  C
  C378     1.0000 0.36800  0.69400  0.77840  Biso   1.000  C
  C379     1.0000 0.86800  0.80600  0.22160  Biso   1.000  C
  C380     1.0000 0.13200  0.19400  0.22160  Biso   1.000  C
  C381     1.0000 0.36800  0.69400  0.22160  Biso   1.000  C
  C382     1.0000 0.63200  0.30600  0.22160  Biso   1.000  C
  C383     1.0000 0.13200  0.19400  0.77840  Biso   1.000  C
  C384     1.0000 0.86800  0.80600  0.77840  Biso   1.000  C
  H193     1.0000 0.64670  0.29750  0.81420  Biso   1.000  H
  H194     1.0000 0.35330  0.70250  0.81420  Biso   1.000  H
  H195     1.0000 0.85330  0.79750  0.18580  Biso   1.000  H
  H196     1.0000 0.14670  0.20250  0.18580  Biso   1.000  H
  H197     1.0000 0.35330  0.70250  0.18580  Biso   1.000  H
  H198     1.0000 0.64670  0.29750  0.18580  Biso   1.000  H
  H199     1.0000 0.14670  0.20250  0.81420  Biso   1.000  H
  H200     1.0000 0.85330  0.79750  0.81420  Biso   1.000  H
  C385     1.0000 0.60020  0.32890  0.78650  Biso   1.000  C
  C386     1.0000 0.39980  0.67110  0.78650  Biso   1.000  C
  C387     1.0000 0.89980  0.82890  0.21350  Biso   1.000  C
  C388     1.0000 0.10020  0.17110  0.21350  Biso   1.000  C
  C389     1.0000 0.39980  0.67110  0.21350  Biso   1.000  C
  C390     1.0000 0.60020  0.32890  0.21350  Biso   1.000  C
  C391     1.0000 0.10020  0.17110  0.78650  Biso   1.000  C
  C392     1.0000 0.89980  0.82890  0.78650  Biso   1.000  C
  H201     1.0000 0.59780  0.34090  0.82760  Biso   1.000  H
  H202     1.0000 0.40220  0.65910  0.82760  Biso   1.000  H
  H203     1.0000 0.90220  0.84090  0.17240  Biso   1.000  H
  H204     1.0000 0.09780  0.15910  0.17240  Biso   1.000  H
  H205     1.0000 0.40220  0.65910  0.17240  Biso   1.000  H
  H206     1.0000 0.59780  0.34090  0.17240  Biso   1.000  H
  H207     1.0000 0.09780  0.15910  0.82760  Biso   1.000  H
  H208     1.0000 0.90220  0.84090  0.82760  Biso   1.000  H
  C393     1.0000 0.67620  0.27740  0.69410  Biso   1.000  C
  C394     1.0000 0.32380  0.72260  0.69410  Biso   1.000  C
  C395     1.0000 0.82380  0.77740  0.30590  Biso   1.000  C
  C396     1.0000 0.17620  0.22260  0.30590  Biso   1.000  C
  C397     1.0000 0.32380  0.72260  0.30590  Biso   1.000  C
  C398     1.0000 0.67620  0.27740  0.30590  Biso   1.000  C
  C399     1.0000 0.17620  0.22260  0.69410  Biso   1.000  C
  C400     1.0000 0.82380  0.77740  0.69410  Biso   1.000  C
  C401     1.0000 0.74380  0.25040  0.50000  Biso   1.000  C
  C402     1.0000 0.25620  0.74960  0.50000  Biso   1.000  C
  C403     1.0000 0.75620  0.75040  0.50000  Biso   1.000  C
  C404     1.0000 0.24380  0.24960  0.50000  Biso   1.000  C
  C405     1.0000 0.73190  0.29190  0.50000  Biso   1.000  C
  C406     1.0000 0.26810  0.70810  0.50000  Biso   1.000  C
  C407     1.0000 0.76810  0.79190  0.50000  Biso   1.000  C
  C408     1.0000 0.23190  0.20810  0.50000  Biso   1.000  C
  H209     1.0000 0.72800  0.30030  0.54500  Biso   1.000  H
  H210     1.0000 0.27200  0.69970  0.54500  Biso   1.000  H
  H211     1.0000 0.77200  0.80030  0.45500  Biso   1.000  H
  H212     1.0000 0.22800  0.19970  0.45500  Biso   1.000  H
  H213     1.0000 0.27200  0.69970  0.45500  Biso   1.000  H
  H214     1.0000 0.72800  0.30030  0.45500  Biso   1.000  H
  H215     1.0000 0.22800  0.19970  0.54500  Biso   1.000  H
  H216     1.0000 0.77200  0.80030  0.54500  Biso   1.000  H
  H217     1.0000 0.70850  0.29480  0.47530  Biso   1.000  H
  H218     1.0000 0.29150  0.70520  0.47530  Biso   1.000  H
  H219     1.0000 0.79150  0.79480  0.52470  Biso   1.000  H
  H220     1.0000 0.20850  0.20520  0.52470  Biso   1.000  H
  H221     1.0000 0.29150  0.70520  0.52470  Biso   1.000  H
  H222     1.0000 0.70850  0.29480  0.52470  Biso   1.000  H
  H223     1.0000 0.20850  0.20520  0.47530  Biso   1.000  H
  H224     1.0000 0.79150  0.79480  0.47530  Biso   1.000  H
  H225     1.0000 0.75170  0.30700  0.47970  Biso   1.000  H
  H226     1.0000 0.24830  0.69300  0.47970  Biso   1.000  H
  H227     1.0000 0.74830  0.80700  0.52030  Biso   1.000  H
  H228     1.0000 0.25170  0.19300  0.52030  Biso   1.000  H
  H229     1.0000 0.24830  0.69300  0.52030  Biso   1.000  H
  H230     1.0000 0.75170  0.30700  0.52030  Biso   1.000  H
  H231     1.0000 0.25170  0.19300  0.47970  Biso   1.000  H
  H232     1.0000 0.74830  0.80700  0.47970  Biso   1.000  H
