data_image0
_cell_length_a       21.753
_cell_length_b       21.753
_cell_length_c       21.753
_cell_angle_alpha    90
_cell_angle_beta     90
_cell_angle_gamma    90

_symmetry_space_group_name_H-M    "P 1"
_symmetry_int_tables_number       1

loop_
  _symmetry_equiv_pos_as_xyz
  'x, y, z'

loop_
  _atom_site_label
  _atom_site_occupancy
  _atom_site_fract_x
  _atom_site_fract_y
  _atom_site_fract_z
  _atom_site_thermal_displace_type
  _atom_site_B_iso_or_equiv
  _atom_site_type_symbol
  Cu1      1.0000 0.93888  0.50000  0.50000  Biso   1.000  Cu
  Cu2      1.0000 0.06112  0.50000  0.50000  Biso   1.000  Cu
  Cu3      1.0000 0.50000  0.93888  0.50000  Biso   1.000  Cu
  Cu4      1.0000 0.50000  0.06112  0.50000  Biso   1.000  Cu
  Cu5      1.0000 0.50000  0.50000  0.93888  Biso   1.000  Cu
  Cu6      1.0000 0.50000  0.50000  0.06112  Biso   1.000  Cu
  O1       1.0000 0.83930  0.50000  0.50000  Biso   1.000  O
  O2       1.0000 0.16070  0.50000  0.50000  Biso   1.000  O
  O3       1.0000 0.50000  0.83930  0.50000  Biso   1.000  O
  O4       1.0000 0.50000  0.16070  0.50000  Biso   1.000  O
  O5       1.0000 0.50000  0.50000  0.83930  Biso   1.000  O
  O6       1.0000 0.50000  0.50000  0.16070  Biso   1.000  O
  C1       1.0000 0.00000  0.38740  0.48500  Biso   1.000  C
  C2       1.0000 0.00000  0.61260  0.51500  Biso   1.000  C
  C3       1.0000 0.00000  0.61260  0.48500  Biso   1.000  C
  C4       1.0000 0.00000  0.38740  0.51500  Biso   1.000  C
  C5       1.0000 0.61260  0.00000  0.48500  Biso   1.000  C
  C6       1.0000 0.38740  0.00000  0.51500  Biso   1.000  C
  C7       1.0000 0.38740  0.00000  0.48500  Biso   1.000  C
  C8       1.0000 0.61260  0.00000  0.51500  Biso   1.000  C
  C9       1.0000 0.38740  0.48500  0.00000  Biso   1.000  C
  C10      1.0000 0.61260  0.51500  0.00000  Biso   1.000  C
  C11      1.0000 0.38740  0.51500  0.00000  Biso   1.000  C
  C12      1.0000 0.61260  0.48500  0.00000  Biso   1.000  C
  C13      1.0000 0.51500  0.38740  0.00000  Biso   1.000  C
  C14      1.0000 0.51500  0.61260  0.00000  Biso   1.000  C
  C15      1.0000 0.48500  0.61260  0.00000  Biso   1.000  C
  C16      1.0000 0.48500  0.38740  0.00000  Biso   1.000  C
  C17      1.0000 0.48500  0.00000  0.38740  Biso   1.000  C
  C18      1.0000 0.51500  0.00000  0.61260  Biso   1.000  C
  C19      1.0000 0.51500  0.00000  0.38740  Biso   1.000  C
  C20      1.0000 0.48500  0.00000  0.61260  Biso   1.000  C
  C21      1.0000 0.00000  0.51500  0.61260  Biso   1.000  C
  C22      1.0000 0.00000  0.48500  0.38740  Biso   1.000  C
  C23      1.0000 0.00000  0.51500  0.38740  Biso   1.000  C
  C24      1.0000 0.00000  0.48500  0.61260  Biso   1.000  C
  Cu7      1.0000 0.00000  0.00000  0.44440  Biso   1.000  Cu
  Cu8      1.0000 0.00000  0.00000  0.55560  Biso   1.000  Cu
  Cu9      1.0000 0.00000  0.44440  0.00000  Biso   1.000  Cu
  Cu10     1.0000 0.00000  0.55560  0.00000  Biso   1.000  Cu
  Cu11     1.0000 0.55560  0.00000  0.00000  Biso   1.000  Cu
  Cu12     1.0000 0.44440  0.00000  0.00000  Biso   1.000  Cu
  O7       1.0000 0.00000  0.00000  0.33900  Biso   1.000  O
  O8       1.0000 0.00000  0.00000  0.66100  Biso   1.000  O
  O9       1.0000 0.00000  0.33900  0.00000  Biso   1.000  O
  O10      1.0000 0.00000  0.66100  0.00000  Biso   1.000  O
  O11      1.0000 0.66100  0.00000  0.00000  Biso   1.000  O
  O12      1.0000 0.33900  0.00000  0.00000  Biso   1.000  O
  N1       1.0000 0.00000  0.09000  0.46960  Biso   1.000  N
  N2       1.0000 0.00000  0.91000  0.53040  Biso   1.000  N
  N3       1.0000 0.00000  0.91000  0.46960  Biso   1.000  N
  N4       1.0000 0.00000  0.09000  0.53040  Biso   1.000  N
  N5       1.0000 0.91000  0.00000  0.46960  Biso   1.000  N
  N6       1.0000 0.09000  0.00000  0.53040  Biso   1.000  N
  N7       1.0000 0.09000  0.00000  0.46960  Biso   1.000  N
  N8       1.0000 0.91000  0.00000  0.53040  Biso   1.000  N
  N9       1.0000 0.09000  0.46960  0.00000  Biso   1.000  N
  N10      1.0000 0.91000  0.53040  0.00000  Biso   1.000  N
  N11      1.0000 0.09000  0.53040  0.00000  Biso   1.000  N
  N12      1.0000 0.91000  0.46960  0.00000  Biso   1.000  N
  N13      1.0000 0.53040  0.09000  0.00000  Biso   1.000  N
  N14      1.0000 0.53040  0.91000  0.00000  Biso   1.000  N
  N15      1.0000 0.46960  0.91000  0.00000  Biso   1.000  N
  N16      1.0000 0.46960  0.09000  0.00000  Biso   1.000  N
  N17      1.0000 0.46960  0.00000  0.09000  Biso   1.000  N
  N18      1.0000 0.53040  0.00000  0.91000  Biso   1.000  N
  N19      1.0000 0.53040  0.00000  0.09000  Biso   1.000  N
  N20      1.0000 0.46960  0.00000  0.91000  Biso   1.000  N
  N21      1.0000 0.00000  0.53040  0.91000  Biso   1.000  N
  N22      1.0000 0.00000  0.46960  0.09000  Biso   1.000  N
  N23      1.0000 0.00000  0.53040  0.09000  Biso   1.000  N
  N24      1.0000 0.00000  0.46960  0.91000  Biso   1.000  N
  C25      1.0000 0.00000  0.13300  0.41470  Biso   1.000  C
  C26      1.0000 0.00000  0.86700  0.58530  Biso   1.000  C
  C27      1.0000 0.00000  0.86700  0.41470  Biso   1.000  C
  C28      1.0000 0.00000  0.13300  0.58530  Biso   1.000  C
  C29      1.0000 0.86700  0.00000  0.41470  Biso   1.000  C
  C30      1.0000 0.13300  0.00000  0.58530  Biso   1.000  C
  C31      1.0000 0.13300  0.00000  0.41470  Biso   1.000  C
  C32      1.0000 0.86700  0.00000  0.58530  Biso   1.000  C
  C33      1.0000 0.13300  0.41470  0.00000  Biso   1.000  C
  C34      1.0000 0.86700  0.58530  0.00000  Biso   1.000  C
  C35      1.0000 0.13300  0.58530  0.00000  Biso   1.000  C
  C36      1.0000 0.86700  0.41470  0.00000  Biso   1.000  C
  C37      1.0000 0.58530  0.13300  0.00000  Biso   1.000  C
  C38      1.0000 0.58530  0.86700  0.00000  Biso   1.000  C
  C39      1.0000 0.41470  0.86700  0.00000  Biso   1.000  C
  C40      1.0000 0.41470  0.13300  0.00000  Biso   1.000  C
  C41      1.0000 0.41470  0.00000  0.13300  Biso   1.000  C
  C42      1.0000 0.58530  0.00000  0.86700  Biso   1.000  C
  C43      1.0000 0.58530  0.00000  0.13300  Biso   1.000  C
  C44      1.0000 0.41470  0.00000  0.86700  Biso   1.000  C
  C45      1.0000 0.00000  0.58530  0.86700  Biso   1.000  C
  C46      1.0000 0.00000  0.41470  0.13300  Biso   1.000  C
  C47      1.0000 0.00000  0.58530  0.13300  Biso   1.000  C
  C48      1.0000 0.00000  0.41470  0.86700  Biso   1.000  C
  H1       1.0000 0.03680  0.12460  0.38920  Biso   1.000  H
  H2       1.0000 0.03680  0.87540  0.61080  Biso   1.000  H
  H3       1.0000 0.96320  0.87540  0.38920  Biso   1.000  H
  H4       1.0000 0.96320  0.12460  0.61080  Biso   1.000  H
  H5       1.0000 0.87540  0.03680  0.38920  Biso   1.000  H
  H6       1.0000 0.12460  0.03680  0.61080  Biso   1.000  H
  H7       1.0000 0.12460  0.96320  0.38920  Biso   1.000  H
  H8       1.0000 0.87540  0.96320  0.61080  Biso   1.000  H
  H9       1.0000 0.12460  0.38920  0.03680  Biso   1.000  H
  H10      1.0000 0.87540  0.61080  0.03680  Biso   1.000  H
  H11      1.0000 0.12460  0.61080  0.96320  Biso   1.000  H
  H12      1.0000 0.87540  0.38920  0.96320  Biso   1.000  H
  H13      1.0000 0.61080  0.12460  0.03680  Biso   1.000  H
  H14      1.0000 0.61080  0.87540  0.96320  Biso   1.000  H
  H15      1.0000 0.38920  0.87540  0.03680  Biso   1.000  H
  H16      1.0000 0.38920  0.12460  0.96320  Biso   1.000  H
  H17      1.0000 0.38920  0.03680  0.12460  Biso   1.000  H
  H18      1.0000 0.61080  0.03680  0.87540  Biso   1.000  H
  H19      1.0000 0.61080  0.96320  0.12460  Biso   1.000  H
  H20      1.0000 0.38920  0.96320  0.87540  Biso   1.000  H
  H21      1.0000 0.96320  0.61080  0.87540  Biso   1.000  H
  H22      1.0000 0.96320  0.38920  0.12460  Biso   1.000  H
  H23      1.0000 0.03680  0.61080  0.12460  Biso   1.000  H
  H24      1.0000 0.03680  0.38920  0.87540  Biso   1.000  H
  H25      1.0000 0.96320  0.87540  0.61080  Biso   1.000  H
  H26      1.0000 0.96320  0.12460  0.38920  Biso   1.000  H
  H27      1.0000 0.03680  0.12460  0.61080  Biso   1.000  H
  H28      1.0000 0.03680  0.87540  0.38920  Biso   1.000  H
  H29      1.0000 0.12460  0.96320  0.61080  Biso   1.000  H
  H30      1.0000 0.87540  0.96320  0.38920  Biso   1.000  H
  H31      1.0000 0.87540  0.03680  0.61080  Biso   1.000  H
  H32      1.0000 0.12460  0.03680  0.38920  Biso   1.000  H
  H33      1.0000 0.87540  0.61080  0.96320  Biso   1.000  H
  H34      1.0000 0.12460  0.38920  0.96320  Biso   1.000  H
  H35      1.0000 0.87540  0.38920  0.03680  Biso   1.000  H
  H36      1.0000 0.12460  0.61080  0.03680  Biso   1.000  H
  H37      1.0000 0.38920  0.87540  0.96320  Biso   1.000  H
  H38      1.0000 0.38920  0.12460  0.03680  Biso   1.000  H
  H39      1.0000 0.61080  0.12460  0.96320  Biso   1.000  H
  H40      1.0000 0.61080  0.87540  0.03680  Biso   1.000  H
  H41      1.0000 0.61080  0.96320  0.87540  Biso   1.000  H
  H42      1.0000 0.38920  0.96320  0.12460  Biso   1.000  H
  H43      1.0000 0.38920  0.03680  0.87540  Biso   1.000  H
  H44      1.0000 0.61080  0.03680  0.12460  Biso   1.000  H
  H45      1.0000 0.03680  0.38920  0.12460  Biso   1.000  H
  H46      1.0000 0.03680  0.61080  0.87540  Biso   1.000  H
  H47      1.0000 0.96320  0.38920  0.87540  Biso   1.000  H
  H48      1.0000 0.96320  0.61080  0.12460  Biso   1.000  H
  C49      1.0000 0.94500  0.29100  0.45920  Biso   1.000  C
  C50      1.0000 0.94500  0.70900  0.54080  Biso   1.000  C
  C51      1.0000 0.05500  0.70900  0.45920  Biso   1.000  C
  C52      1.0000 0.05500  0.29100  0.54080  Biso   1.000  C
  C53      1.0000 0.70900  0.94500  0.45920  Biso   1.000  C
  C54      1.0000 0.29100  0.94500  0.54080  Biso   1.000  C
  C55      1.0000 0.29100  0.05500  0.45920  Biso   1.000  C
  C56      1.0000 0.70900  0.05500  0.54080  Biso   1.000  C
  C57      1.0000 0.29100  0.45920  0.94500  Biso   1.000  C
  C58      1.0000 0.70900  0.54080  0.94500  Biso   1.000  C
  C59      1.0000 0.29100  0.54080  0.05500  Biso   1.000  C
  C60      1.0000 0.70900  0.45920  0.05500  Biso   1.000  C
  C61      1.0000 0.54080  0.29100  0.94500  Biso   1.000  C
  C62      1.0000 0.54080  0.70900  0.05500  Biso   1.000  C
  C63      1.0000 0.45920  0.70900  0.94500  Biso   1.000  C
  C64      1.0000 0.45920  0.29100  0.05500  Biso   1.000  C
  C65      1.0000 0.45920  0.94500  0.29100  Biso   1.000  C
  C66      1.0000 0.54080  0.94500  0.70900  Biso   1.000  C
  C67      1.0000 0.54080  0.05500  0.29100  Biso   1.000  C
  C68      1.0000 0.45920  0.05500  0.70900  Biso   1.000  C
  C69      1.0000 0.05500  0.54080  0.70900  Biso   1.000  C
  C70      1.0000 0.05500  0.45920  0.29100  Biso   1.000  C
  C71      1.0000 0.94500  0.54080  0.29100  Biso   1.000  C
  C72      1.0000 0.94500  0.45920  0.70900  Biso   1.000  C
  C73      1.0000 0.05500  0.70900  0.54080  Biso   1.000  C
  C74      1.0000 0.05500  0.29100  0.45920  Biso   1.000  C
  C75      1.0000 0.94500  0.29100  0.54080  Biso   1.000  C
  C76      1.0000 0.94500  0.70900  0.45920  Biso   1.000  C
  C77      1.0000 0.29100  0.05500  0.54080  Biso   1.000  C
  C78      1.0000 0.70900  0.05500  0.45920  Biso   1.000  C
  C79      1.0000 0.70900  0.94500  0.54080  Biso   1.000  C
  C80      1.0000 0.29100  0.94500  0.45920  Biso   1.000  C
  C81      1.0000 0.70900  0.54080  0.05500  Biso   1.000  C
  C82      1.0000 0.29100  0.45920  0.05500  Biso   1.000  C
  C83      1.0000 0.70900  0.45920  0.94500  Biso   1.000  C
  C84      1.0000 0.29100  0.54080  0.94500  Biso   1.000  C
  C85      1.0000 0.45920  0.70900  0.05500  Biso   1.000  C
  C86      1.0000 0.45920  0.29100  0.94500  Biso   1.000  C
  C87      1.0000 0.54080  0.29100  0.05500  Biso   1.000  C
  C88      1.0000 0.54080  0.70900  0.94500  Biso   1.000  C
  C89      1.0000 0.54080  0.05500  0.70900  Biso   1.000  C
  C90      1.0000 0.45920  0.05500  0.29100  Biso   1.000  C
  C91      1.0000 0.45920  0.94500  0.70900  Biso   1.000  C
  C92      1.0000 0.54080  0.94500  0.29100  Biso   1.000  C
  C93      1.0000 0.94500  0.45920  0.29100  Biso   1.000  C
  C94      1.0000 0.94500  0.54080  0.70900  Biso   1.000  C
  C95      1.0000 0.05500  0.45920  0.70900  Biso   1.000  C
  C96      1.0000 0.05500  0.54080  0.29100  Biso   1.000  C
  H49      1.0000 0.90740  0.31220  0.46550  Biso   1.000  H
  H50      1.0000 0.90740  0.68780  0.53450  Biso   1.000  H
  H51      1.0000 0.09260  0.68780  0.46550  Biso   1.000  H
  H52      1.0000 0.09260  0.31220  0.53450  Biso   1.000  H
  H53      1.0000 0.68780  0.90740  0.46550  Biso   1.000  H
  H54      1.0000 0.31220  0.90740  0.53450  Biso   1.000  H
  H55      1.0000 0.31220  0.09260  0.46550  Biso   1.000  H
  H56      1.0000 0.68780  0.09260  0.53450  Biso   1.000  H
  H57      1.0000 0.31220  0.46550  0.90740  Biso   1.000  H
  H58      1.0000 0.68780  0.53450  0.90740  Biso   1.000  H
  H59      1.0000 0.31220  0.53450  0.09260  Biso   1.000  H
  H60      1.0000 0.68780  0.46550  0.09260  Biso   1.000  H
  H61      1.0000 0.53450  0.31220  0.90740  Biso   1.000  H
  H62      1.0000 0.53450  0.68780  0.09260  Biso   1.000  H
  H63      1.0000 0.46550  0.68780  0.90740  Biso   1.000  H
  H64      1.0000 0.46550  0.31220  0.09260  Biso   1.000  H
  H65      1.0000 0.46550  0.90740  0.31220  Biso   1.000  H
  H66      1.0000 0.53450  0.90740  0.68780  Biso   1.000  H
  H67      1.0000 0.53450  0.09260  0.31220  Biso   1.000  H
  H68      1.0000 0.46550  0.09260  0.68780  Biso   1.000  H
  H69      1.0000 0.09260  0.53450  0.68780  Biso   1.000  H
  H70      1.0000 0.09260  0.46550  0.31220  Biso   1.000  H
  H71      1.0000 0.90740  0.53450  0.31220  Biso   1.000  H
  H72      1.0000 0.90740  0.46550  0.68780  Biso   1.000  H
  H73      1.0000 0.09260  0.68780  0.53450  Biso   1.000  H
  H74      1.0000 0.09260  0.31220  0.46550  Biso   1.000  H
  H75      1.0000 0.90740  0.31220  0.53450  Biso   1.000  H
  H76      1.0000 0.90740  0.68780  0.46550  Biso   1.000  H
  H77      1.0000 0.31220  0.09260  0.53450  Biso   1.000  H
  H78      1.0000 0.68780  0.09260  0.46550  Biso   1.000  H
  H79      1.0000 0.68780  0.90740  0.53450  Biso   1.000  H
  H80      1.0000 0.31220  0.90740  0.46550  Biso   1.000  H
  H81      1.0000 0.68780  0.53450  0.09260  Biso   1.000  H
  H82      1.0000 0.31220  0.46550  0.09260  Biso   1.000  H
  H83      1.0000 0.68780  0.46550  0.90740  Biso   1.000  H
  H84      1.0000 0.31220  0.53450  0.90740  Biso   1.000  H
  H85      1.0000 0.46550  0.68780  0.09260  Biso   1.000  H
  H86      1.0000 0.46550  0.31220  0.90740  Biso   1.000  H
  H87      1.0000 0.53450  0.31220  0.09260  Biso   1.000  H
  H88      1.0000 0.53450  0.68780  0.90740  Biso   1.000  H
  H89      1.0000 0.53450  0.09260  0.68780  Biso   1.000  H
  H90      1.0000 0.46550  0.09260  0.31220  Biso   1.000  H
  H91      1.0000 0.46550  0.90740  0.68780  Biso   1.000  H
  H92      1.0000 0.53450  0.90740  0.31220  Biso   1.000  H
  H93      1.0000 0.90740  0.46550  0.31220  Biso   1.000  H
  H94      1.0000 0.90740  0.53450  0.68780  Biso   1.000  H
  H95      1.0000 0.09260  0.46550  0.68780  Biso   1.000  H
  H96      1.0000 0.09260  0.53450  0.31220  Biso   1.000  H
  C97      1.0000 0.94400  0.22960  0.44230  Biso   1.000  C
  C98      1.0000 0.94400  0.77040  0.55770  Biso   1.000  C
  C99      1.0000 0.05600  0.77040  0.44230  Biso   1.000  C
  C100     1.0000 0.05600  0.22960  0.55770  Biso   1.000  C
  C101     1.0000 0.77040  0.94400  0.44230  Biso   1.000  C
  C102     1.0000 0.22960  0.94400  0.55770  Biso   1.000  C
  C103     1.0000 0.22960  0.05600  0.44230  Biso   1.000  C
  C104     1.0000 0.77040  0.05600  0.55770  Biso   1.000  C
  C105     1.0000 0.22960  0.44230  0.94400  Biso   1.000  C
  C106     1.0000 0.77040  0.55770  0.94400  Biso   1.000  C
  C107     1.0000 0.22960  0.55770  0.05600  Biso   1.000  C
  C108     1.0000 0.77040  0.44230  0.05600  Biso   1.000  C
  C109     1.0000 0.55770  0.22960  0.94400  Biso   1.000  C
  C110     1.0000 0.55770  0.77040  0.05600  Biso   1.000  C
  C111     1.0000 0.44230  0.77040  0.94400  Biso   1.000  C
  C112     1.0000 0.44230  0.22960  0.05600  Biso   1.000  C
  C113     1.0000 0.44230  0.94400  0.22960  Biso   1.000  C
  C114     1.0000 0.55770  0.94400  0.77040  Biso   1.000  C
  C115     1.0000 0.55770  0.05600  0.22960  Biso   1.000  C
  C116     1.0000 0.44230  0.05600  0.77040  Biso   1.000  C
  C117     1.0000 0.05600  0.55770  0.77040  Biso   1.000  C
  C118     1.0000 0.05600  0.44230  0.22960  Biso   1.000  C
  C119     1.0000 0.94400  0.55770  0.22960  Biso   1.000  C
  C120     1.0000 0.94400  0.44230  0.77040  Biso   1.000  C
  C121     1.0000 0.05600  0.77040  0.55770  Biso   1.000  C
  C122     1.0000 0.05600  0.22960  0.44230  Biso   1.000  C
  C123     1.0000 0.94400  0.22960  0.55770  Biso   1.000  C
  C124     1.0000 0.94400  0.77040  0.44230  Biso   1.000  C
  C125     1.0000 0.22960  0.05600  0.55770  Biso   1.000  C
  C126     1.0000 0.77040  0.05600  0.44230  Biso   1.000  C
  C127     1.0000 0.77040  0.94400  0.55770  Biso   1.000  C
  C128     1.0000 0.22960  0.94400  0.44230  Biso   1.000  C
  C129     1.0000 0.77040  0.55770  0.05600  Biso   1.000  C
  C130     1.0000 0.22960  0.44230  0.05600  Biso   1.000  C
  C131     1.0000 0.77040  0.44230  0.94400  Biso   1.000  C
  C132     1.0000 0.22960  0.55770  0.94400  Biso   1.000  C
  C133     1.0000 0.44230  0.77040  0.05600  Biso   1.000  C
  C134     1.0000 0.44230  0.22960  0.94400  Biso   1.000  C
  C135     1.0000 0.55770  0.22960  0.05600  Biso   1.000  C
  C136     1.0000 0.55770  0.77040  0.94400  Biso   1.000  C
  C137     1.0000 0.55770  0.05600  0.77040  Biso   1.000  C
  C138     1.0000 0.44230  0.05600  0.22960  Biso   1.000  C
  C139     1.0000 0.44230  0.94400  0.77040  Biso   1.000  C
  C140     1.0000 0.55770  0.94400  0.22960  Biso   1.000  C
  C141     1.0000 0.94400  0.44230  0.22960  Biso   1.000  C
  C142     1.0000 0.94400  0.55770  0.77040  Biso   1.000  C
  C143     1.0000 0.05600  0.44230  0.77040  Biso   1.000  C
  C144     1.0000 0.05600  0.55770  0.22960  Biso   1.000  C
  H97      1.0000 0.90620  0.20830  0.43700  Biso   1.000  H
  H98      1.0000 0.90620  0.79170  0.56300  Biso   1.000  H
  H99      1.0000 0.09380  0.79170  0.43700  Biso   1.000  H
  H100     1.0000 0.09380  0.20830  0.56300  Biso   1.000  H
  H101     1.0000 0.79170  0.90620  0.43700  Biso   1.000  H
  H102     1.0000 0.20830  0.90620  0.56300  Biso   1.000  H
  H103     1.0000 0.20830  0.09380  0.43700  Biso   1.000  H
  H104     1.0000 0.79170  0.09380  0.56300  Biso   1.000  H
  H105     1.0000 0.20830  0.43700  0.90620  Biso   1.000  H
  H106     1.0000 0.79170  0.56300  0.90620  Biso   1.000  H
  H107     1.0000 0.20830  0.56300  0.09380  Biso   1.000  H
  H108     1.0000 0.79170  0.43700  0.09380  Biso   1.000  H
  H109     1.0000 0.56300  0.20830  0.90620  Biso   1.000  H
  H110     1.0000 0.56300  0.79170  0.09380  Biso   1.000  H
  H111     1.0000 0.43700  0.79170  0.90620  Biso   1.000  H
  H112     1.0000 0.43700  0.20830  0.09380  Biso   1.000  H
  H113     1.0000 0.43700  0.90620  0.20830  Biso   1.000  H
  H114     1.0000 0.56300  0.90620  0.79170  Biso   1.000  H
  H115     1.0000 0.56300  0.09380  0.20830  Biso   1.000  H
  H116     1.0000 0.43700  0.09380  0.79170  Biso   1.000  H
  H117     1.0000 0.09380  0.56300  0.79170  Biso   1.000  H
  H118     1.0000 0.09380  0.43700  0.20830  Biso   1.000  H
  H119     1.0000 0.90620  0.56300  0.20830  Biso   1.000  H
  H120     1.0000 0.90620  0.43700  0.79170  Biso   1.000  H
  H121     1.0000 0.09380  0.79170  0.56300  Biso   1.000  H
  H122     1.0000 0.09380  0.20830  0.43700  Biso   1.000  H
  H123     1.0000 0.90620  0.20830  0.56300  Biso   1.000  H
  H124     1.0000 0.90620  0.79170  0.43700  Biso   1.000  H
  H125     1.0000 0.20830  0.09380  0.56300  Biso   1.000  H
  H126     1.0000 0.79170  0.09380  0.43700  Biso   1.000  H
  H127     1.0000 0.79170  0.90620  0.56300  Biso   1.000  H
  H128     1.0000 0.20830  0.90620  0.43700  Biso   1.000  H
  H129     1.0000 0.79170  0.56300  0.09380  Biso   1.000  H
  H130     1.0000 0.20830  0.43700  0.09380  Biso   1.000  H
  H131     1.0000 0.79170  0.43700  0.90620  Biso   1.000  H
  H132     1.0000 0.20830  0.56300  0.90620  Biso   1.000  H
  H133     1.0000 0.43700  0.79170  0.09380  Biso   1.000  H
  H134     1.0000 0.43700  0.20830  0.90620  Biso   1.000  H
  H135     1.0000 0.56300  0.20830  0.09380  Biso   1.000  H
  H136     1.0000 0.56300  0.79170  0.90620  Biso   1.000  H
  H137     1.0000 0.56300  0.09380  0.79170  Biso   1.000  H
  H138     1.0000 0.43700  0.09380  0.20830  Biso   1.000  H
  H139     1.0000 0.43700  0.90620  0.79170  Biso   1.000  H
  H140     1.0000 0.56300  0.90620  0.20830  Biso   1.000  H
  H141     1.0000 0.90620  0.43700  0.20830  Biso   1.000  H
  H142     1.0000 0.90620  0.56300  0.79170  Biso   1.000  H
  H143     1.0000 0.09380  0.43700  0.79170  Biso   1.000  H
  H144     1.0000 0.09380  0.56300  0.20830  Biso   1.000  H
  C145     1.0000 0.00000  0.20000  0.43320  Biso   1.000  C
  C146     1.0000 0.00000  0.80000  0.56680  Biso   1.000  C
  C147     1.0000 0.00000  0.80000  0.43320  Biso   1.000  C
  C148     1.0000 0.00000  0.20000  0.56680  Biso   1.000  C
  C149     1.0000 0.80000  0.00000  0.43320  Biso   1.000  C
  C150     1.0000 0.20000  0.00000  0.56680  Biso   1.000  C
  C151     1.0000 0.20000  0.00000  0.43320  Biso   1.000  C
  C152     1.0000 0.80000  0.00000  0.56680  Biso   1.000  C
  C153     1.0000 0.20000  0.43320  0.00000  Biso   1.000  C
  C154     1.0000 0.80000  0.56680  0.00000  Biso   1.000  C
  C155     1.0000 0.20000  0.56680  0.00000  Biso   1.000  C
  C156     1.0000 0.80000  0.43320  0.00000  Biso   1.000  C
  C157     1.0000 0.56680  0.20000  0.00000  Biso   1.000  C
  C158     1.0000 0.56680  0.80000  0.00000  Biso   1.000  C
  C159     1.0000 0.43320  0.80000  0.00000  Biso   1.000  C
  C160     1.0000 0.43320  0.20000  0.00000  Biso   1.000  C
  C161     1.0000 0.43320  0.00000  0.20000  Biso   1.000  C
  C162     1.0000 0.56680  0.00000  0.80000  Biso   1.000  C
  C163     1.0000 0.56680  0.00000  0.20000  Biso   1.000  C
  C164     1.0000 0.43320  0.00000  0.80000  Biso   1.000  C
  C165     1.0000 0.00000  0.56680  0.80000  Biso   1.000  C
  C166     1.0000 0.00000  0.43320  0.20000  Biso   1.000  C
  C167     1.0000 0.00000  0.56680  0.20000  Biso   1.000  C
  C168     1.0000 0.00000  0.43320  0.80000  Biso   1.000  C
  C169     1.0000 0.00000  0.32190  0.46710  Biso   1.000  C
  C170     1.0000 0.00000  0.67810  0.53290  Biso   1.000  C
  C171     1.0000 0.00000  0.67810  0.46710  Biso   1.000  C
  C172     1.0000 0.00000  0.32190  0.53290  Biso   1.000  C
  C173     1.0000 0.67810  0.00000  0.46710  Biso   1.000  C
  C174     1.0000 0.32190  0.00000  0.53290  Biso   1.000  C
  C175     1.0000 0.32190  0.00000  0.46710  Biso   1.000  C
  C176     1.0000 0.67810  0.00000  0.53290  Biso   1.000  C
  C177     1.0000 0.32190  0.46710  0.00000  Biso   1.000  C
  C178     1.0000 0.67810  0.53290  0.00000  Biso   1.000  C
  C179     1.0000 0.32190  0.53290  0.00000  Biso   1.000  C
  C180     1.0000 0.67810  0.46710  0.00000  Biso   1.000  C
  C181     1.0000 0.53290  0.32190  0.00000  Biso   1.000  C
  C182     1.0000 0.53290  0.67810  0.00000  Biso   1.000  C
  C183     1.0000 0.46710  0.67810  0.00000  Biso   1.000  C
  C184     1.0000 0.46710  0.32190  0.00000  Biso   1.000  C
  C185     1.0000 0.46710  0.00000  0.32190  Biso   1.000  C
  C186     1.0000 0.53290  0.00000  0.67810  Biso   1.000  C
  C187     1.0000 0.53290  0.00000  0.32190  Biso   1.000  C
  C188     1.0000 0.46710  0.00000  0.67810  Biso   1.000  C
  C189     1.0000 0.00000  0.53290  0.67810  Biso   1.000  C
  C190     1.0000 0.00000  0.46710  0.32190  Biso   1.000  C
  C191     1.0000 0.00000  0.53290  0.32190  Biso   1.000  C
  C192     1.0000 0.00000  0.46710  0.67810  Biso   1.000  C
  O13      1.0000 0.94830  0.41350  0.48700  Biso   1.000  O
  O14      1.0000 0.94830  0.58650  0.51300  Biso   1.000  O
  O15      1.0000 0.05170  0.58650  0.48700  Biso   1.000  O
  O16      1.0000 0.05170  0.41350  0.51300  Biso   1.000  O
  O17      1.0000 0.58650  0.94830  0.48700  Biso   1.000  O
  O18      1.0000 0.41350  0.94830  0.51300  Biso   1.000  O
  O19      1.0000 0.41350  0.05170  0.48700  Biso   1.000  O
  O20      1.0000 0.58650  0.05170  0.51300  Biso   1.000  O
  O21      1.0000 0.41350  0.48700  0.94830  Biso   1.000  O
  O22      1.0000 0.58650  0.51300  0.94830  Biso   1.000  O
  O23      1.0000 0.41350  0.51300  0.05170  Biso   1.000  O
  O24      1.0000 0.58650  0.48700  0.05170  Biso   1.000  O
  O25      1.0000 0.51300  0.41350  0.94830  Biso   1.000  O
  O26      1.0000 0.51300  0.58650  0.05170  Biso   1.000  O
  O27      1.0000 0.48700  0.58650  0.94830  Biso   1.000  O
  O28      1.0000 0.48700  0.41350  0.05170  Biso   1.000  O
  O29      1.0000 0.48700  0.94830  0.41350  Biso   1.000  O
  O30      1.0000 0.51300  0.94830  0.58650  Biso   1.000  O
  O31      1.0000 0.51300  0.05170  0.41350  Biso   1.000  O
  O32      1.0000 0.48700  0.05170  0.58650  Biso   1.000  O
  O33      1.0000 0.05170  0.51300  0.58650  Biso   1.000  O
  O34      1.0000 0.05170  0.48700  0.41350  Biso   1.000  O
  O35      1.0000 0.94830  0.51300  0.41350  Biso   1.000  O
  O36      1.0000 0.94830  0.48700  0.58650  Biso   1.000  O
  O37      1.0000 0.05170  0.58650  0.51300  Biso   1.000  O
  O38      1.0000 0.05170  0.41350  0.48700  Biso   1.000  O
  O39      1.0000 0.94830  0.41350  0.51300  Biso   1.000  O
  O40      1.0000 0.94830  0.58650  0.48700  Biso   1.000  O
  O41      1.0000 0.41350  0.05170  0.51300  Biso   1.000  O
  O42      1.0000 0.58650  0.05170  0.48700  Biso   1.000  O
  O43      1.0000 0.58650  0.94830  0.51300  Biso   1.000  O
  O44      1.0000 0.41350  0.94830  0.48700  Biso   1.000  O
  O45      1.0000 0.58650  0.51300  0.05170  Biso   1.000  O
  O46      1.0000 0.41350  0.48700  0.05170  Biso   1.000  O
  O47      1.0000 0.58650  0.48700  0.94830  Biso   1.000  O
  O48      1.0000 0.41350  0.51300  0.94830  Biso   1.000  O
  O49      1.0000 0.48700  0.58650  0.05170  Biso   1.000  O
  O50      1.0000 0.48700  0.41350  0.94830  Biso   1.000  O
  O51      1.0000 0.51300  0.41350  0.05170  Biso   1.000  O
  O52      1.0000 0.51300  0.58650  0.94830  Biso   1.000  O
  O53      1.0000 0.51300  0.05170  0.58650  Biso   1.000  O
  O54      1.0000 0.48700  0.05170  0.41350  Biso   1.000  O
  O55      1.0000 0.48700  0.94830  0.58650  Biso   1.000  O
  O56      1.0000 0.51300  0.94830  0.41350  Biso   1.000  O
  O57      1.0000 0.94830  0.48700  0.41350  Biso   1.000  O
  O58      1.0000 0.94830  0.51300  0.58650  Biso   1.000  O
  O59      1.0000 0.05170  0.48700  0.58650  Biso   1.000  O
  O60      1.0000 0.05170  0.51300  0.41350  Biso   1.000  O
  C193     1.0000 0.04370  0.09330  0.51900  Biso   1.000  C
  C194     1.0000 0.04370  0.90670  0.48100  Biso   1.000  C
  C195     1.0000 0.95630  0.90670  0.51900  Biso   1.000  C
  C196     1.0000 0.95630  0.09330  0.48100  Biso   1.000  C
  C197     1.0000 0.90670  0.04370  0.51900  Biso   1.000  C
  C198     1.0000 0.09330  0.04370  0.48100  Biso   1.000  C
  C199     1.0000 0.09330  0.95630  0.51900  Biso   1.000  C
  C200     1.0000 0.90670  0.95630  0.48100  Biso   1.000  C
  C201     1.0000 0.09330  0.51900  0.04370  Biso   1.000  C
  C202     1.0000 0.90670  0.48100  0.04370  Biso   1.000  C
  C203     1.0000 0.09330  0.48100  0.95630  Biso   1.000  C
  C204     1.0000 0.90670  0.51900  0.95630  Biso   1.000  C
  C205     1.0000 0.48100  0.09330  0.04370  Biso   1.000  C
  C206     1.0000 0.48100  0.90670  0.95630  Biso   1.000  C
  C207     1.0000 0.51900  0.90670  0.04370  Biso   1.000  C
  C208     1.0000 0.51900  0.09330  0.95630  Biso   1.000  C
  C209     1.0000 0.51900  0.04370  0.09330  Biso   1.000  C
  C210     1.0000 0.48100  0.04370  0.90670  Biso   1.000  C
  C211     1.0000 0.48100  0.95630  0.09330  Biso   1.000  C
  C212     1.0000 0.51900  0.95630  0.90670  Biso   1.000  C
  C213     1.0000 0.95630  0.48100  0.90670  Biso   1.000  C
  C214     1.0000 0.95630  0.51900  0.09330  Biso   1.000  C
  C215     1.0000 0.04370  0.48100  0.09330  Biso   1.000  C
  C216     1.0000 0.04370  0.51900  0.90670  Biso   1.000  C
  C217     1.0000 0.95630  0.90670  0.48100  Biso   1.000  C
  C218     1.0000 0.95630  0.09330  0.51900  Biso   1.000  C
  C219     1.0000 0.04370  0.09330  0.48100  Biso   1.000  C
  C220     1.0000 0.04370  0.90670  0.51900  Biso   1.000  C
  C221     1.0000 0.09330  0.95630  0.48100  Biso   1.000  C
  C222     1.0000 0.90670  0.95630  0.51900  Biso   1.000  C
  C223     1.0000 0.90670  0.04370  0.48100  Biso   1.000  C
  C224     1.0000 0.09330  0.04370  0.51900  Biso   1.000  C
  C225     1.0000 0.90670  0.48100  0.95630  Biso   1.000  C
  C226     1.0000 0.09330  0.51900  0.95630  Biso   1.000  C
  C227     1.0000 0.90670  0.51900  0.04370  Biso   1.000  C
  C228     1.0000 0.09330  0.48100  0.04370  Biso   1.000  C
  C229     1.0000 0.51900  0.90670  0.95630  Biso   1.000  C
  C230     1.0000 0.51900  0.09330  0.04370  Biso   1.000  C
  C231     1.0000 0.48100  0.09330  0.95630  Biso   1.000  C
  C232     1.0000 0.48100  0.90670  0.04370  Biso   1.000  C
  C233     1.0000 0.48100  0.95630  0.90670  Biso   1.000  C
  C234     1.0000 0.51900  0.95630  0.09330  Biso   1.000  C
  C235     1.0000 0.51900  0.04370  0.90670  Biso   1.000  C
  C236     1.0000 0.48100  0.04370  0.09330  Biso   1.000  C
  C237     1.0000 0.04370  0.51900  0.09330  Biso   1.000  C
  C238     1.0000 0.04370  0.48100  0.90670  Biso   1.000  C
  C239     1.0000 0.95630  0.51900  0.90670  Biso   1.000  C
  C240     1.0000 0.95630  0.48100  0.09330  Biso   1.000  C
  H145     1.0000 0.11960  0.04940  0.54720  Biso   1.000  H
  H146     1.0000 0.11960  0.95060  0.45280  Biso   1.000  H
  H147     1.0000 0.88040  0.95060  0.54720  Biso   1.000  H
  H148     1.0000 0.88040  0.04940  0.45280  Biso   1.000  H
  H149     1.0000 0.95060  0.11960  0.54720  Biso   1.000  H
  H150     1.0000 0.04940  0.11960  0.45280  Biso   1.000  H
  H151     1.0000 0.04940  0.88040  0.54720  Biso   1.000  H
  H152     1.0000 0.95060  0.88040  0.45280  Biso   1.000  H
  H153     1.0000 0.04940  0.54720  0.11960  Biso   1.000  H
  H154     1.0000 0.95060  0.45280  0.11960  Biso   1.000  H
  H155     1.0000 0.04940  0.45280  0.88040  Biso   1.000  H
  H156     1.0000 0.95060  0.54720  0.88040  Biso   1.000  H
  H157     1.0000 0.45280  0.04940  0.11960  Biso   1.000  H
  H158     1.0000 0.45280  0.95060  0.88040  Biso   1.000  H
  H159     1.0000 0.54720  0.95060  0.11960  Biso   1.000  H
  H160     1.0000 0.54720  0.04940  0.88040  Biso   1.000  H
  H161     1.0000 0.54720  0.11960  0.04940  Biso   1.000  H
  H162     1.0000 0.45280  0.11960  0.95060  Biso   1.000  H
  H163     1.0000 0.45280  0.88040  0.04940  Biso   1.000  H
  H164     1.0000 0.54720  0.88040  0.95060  Biso   1.000  H
  H165     1.0000 0.88040  0.45280  0.95060  Biso   1.000  H
  H166     1.0000 0.88040  0.54720  0.04940  Biso   1.000  H
  H167     1.0000 0.11960  0.45280  0.04940  Biso   1.000  H
  H168     1.0000 0.11960  0.54720  0.95060  Biso   1.000  H
  H169     1.0000 0.88040  0.95060  0.45280  Biso   1.000  H
  H170     1.0000 0.88040  0.04940  0.54720  Biso   1.000  H
  H171     1.0000 0.11960  0.04940  0.45280  Biso   1.000  H
  H172     1.0000 0.11960  0.95060  0.54720  Biso   1.000  H
  H173     1.0000 0.04940  0.88040  0.45280  Biso   1.000  H
  H174     1.0000 0.95060  0.88040  0.54720  Biso   1.000  H
  H175     1.0000 0.95060  0.11960  0.45280  Biso   1.000  H
  H176     1.0000 0.04940  0.11960  0.54720  Biso   1.000  H
  H177     1.0000 0.95060  0.45280  0.88040  Biso   1.000  H
  H178     1.0000 0.04940  0.54720  0.88040  Biso   1.000  H
  H179     1.0000 0.95060  0.54720  0.11960  Biso   1.000  H
  H180     1.0000 0.04940  0.45280  0.11960  Biso   1.000  H
  H181     1.0000 0.54720  0.95060  0.88040  Biso   1.000  H
  H182     1.0000 0.54720  0.04940  0.11960  Biso   1.000  H
  H183     1.0000 0.45280  0.04940  0.88040  Biso   1.000  H
  H184     1.0000 0.45280  0.95060  0.11960  Biso   1.000  H
  H185     1.0000 0.45280  0.88040  0.95060  Biso   1.000  H
  H186     1.0000 0.54720  0.88040  0.04940  Biso   1.000  H
  H187     1.0000 0.54720  0.11960  0.95060  Biso   1.000  H
  H188     1.0000 0.45280  0.11960  0.04940  Biso   1.000  H
  H189     1.0000 0.11960  0.54720  0.04940  Biso   1.000  H
  H190     1.0000 0.11960  0.45280  0.95060  Biso   1.000  H
  H191     1.0000 0.88040  0.54720  0.95060  Biso   1.000  H
  H192     1.0000 0.88040  0.45280  0.04940  Biso   1.000  H
  H193     1.0000 0.12900  0.08700  0.48480  Biso   1.000  H
  H194     1.0000 0.12900  0.91300  0.51520  Biso   1.000  H
  H195     1.0000 0.87100  0.91300  0.48480  Biso   1.000  H
  H196     1.0000 0.87100  0.08700  0.51520  Biso   1.000  H
  H197     1.0000 0.91300  0.12900  0.48480  Biso   1.000  H
  H198     1.0000 0.08700  0.12900  0.51520  Biso   1.000  H
  H199     1.0000 0.08700  0.87100  0.48480  Biso   1.000  H
  H200     1.0000 0.91300  0.87100  0.51520  Biso   1.000  H
  H201     1.0000 0.08700  0.48480  0.12900  Biso   1.000  H
  H202     1.0000 0.91300  0.51520  0.12900  Biso   1.000  H
  H203     1.0000 0.08700  0.51520  0.87100  Biso   1.000  H
  H204     1.0000 0.91300  0.48480  0.87100  Biso   1.000  H
  H205     1.0000 0.51520  0.08700  0.12900  Biso   1.000  H
  H206     1.0000 0.51520  0.91300  0.87100  Biso   1.000  H
  H207     1.0000 0.48480  0.91300  0.12900  Biso   1.000  H
  H208     1.0000 0.48480  0.08700  0.87100  Biso   1.000  H
  H209     1.0000 0.48480  0.12900  0.08700  Biso   1.000  H
  H210     1.0000 0.51520  0.12900  0.91300  Biso   1.000  H
  H211     1.0000 0.51520  0.87100  0.08700  Biso   1.000  H
  H212     1.0000 0.48480  0.87100  0.91300  Biso   1.000  H
  H213     1.0000 0.87100  0.51520  0.91300  Biso   1.000  H
  H214     1.0000 0.87100  0.48480  0.08700  Biso   1.000  H
  H215     1.0000 0.12900  0.51520  0.08700  Biso   1.000  H
  H216     1.0000 0.12900  0.48480  0.91300  Biso   1.000  H
  H217     1.0000 0.87100  0.91300  0.51520  Biso   1.000  H
  H218     1.0000 0.87100  0.08700  0.48480  Biso   1.000  H
  H219     1.0000 0.12900  0.08700  0.51520  Biso   1.000  H
  H220     1.0000 0.12900  0.91300  0.48480  Biso   1.000  H
  H221     1.0000 0.08700  0.87100  0.51520  Biso   1.000  H
  H222     1.0000 0.91300  0.87100  0.48480  Biso   1.000  H
  H223     1.0000 0.91300  0.12900  0.51520  Biso   1.000  H
  H224     1.0000 0.08700  0.12900  0.48480  Biso   1.000  H
  H225     1.0000 0.91300  0.51520  0.87100  Biso   1.000  H
  H226     1.0000 0.08700  0.48480  0.87100  Biso   1.000  H
  H227     1.0000 0.91300  0.48480  0.12900  Biso   1.000  H
  H228     1.0000 0.08700  0.51520  0.12900  Biso   1.000  H
  H229     1.0000 0.48480  0.91300  0.87100  Biso   1.000  H
  H230     1.0000 0.48480  0.08700  0.12900  Biso   1.000  H
  H231     1.0000 0.51520  0.08700  0.87100  Biso   1.000  H
  H232     1.0000 0.51520  0.91300  0.12900  Biso   1.000  H
  H233     1.0000 0.51520  0.87100  0.91300  Biso   1.000  H
  H234     1.0000 0.48480  0.87100  0.08700  Biso   1.000  H
  H235     1.0000 0.48480  0.12900  0.91300  Biso   1.000  H
  H236     1.0000 0.51520  0.12900  0.08700  Biso   1.000  H
  H237     1.0000 0.12900  0.48480  0.08700  Biso   1.000  H
  H238     1.0000 0.12900  0.51520  0.91300  Biso   1.000  H
  H239     1.0000 0.87100  0.48480  0.91300  Biso   1.000  H
  H240     1.0000 0.87100  0.51520  0.08700  Biso   1.000  H
  H241     1.0000 0.02440  0.07680  0.55670  Biso   1.000  H
  H242     1.0000 0.02440  0.92320  0.44330  Biso   1.000  H
  H243     1.0000 0.97560  0.92320  0.55670  Biso   1.000  H
  H244     1.0000 0.97560  0.07680  0.44330  Biso   1.000  H
  H245     1.0000 0.92320  0.02440  0.55670  Biso   1.000  H
  H246     1.0000 0.07680  0.02440  0.44330  Biso   1.000  H
  H247     1.0000 0.07680  0.97560  0.55670  Biso   1.000  H
  H248     1.0000 0.92320  0.97560  0.44330  Biso   1.000  H
  H249     1.0000 0.07680  0.55670  0.02440  Biso   1.000  H
  H250     1.0000 0.92320  0.44330  0.02440  Biso   1.000  H
  H251     1.0000 0.07680  0.44330  0.97560  Biso   1.000  H
  H252     1.0000 0.92320  0.55670  0.97560  Biso   1.000  H
  H253     1.0000 0.44330  0.07680  0.02440  Biso   1.000  H
  H254     1.0000 0.44330  0.92320  0.97560  Biso   1.000  H
  H255     1.0000 0.55670  0.92320  0.02440  Biso   1.000  H
  H256     1.0000 0.55670  0.07680  0.97560  Biso   1.000  H
  H257     1.0000 0.55670  0.02440  0.07680  Biso   1.000  H
  H258     1.0000 0.44330  0.02440  0.92320  Biso   1.000  H
  H259     1.0000 0.44330  0.97560  0.07680  Biso   1.000  H
  H260     1.0000 0.55670  0.97560  0.92320  Biso   1.000  H
  H261     1.0000 0.97560  0.44330  0.92320  Biso   1.000  H
  H262     1.0000 0.97560  0.55670  0.07680  Biso   1.000  H
  H263     1.0000 0.02440  0.44330  0.07680  Biso   1.000  H
  H264     1.0000 0.02440  0.55670  0.92320  Biso   1.000  H
  H265     1.0000 0.97560  0.92320  0.44330  Biso   1.000  H
  H266     1.0000 0.97560  0.07680  0.55670  Biso   1.000  H
  H267     1.0000 0.02440  0.07680  0.44330  Biso   1.000  H
  H268     1.0000 0.02440  0.92320  0.55670  Biso   1.000  H
  H269     1.0000 0.07680  0.97560  0.44330  Biso   1.000  H
  H270     1.0000 0.92320  0.97560  0.55670  Biso   1.000  H
  H271     1.0000 0.92320  0.02440  0.44330  Biso   1.000  H
  H272     1.0000 0.07680  0.02440  0.55670  Biso   1.000  H
  H273     1.0000 0.92320  0.44330  0.97560  Biso   1.000  H
  H274     1.0000 0.07680  0.55670  0.97560  Biso   1.000  H
  H275     1.0000 0.92320  0.55670  0.02440  Biso   1.000  H
  H276     1.0000 0.07680  0.44330  0.02440  Biso   1.000  H
  H277     1.0000 0.55670  0.92320  0.97560  Biso   1.000  H
  H278     1.0000 0.55670  0.07680  0.02440  Biso   1.000  H
  H279     1.0000 0.44330  0.07680  0.97560  Biso   1.000  H
  H280     1.0000 0.44330  0.92320  0.02440  Biso   1.000  H
  H281     1.0000 0.44330  0.97560  0.92320  Biso   1.000  H
  H282     1.0000 0.55670  0.97560  0.07680  Biso   1.000  H
  H283     1.0000 0.55670  0.02440  0.92320  Biso   1.000  H
  H284     1.0000 0.44330  0.02440  0.07680  Biso   1.000  H
  H285     1.0000 0.02440  0.55670  0.07680  Biso   1.000  H
  H286     1.0000 0.02440  0.44330  0.92320  Biso   1.000  H
  H287     1.0000 0.97560  0.55670  0.92320  Biso   1.000  H
  H288     1.0000 0.97560  0.44330  0.07680  Biso   1.000  H
  H289     1.0000 0.05370  0.13700  0.52660  Biso   1.000  H
  H290     1.0000 0.05370  0.86300  0.47340  Biso   1.000  H
  H291     1.0000 0.94630  0.86300  0.52660  Biso   1.000  H
  H292     1.0000 0.94630  0.13700  0.47340  Biso   1.000  H
  H293     1.0000 0.86300  0.05370  0.52660  Biso   1.000  H
  H294     1.0000 0.13700  0.05370  0.47340  Biso   1.000  H
  H295     1.0000 0.13700  0.94630  0.52660  Biso   1.000  H
  H296     1.0000 0.86300  0.94630  0.47340  Biso   1.000  H
  H297     1.0000 0.13700  0.52660  0.05370  Biso   1.000  H
  H298     1.0000 0.86300  0.47340  0.05370  Biso   1.000  H
  H299     1.0000 0.13700  0.47340  0.94630  Biso   1.000  H
  H300     1.0000 0.86300  0.52660  0.94630  Biso   1.000  H
  H301     1.0000 0.47340  0.13700  0.05370  Biso   1.000  H
  H302     1.0000 0.47340  0.86300  0.94630  Biso   1.000  H
  H303     1.0000 0.52660  0.86300  0.05370  Biso   1.000  H
  H304     1.0000 0.52660  0.13700  0.94630  Biso   1.000  H
  H305     1.0000 0.52660  0.05370  0.13700  Biso   1.000  H
  H306     1.0000 0.47340  0.05370  0.86300  Biso   1.000  H
  H307     1.0000 0.47340  0.94630  0.13700  Biso   1.000  H
  H308     1.0000 0.52660  0.94630  0.86300  Biso   1.000  H
  H309     1.0000 0.94630  0.47340  0.86300  Biso   1.000  H
  H310     1.0000 0.94630  0.52660  0.13700  Biso   1.000  H
  H311     1.0000 0.05370  0.47340  0.13700  Biso   1.000  H
  H312     1.0000 0.05370  0.52660  0.86300  Biso   1.000  H
  H313     1.0000 0.94630  0.86300  0.47340  Biso   1.000  H
  H314     1.0000 0.94630  0.13700  0.52660  Biso   1.000  H
  H315     1.0000 0.05370  0.13700  0.47340  Biso   1.000  H
  H316     1.0000 0.05370  0.86300  0.52660  Biso   1.000  H
  H317     1.0000 0.13700  0.94630  0.47340  Biso   1.000  H
  H318     1.0000 0.86300  0.94630  0.52660  Biso   1.000  H
  H319     1.0000 0.86300  0.05370  0.47340  Biso   1.000  H
  H320     1.0000 0.13700  0.05370  0.52660  Biso   1.000  H
  H321     1.0000 0.86300  0.47340  0.94630  Biso   1.000  H
  H322     1.0000 0.13700  0.52660  0.94630  Biso   1.000  H
  H323     1.0000 0.86300  0.52660  0.05370  Biso   1.000  H
  H324     1.0000 0.13700  0.47340  0.05370  Biso   1.000  H
  H325     1.0000 0.52660  0.86300  0.94630  Biso   1.000  H
  H326     1.0000 0.52660  0.13700  0.05370  Biso   1.000  H
  H327     1.0000 0.47340  0.13700  0.94630  Biso   1.000  H
  H328     1.0000 0.47340  0.86300  0.05370  Biso   1.000  H
  H329     1.0000 0.47340  0.94630  0.86300  Biso   1.000  H
  H330     1.0000 0.52660  0.94630  0.13700  Biso   1.000  H
  H331     1.0000 0.52660  0.05370  0.86300  Biso   1.000  H
  H332     1.0000 0.47340  0.05370  0.13700  Biso   1.000  H
  H333     1.0000 0.05370  0.52660  0.13700  Biso   1.000  H
  H334     1.0000 0.05370  0.47340  0.86300  Biso   1.000  H
  H335     1.0000 0.94630  0.52660  0.86300  Biso   1.000  H
  H336     1.0000 0.94630  0.47340  0.13700  Biso   1.000  H
  C241     1.0000 0.10030  0.06000  0.50740  Biso   1.000  C
  C242     1.0000 0.10030  0.94000  0.49260  Biso   1.000  C
  C243     1.0000 0.89970  0.94000  0.50740  Biso   1.000  C
  C244     1.0000 0.89970  0.06000  0.49260  Biso   1.000  C
  C245     1.0000 0.94000  0.10030  0.50740  Biso   1.000  C
  C246     1.0000 0.06000  0.10030  0.49260  Biso   1.000  C
  C247     1.0000 0.06000  0.89970  0.50740  Biso   1.000  C
  C248     1.0000 0.94000  0.89970  0.49260  Biso   1.000  C
  C249     1.0000 0.06000  0.50740  0.10030  Biso   1.000  C
  C250     1.0000 0.94000  0.49260  0.10030  Biso   1.000  C
  C251     1.0000 0.06000  0.49260  0.89970  Biso   1.000  C
  C252     1.0000 0.94000  0.50740  0.89970  Biso   1.000  C
  C253     1.0000 0.49260  0.06000  0.10030  Biso   1.000  C
  C254     1.0000 0.49260  0.94000  0.89970  Biso   1.000  C
  C255     1.0000 0.50740  0.94000  0.10030  Biso   1.000  C
  C256     1.0000 0.50740  0.06000  0.89970  Biso   1.000  C
  C257     1.0000 0.50740  0.10030  0.06000  Biso   1.000  C
  C258     1.0000 0.49260  0.10030  0.94000  Biso   1.000  C
  C259     1.0000 0.49260  0.89970  0.06000  Biso   1.000  C
  C260     1.0000 0.50740  0.89970  0.94000  Biso   1.000  C
  C261     1.0000 0.89970  0.49260  0.94000  Biso   1.000  C
  C262     1.0000 0.89970  0.50740  0.06000  Biso   1.000  C
  C263     1.0000 0.10030  0.49260  0.06000  Biso   1.000  C
  C264     1.0000 0.10030  0.50740  0.94000  Biso   1.000  C
  C265     1.0000 0.89970  0.94000  0.49260  Biso   1.000  C
  C266     1.0000 0.89970  0.06000  0.50740  Biso   1.000  C
  C267     1.0000 0.10030  0.06000  0.49260  Biso   1.000  C
  C268     1.0000 0.10030  0.94000  0.50740  Biso   1.000  C
  C269     1.0000 0.06000  0.89970  0.49260  Biso   1.000  C
  C270     1.0000 0.94000  0.89970  0.50740  Biso   1.000  C
  C271     1.0000 0.94000  0.10030  0.49260  Biso   1.000  C
  C272     1.0000 0.06000  0.10030  0.50740  Biso   1.000  C
  C273     1.0000 0.94000  0.49260  0.89970  Biso   1.000  C
  C274     1.0000 0.06000  0.50740  0.89970  Biso   1.000  C
  C275     1.0000 0.94000  0.50740  0.10030  Biso   1.000  C
  C276     1.0000 0.06000  0.49260  0.10030  Biso   1.000  C
  C277     1.0000 0.50740  0.94000  0.89970  Biso   1.000  C
  C278     1.0000 0.50740  0.06000  0.10030  Biso   1.000  C
  C279     1.0000 0.49260  0.06000  0.89970  Biso   1.000  C
  C280     1.0000 0.49260  0.94000  0.10030  Biso   1.000  C
  C281     1.0000 0.49260  0.89970  0.94000  Biso   1.000  C
  C282     1.0000 0.50740  0.89970  0.06000  Biso   1.000  C
  C283     1.0000 0.50740  0.10030  0.94000  Biso   1.000  C
  C284     1.0000 0.49260  0.10030  0.06000  Biso   1.000  C
  C285     1.0000 0.10030  0.50740  0.06000  Biso   1.000  C
  C286     1.0000 0.10030  0.49260  0.94000  Biso   1.000  C
  C287     1.0000 0.89970  0.50740  0.94000  Biso   1.000  C
  C288     1.0000 0.89970  0.49260  0.06000  Biso   1.000  C
