data_image0
_cell_length_a       17.685
_cell_length_b       18.791
_cell_length_c       19.233
_cell_angle_alpha    90
_cell_angle_beta     94.063
_cell_angle_gamma    90

_symmetry_space_group_name_H-M    "P 1"
_symmetry_int_tables_number       1

loop_
  _symmetry_equiv_pos_as_xyz
  'x, y, z'

loop_
  _atom_site_label
  _atom_site_occupancy
  _atom_site_fract_x
  _atom_site_fract_y
  _atom_site_fract_z
  _atom_site_thermal_displace_type
  _atom_site_B_iso_or_equiv
  _atom_site_type_symbol
  Cu1      1.0000 0.82514  0.84287  0.47962  Biso   1.000  Cu
  Cu2      1.0000 0.32514  0.34287  0.97962  Biso   1.000  Cu
  Cu3      1.0000 0.32514  0.15713  0.47962  Biso   1.000  Cu
  Cu4      1.0000 0.82514  0.65713  0.97962  Biso   1.000  Cu
  Cu5      1.0000 0.17486  0.15713  0.52038  Biso   1.000  Cu
  Cu6      1.0000 0.67486  0.65713  0.02038  Biso   1.000  Cu
  Cu7      1.0000 0.67486  0.84287  0.52038  Biso   1.000  Cu
  Cu8      1.0000 0.17486  0.34287  0.02038  Biso   1.000  Cu
  Cu9      1.0000 0.72108  0.74985  0.43146  Biso   1.000  Cu
  Cu10     1.0000 0.22108  0.24985  0.93146  Biso   1.000  Cu
  Cu11     1.0000 0.22108  0.25015  0.43146  Biso   1.000  Cu
  Cu12     1.0000 0.72108  0.75015  0.93146  Biso   1.000  Cu
  Cu13     1.0000 0.27892  0.25015  0.56854  Biso   1.000  Cu
  Cu14     1.0000 0.77892  0.75015  0.06854  Biso   1.000  Cu
  Cu15     1.0000 0.77892  0.74985  0.56854  Biso   1.000  Cu
  Cu16     1.0000 0.27892  0.24985  0.06854  Biso   1.000  Cu
  I1       1.0000 0.70237  0.88545  0.39253  Biso   1.000  I
  I2       1.0000 0.20237  0.38545  0.89253  Biso   1.000  I
  I3       1.0000 0.20237  0.11455  0.39253  Biso   1.000  I
  I4       1.0000 0.70237  0.61455  0.89253  Biso   1.000  I
  I5       1.0000 0.29763  0.11455  0.60747  Biso   1.000  I
  I6       1.0000 0.79763  0.61455  0.10747  Biso   1.000  I
  I7       1.0000 0.79763  0.88545  0.60747  Biso   1.000  I
  I8       1.0000 0.29763  0.38545  0.10747  Biso   1.000  I
  I9       1.0000 0.86524  0.70838  0.46225  Biso   1.000  I
  I10      1.0000 0.36524  0.20838  0.96225  Biso   1.000  I
  I11      1.0000 0.36524  0.29162  0.46225  Biso   1.000  I
  I12      1.0000 0.86524  0.79162  0.96225  Biso   1.000  I
  I13      1.0000 0.13476  0.29162  0.53775  Biso   1.000  I
  I14      1.0000 0.63476  0.79162  0.03775  Biso   1.000  I
  I15      1.0000 0.63476  0.70838  0.53775  Biso   1.000  I
  I16      1.0000 0.13476  0.20838  0.03775  Biso   1.000  I
  Si1      1.0000 0.92560  0.06011  0.18608  Biso   1.000  Si
  Si2      1.0000 0.42560  0.56011  0.68608  Biso   1.000  Si
  Si3      1.0000 0.42560  0.93989  0.18608  Biso   1.000  Si
  Si4      1.0000 0.92560  0.43989  0.68608  Biso   1.000  Si
  Si5      1.0000 0.07440  0.93989  0.81392  Biso   1.000  Si
  Si6      1.0000 0.57440  0.43989  0.31392  Biso   1.000  Si
  Si7      1.0000 0.57440  0.06011  0.81392  Biso   1.000  Si
  Si8      1.0000 0.07440  0.56011  0.31392  Biso   1.000  Si
  Si9      1.0000 0.88730  0.13180  0.33010  Biso   1.000  Si
  Si10     1.0000 0.38730  0.63180  0.83010  Biso   1.000  Si
  Si11     1.0000 0.38730  0.86820  0.33010  Biso   1.000  Si
  Si12     1.0000 0.88730  0.36820  0.83010  Biso   1.000  Si
  Si13     1.0000 0.11270  0.86820  0.66990  Biso   1.000  Si
  Si14     1.0000 0.61270  0.36820  0.16990  Biso   1.000  Si
  Si15     1.0000 0.61270  0.13180  0.66990  Biso   1.000  Si
  Si16     1.0000 0.11270  0.63180  0.16990  Biso   1.000  Si
  N1       1.0000 0.81670  0.81310  0.14960  Biso   1.000  N
  N2       1.0000 0.31670  0.31310  0.64960  Biso   1.000  N
  N3       1.0000 0.31670  0.18690  0.14960  Biso   1.000  N
  N4       1.0000 0.81670  0.68690  0.64960  Biso   1.000  N
  N5       1.0000 0.18330  0.18690  0.85040  Biso   1.000  N
  N6       1.0000 0.68330  0.68690  0.35040  Biso   1.000  N
  N7       1.0000 0.68330  0.81310  0.85040  Biso   1.000  N
  N8       1.0000 0.18330  0.31310  0.35040  Biso   1.000  N
  C1       1.0000 0.82630  0.88280  0.13750  Biso   1.000  C
  C2       1.0000 0.32630  0.38280  0.63750  Biso   1.000  C
  C3       1.0000 0.32630  0.11720  0.13750  Biso   1.000  C
  C4       1.0000 0.82630  0.61720  0.63750  Biso   1.000  C
  C5       1.0000 0.17370  0.11720  0.86250  Biso   1.000  C
  C6       1.0000 0.67370  0.61720  0.36250  Biso   1.000  C
  C7       1.0000 0.67370  0.88280  0.86250  Biso   1.000  C
  C8       1.0000 0.17370  0.38280  0.36250  Biso   1.000  C
  H1       1.0000 0.81400  0.90020  0.09290  Biso   1.000  H
  H2       1.0000 0.31400  0.40020  0.59290  Biso   1.000  H
  H3       1.0000 0.31400  0.09980  0.09290  Biso   1.000  H
  H4       1.0000 0.81400  0.59980  0.59290  Biso   1.000  H
  H5       1.0000 0.18600  0.09980  0.90710  Biso   1.000  H
  H6       1.0000 0.68600  0.59980  0.40710  Biso   1.000  H
  H7       1.0000 0.68600  0.90020  0.90710  Biso   1.000  H
  H8       1.0000 0.18600  0.40020  0.40710  Biso   1.000  H
  C9       1.0000 0.85370  0.92960  0.18850  Biso   1.000  C
  C10      1.0000 0.35370  0.42960  0.68850  Biso   1.000  C
  C11      1.0000 0.35370  0.07040  0.18850  Biso   1.000  C
  C12      1.0000 0.85370  0.57040  0.68850  Biso   1.000  C
  C13      1.0000 0.14630  0.07040  0.81150  Biso   1.000  C
  C14      1.0000 0.64630  0.57040  0.31150  Biso   1.000  C
  C15      1.0000 0.64630  0.92960  0.81150  Biso   1.000  C
  C16      1.0000 0.14630  0.42960  0.31150  Biso   1.000  C
  C17      1.0000 0.86990  0.90470  0.25370  Biso   1.000  C
  C18      1.0000 0.36990  0.40470  0.75370  Biso   1.000  C
  C19      1.0000 0.36990  0.09530  0.25370  Biso   1.000  C
  C20      1.0000 0.86990  0.59530  0.75370  Biso   1.000  C
  C21      1.0000 0.13010  0.09530  0.74630  Biso   1.000  C
  C22      1.0000 0.63010  0.59530  0.24630  Biso   1.000  C
  C23      1.0000 0.63010  0.90470  0.74630  Biso   1.000  C
  C24      1.0000 0.13010  0.40470  0.24630  Biso   1.000  C
  H9       1.0000 0.88840  0.93510  0.28910  Biso   1.000  H
  H10      1.0000 0.38840  0.43510  0.78910  Biso   1.000  H
  H11      1.0000 0.38840  0.06490  0.28910  Biso   1.000  H
  H12      1.0000 0.88840  0.56490  0.78910  Biso   1.000  H
  H13      1.0000 0.11160  0.06490  0.71090  Biso   1.000  H
  H14      1.0000 0.61160  0.56490  0.21090  Biso   1.000  H
  H15      1.0000 0.61160  0.93510  0.71090  Biso   1.000  H
  H16      1.0000 0.11160  0.43510  0.21090  Biso   1.000  H
  C25      1.0000 0.85860  0.83410  0.26700  Biso   1.000  C
  C26      1.0000 0.35860  0.33410  0.76700  Biso   1.000  C
  C27      1.0000 0.35860  0.16590  0.26700  Biso   1.000  C
  C28      1.0000 0.85860  0.66590  0.76700  Biso   1.000  C
  C29      1.0000 0.14140  0.16590  0.73300  Biso   1.000  C
  C30      1.0000 0.64140  0.66590  0.23300  Biso   1.000  C
  C31      1.0000 0.64140  0.83410  0.73300  Biso   1.000  C
  C32      1.0000 0.14140  0.33410  0.23300  Biso   1.000  C
  H17      1.0000 0.86760  0.81680  0.31220  Biso   1.000  H
  H18      1.0000 0.36760  0.31680  0.81220  Biso   1.000  H
  H19      1.0000 0.36760  0.18320  0.31220  Biso   1.000  H
  H20      1.0000 0.86760  0.68320  0.81220  Biso   1.000  H
  H21      1.0000 0.13240  0.18320  0.68780  Biso   1.000  H
  H22      1.0000 0.63240  0.68320  0.18780  Biso   1.000  H
  H23      1.0000 0.63240  0.81680  0.68780  Biso   1.000  H
  H24      1.0000 0.13240  0.31680  0.18780  Biso   1.000  H
  C33      1.0000 0.83420  0.78890  0.21450  Biso   1.000  C
  C34      1.0000 0.33420  0.28890  0.71450  Biso   1.000  C
  C35      1.0000 0.33420  0.21110  0.21450  Biso   1.000  C
  C36      1.0000 0.83420  0.71110  0.71450  Biso   1.000  C
  C37      1.0000 0.16580  0.21110  0.78550  Biso   1.000  C
  C38      1.0000 0.66580  0.71110  0.28550  Biso   1.000  C
  C39      1.0000 0.66580  0.78890  0.78550  Biso   1.000  C
  C40      1.0000 0.16580  0.28890  0.28550  Biso   1.000  C
  H25      1.0000 0.82960  0.74050  0.22380  Biso   1.000  H
  H26      1.0000 0.32960  0.24050  0.72380  Biso   1.000  H
  H27      1.0000 0.32960  0.25950  0.22380  Biso   1.000  H
  H28      1.0000 0.82960  0.75950  0.72380  Biso   1.000  H
  H29      1.0000 0.17040  0.25950  0.77620  Biso   1.000  H
  H30      1.0000 0.67040  0.75950  0.27620  Biso   1.000  H
  H31      1.0000 0.67040  0.74050  0.77620  Biso   1.000  H
  H32      1.0000 0.17040  0.24050  0.27620  Biso   1.000  H
  O1       1.0000 0.85920  0.99950  0.16920  Biso   1.000  O
  O2       1.0000 0.35920  0.49950  0.66920  Biso   1.000  O
  O3       1.0000 0.35920  0.00050  0.16920  Biso   1.000  O
  O4       1.0000 0.85920  0.50050  0.66920  Biso   1.000  O
  O5       1.0000 0.14080  0.00050  0.83080  Biso   1.000  O
  O6       1.0000 0.64080  0.50050  0.33080  Biso   1.000  O
  O7       1.0000 0.64080  0.99950  0.83080  Biso   1.000  O
  O8       1.0000 0.14080  0.49950  0.33080  Biso   1.000  O
  O9       1.0000 0.91520  0.09490  0.26110  Biso   1.000  O
  O10      1.0000 0.41520  0.59490  0.76110  Biso   1.000  O
  O11      1.0000 0.41520  0.90510  0.26110  Biso   1.000  O
  O12      1.0000 0.91520  0.40510  0.76110  Biso   1.000  O
  O13      1.0000 0.08480  0.90510  0.73890  Biso   1.000  O
  O14      1.0000 0.58480  0.40510  0.23890  Biso   1.000  O
  O15      1.0000 0.58480  0.09490  0.73890  Biso   1.000  O
  O16      1.0000 0.08480  0.59490  0.23890  Biso   1.000  O
  O17      1.0000 0.92750  0.09100  0.39830  Biso   1.000  O
  O18      1.0000 0.42750  0.59100  0.89830  Biso   1.000  O
  O19      1.0000 0.42750  0.90900  0.39830  Biso   1.000  O
  O20      1.0000 0.92750  0.40900  0.89830  Biso   1.000  O
  O21      1.0000 0.07250  0.90900  0.60170  Biso   1.000  O
  O22      1.0000 0.57250  0.40900  0.10170  Biso   1.000  O
  O23      1.0000 0.57250  0.09100  0.60170  Biso   1.000  O
  O24      1.0000 0.07250  0.59100  0.10170  Biso   1.000  O
  C41      1.0000 0.94590  0.02140  0.40780  Biso   1.000  C
  C42      1.0000 0.44590  0.52140  0.90780  Biso   1.000  C
  C43      1.0000 0.44590  0.97860  0.40780  Biso   1.000  C
  C44      1.0000 0.94590  0.47860  0.90780  Biso   1.000  C
  C45      1.0000 0.05410  0.97860  0.59220  Biso   1.000  C
  C46      1.0000 0.55410  0.47860  0.09220  Biso   1.000  C
  C47      1.0000 0.55410  0.02140  0.59220  Biso   1.000  C
  C48      1.0000 0.05410  0.52140  0.09220  Biso   1.000  C
  C49      1.0000 0.89410  0.97550  0.43470  Biso   1.000  C
  C50      1.0000 0.39410  0.47550  0.93470  Biso   1.000  C
  C51      1.0000 0.39410  0.02450  0.43470  Biso   1.000  C
  C52      1.0000 0.89410  0.52450  0.93470  Biso   1.000  C
  C53      1.0000 0.10590  0.02450  0.56530  Biso   1.000  C
  C54      1.0000 0.60590  0.52450  0.06530  Biso   1.000  C
  C55      1.0000 0.60590  0.97550  0.56530  Biso   1.000  C
  C56      1.0000 0.10590  0.47550  0.06530  Biso   1.000  C
  H33      1.0000 0.84700  0.99320  0.44500  Biso   1.000  H
  H34      1.0000 0.34700  0.49320  0.94500  Biso   1.000  H
  H35      1.0000 0.34700  0.00680  0.44500  Biso   1.000  H
  H36      1.0000 0.84700  0.50680  0.94500  Biso   1.000  H
  H37      1.0000 0.15300  0.00680  0.55500  Biso   1.000  H
  H38      1.0000 0.65300  0.50680  0.05500  Biso   1.000  H
  H39      1.0000 0.65300  0.99320  0.55500  Biso   1.000  H
  H40      1.0000 0.15300  0.49320  0.05500  Biso   1.000  H
  N9       1.0000 0.90940  0.90670  0.44630  Biso   1.000  N
  N10      1.0000 0.40940  0.40670  0.94630  Biso   1.000  N
  N11      1.0000 0.40940  0.09330  0.44630  Biso   1.000  N
  N12      1.0000 0.90940  0.59330  0.94630  Biso   1.000  N
  N13      1.0000 0.09060  0.09330  0.55370  Biso   1.000  N
  N14      1.0000 0.59060  0.59330  0.05370  Biso   1.000  N
  N15      1.0000 0.59060  0.90670  0.55370  Biso   1.000  N
  N16      1.0000 0.09060  0.40670  0.05370  Biso   1.000  N
  C57      1.0000 0.97730  0.88360  0.43260  Biso   1.000  C
  C58      1.0000 0.47730  0.38360  0.93260  Biso   1.000  C
  C59      1.0000 0.47730  0.11640  0.43260  Biso   1.000  C
  C60      1.0000 0.97730  0.61640  0.93260  Biso   1.000  C
  C61      1.0000 0.02270  0.11640  0.56740  Biso   1.000  C
  C62      1.0000 0.52270  0.61640  0.06740  Biso   1.000  C
  C63      1.0000 0.52270  0.88360  0.56740  Biso   1.000  C
  C64      1.0000 0.02270  0.38360  0.06740  Biso   1.000  C
  H41      1.0000 0.98820  0.83590  0.44120  Biso   1.000  H
  H42      1.0000 0.48820  0.33590  0.94120  Biso   1.000  H
  H43      1.0000 0.48820  0.16410  0.44120  Biso   1.000  H
  H44      1.0000 0.98820  0.66410  0.94120  Biso   1.000  H
  H45      1.0000 0.01180  0.16410  0.55880  Biso   1.000  H
  H46      1.0000 0.51180  0.66410  0.05880  Biso   1.000  H
  H47      1.0000 0.51180  0.83590  0.55880  Biso   1.000  H
  H48      1.0000 0.01180  0.33590  0.05880  Biso   1.000  H
  C65      1.0000 0.03200  0.92390  0.40710  Biso   1.000  C
  C66      1.0000 0.53200  0.42390  0.90710  Biso   1.000  C
  C67      1.0000 0.53200  0.07610  0.40710  Biso   1.000  C
  C68      1.0000 0.03200  0.57610  0.90710  Biso   1.000  C
  C69      1.0000 0.96800  0.07610  0.59290  Biso   1.000  C
  C70      1.0000 0.46800  0.57610  0.09290  Biso   1.000  C
  C71      1.0000 0.46800  0.92390  0.59290  Biso   1.000  C
  C72      1.0000 0.96800  0.42390  0.09290  Biso   1.000  C
  H49      1.0000 0.07890  0.90490  0.39840  Biso   1.000  H
  H50      1.0000 0.57890  0.40490  0.89840  Biso   1.000  H
  H51      1.0000 0.57890  0.09510  0.39840  Biso   1.000  H
  H52      1.0000 0.07890  0.59510  0.89840  Biso   1.000  H
  H53      1.0000 0.92110  0.09510  0.60160  Biso   1.000  H
  H54      1.0000 0.42110  0.59510  0.10160  Biso   1.000  H
  H55      1.0000 0.42110  0.90490  0.60160  Biso   1.000  H
  H56      1.0000 0.92110  0.40490  0.10160  Biso   1.000  H
  C73      1.0000 0.01490  0.99650  0.39410  Biso   1.000  C
  C74      1.0000 0.51490  0.49650  0.89410  Biso   1.000  C
  C75      1.0000 0.51490  0.00350  0.39410  Biso   1.000  C
  C76      1.0000 0.01490  0.50350  0.89410  Biso   1.000  C
  C77      1.0000 0.98510  0.00350  0.60590  Biso   1.000  C
  C78      1.0000 0.48510  0.50350  0.10590  Biso   1.000  C
  C79      1.0000 0.48510  0.99650  0.60590  Biso   1.000  C
  C80      1.0000 0.98510  0.49650  0.10590  Biso   1.000  C
  H57      1.0000 0.05060  0.02660  0.37640  Biso   1.000  H
  H58      1.0000 0.55060  0.52660  0.87640  Biso   1.000  H
  H59      1.0000 0.55060  0.97340  0.37640  Biso   1.000  H
  H60      1.0000 0.05060  0.47340  0.87640  Biso   1.000  H
  H61      1.0000 0.94940  0.97340  0.62360  Biso   1.000  H
  H62      1.0000 0.44940  0.47340  0.12360  Biso   1.000  H
  H63      1.0000 0.44940  0.02660  0.62360  Biso   1.000  H
  H64      1.0000 0.94940  0.52660  0.12360  Biso   1.000  H
  C81      1.0000 0.01770  0.01430  0.18030  Biso   1.000  C
  C82      1.0000 0.51770  0.51430  0.68030  Biso   1.000  C
  C83      1.0000 0.51770  0.98570  0.18030  Biso   1.000  C
  C84      1.0000 0.01770  0.48570  0.68030  Biso   1.000  C
  C85      1.0000 0.98230  0.98570  0.81970  Biso   1.000  C
  C86      1.0000 0.48230  0.48570  0.31970  Biso   1.000  C
  C87      1.0000 0.48230  0.01430  0.81970  Biso   1.000  C
  C88      1.0000 0.98230  0.51430  0.31970  Biso   1.000  C
  H65      1.0000 0.01870  0.98040  0.21910  Biso   1.000  H
  H66      1.0000 0.51870  0.48040  0.71910  Biso   1.000  H
  H67      1.0000 0.51870  0.01960  0.21910  Biso   1.000  H
  H68      1.0000 0.01870  0.51960  0.71910  Biso   1.000  H
  H69      1.0000 0.98130  0.01960  0.78090  Biso   1.000  H
  H70      1.0000 0.48130  0.51960  0.28090  Biso   1.000  H
  H71      1.0000 0.48130  0.98040  0.78090  Biso   1.000  H
  H72      1.0000 0.98130  0.48040  0.28090  Biso   1.000  H
  C89      1.0000 0.02620  0.96760  0.11880  Biso   1.000  C
  C90      1.0000 0.52620  0.46760  0.61880  Biso   1.000  C
  C91      1.0000 0.52620  0.03240  0.11880  Biso   1.000  C
  C92      1.0000 0.02620  0.53240  0.61880  Biso   1.000  C
  C93      1.0000 0.97380  0.03240  0.88120  Biso   1.000  C
  C94      1.0000 0.47380  0.53240  0.38120  Biso   1.000  C
  C95      1.0000 0.47380  0.96760  0.88120  Biso   1.000  C
  C96      1.0000 0.97380  0.46760  0.38120  Biso   1.000  C
  H73      1.0000 0.98090  0.94000  0.10970  Biso   1.000  H
  H74      1.0000 0.48090  0.44000  0.60970  Biso   1.000  H
  H75      1.0000 0.48090  0.06000  0.10970  Biso   1.000  H
  H76      1.0000 0.98090  0.56000  0.60970  Biso   1.000  H
  H77      1.0000 0.01910  0.06000  0.89030  Biso   1.000  H
  H78      1.0000 0.51910  0.56000  0.39030  Biso   1.000  H
  H79      1.0000 0.51910  0.94000  0.89030  Biso   1.000  H
  H80      1.0000 0.01910  0.44000  0.39030  Biso   1.000  H
  H81      1.0000 0.03460  0.99640  0.07890  Biso   1.000  H
  H82      1.0000 0.53460  0.49640  0.57890  Biso   1.000  H
  H83      1.0000 0.53460  0.00360  0.07890  Biso   1.000  H
  H84      1.0000 0.03460  0.50360  0.57890  Biso   1.000  H
  H85      1.0000 0.96540  0.00360  0.92110  Biso   1.000  H
  H86      1.0000 0.46540  0.50360  0.42110  Biso   1.000  H
  H87      1.0000 0.46540  0.99640  0.92110  Biso   1.000  H
  H88      1.0000 0.96540  0.49640  0.42110  Biso   1.000  H
  H89      1.0000 0.06860  0.93620  0.12820  Biso   1.000  H
  H90      1.0000 0.56860  0.43620  0.62820  Biso   1.000  H
  H91      1.0000 0.56860  0.06380  0.12820  Biso   1.000  H
  H92      1.0000 0.06860  0.56380  0.62820  Biso   1.000  H
  H93      1.0000 0.93140  0.06380  0.87180  Biso   1.000  H
  H94      1.0000 0.43140  0.56380  0.37180  Biso   1.000  H
  H95      1.0000 0.43140  0.93620  0.87180  Biso   1.000  H
  H96      1.0000 0.93140  0.43620  0.37180  Biso   1.000  H
  C97      1.0000 0.08670  0.05960  0.19810  Biso   1.000  C
  C98      1.0000 0.58670  0.55960  0.69810  Biso   1.000  C
  C99      1.0000 0.58670  0.94040  0.19810  Biso   1.000  C
  C100     1.0000 0.08670  0.44040  0.69810  Biso   1.000  C
  C101     1.0000 0.91330  0.94040  0.80190  Biso   1.000  C
  C102     1.0000 0.41330  0.44040  0.30190  Biso   1.000  C
  C103     1.0000 0.41330  0.05960  0.80190  Biso   1.000  C
  C104     1.0000 0.91330  0.55960  0.30190  Biso   1.000  C
  H97      1.0000 0.07860  0.08800  0.23840  Biso   1.000  H
  H98      1.0000 0.57860  0.58800  0.73840  Biso   1.000  H
  H99      1.0000 0.57860  0.91200  0.23840  Biso   1.000  H
  H100     1.0000 0.07860  0.41200  0.73840  Biso   1.000  H
  H101     1.0000 0.92140  0.91200  0.76160  Biso   1.000  H
  H102     1.0000 0.42140  0.41200  0.26160  Biso   1.000  H
  H103     1.0000 0.42140  0.08800  0.76160  Biso   1.000  H
  H104     1.0000 0.92140  0.58800  0.26160  Biso   1.000  H
  H105     1.0000 0.13000  0.02950  0.20780  Biso   1.000  H
  H106     1.0000 0.63000  0.52950  0.70780  Biso   1.000  H
  H107     1.0000 0.63000  0.97050  0.20780  Biso   1.000  H
  H108     1.0000 0.13000  0.47050  0.70780  Biso   1.000  H
  H109     1.0000 0.87000  0.97050  0.79220  Biso   1.000  H
  H110     1.0000 0.37000  0.47050  0.29220  Biso   1.000  H
  H111     1.0000 0.37000  0.02950  0.79220  Biso   1.000  H
  H112     1.0000 0.87000  0.52950  0.29220  Biso   1.000  H
  H113     1.0000 0.09530  0.09020  0.15940  Biso   1.000  H
  H114     1.0000 0.59530  0.59020  0.65940  Biso   1.000  H
  H115     1.0000 0.59530  0.90980  0.15940  Biso   1.000  H
  H116     1.0000 0.09530  0.40980  0.65940  Biso   1.000  H
  H117     1.0000 0.90470  0.90980  0.84060  Biso   1.000  H
  H118     1.0000 0.40470  0.40980  0.34060  Biso   1.000  H
  H119     1.0000 0.40470  0.09020  0.84060  Biso   1.000  H
  H120     1.0000 0.90470  0.59020  0.34060  Biso   1.000  H
  C105     1.0000 0.47700  0.47710  0.29910  Biso   1.000  C
  C106     1.0000 0.97700  0.97710  0.79910  Biso   1.000  C
  C107     1.0000 0.97700  0.52290  0.29910  Biso   1.000  C
  C108     1.0000 0.47700  0.02290  0.79910  Biso   1.000  C
  C109     1.0000 0.52300  0.52290  0.70090  Biso   1.000  C
  C110     1.0000 0.02300  0.02290  0.20090  Biso   1.000  C
  C111     1.0000 0.02300  0.47710  0.70090  Biso   1.000  C
  C112     1.0000 0.52300  0.97710  0.20090  Biso   1.000  C
  H121     1.0000 0.47680  0.50740  0.25760  Biso   1.000  H
  H122     1.0000 0.97680  0.00740  0.75760  Biso   1.000  H
  H123     1.0000 0.97680  0.49260  0.25760  Biso   1.000  H
  H124     1.0000 0.47680  0.99260  0.75760  Biso   1.000  H
  H125     1.0000 0.52320  0.49260  0.74240  Biso   1.000  H
  H126     1.0000 0.02320  0.99260  0.24240  Biso   1.000  H
  H127     1.0000 0.02320  0.50740  0.74240  Biso   1.000  H
  H128     1.0000 0.52320  0.00740  0.24240  Biso   1.000  H
  C113     1.0000 0.45180  0.52370  0.35870  Biso   1.000  C
  C114     1.0000 0.95180  0.02370  0.85870  Biso   1.000  C
  C115     1.0000 0.95180  0.47630  0.35870  Biso   1.000  C
  C116     1.0000 0.45180  0.97630  0.85870  Biso   1.000  C
  C117     1.0000 0.54820  0.47630  0.64130  Biso   1.000  C
  C118     1.0000 0.04820  0.97630  0.14130  Biso   1.000  C
  C119     1.0000 0.04820  0.52370  0.64130  Biso   1.000  C
  C120     1.0000 0.54820  0.02370  0.14130  Biso   1.000  C
  H129     1.0000 0.48850  0.56050  0.36880  Biso   1.000  H
  H130     1.0000 0.98850  0.06050  0.86880  Biso   1.000  H
  H131     1.0000 0.98850  0.43950  0.36880  Biso   1.000  H
  H132     1.0000 0.48850  0.93950  0.86880  Biso   1.000  H
  H133     1.0000 0.51150  0.43950  0.63120  Biso   1.000  H
  H134     1.0000 0.01150  0.93950  0.13120  Biso   1.000  H
  H135     1.0000 0.01150  0.56050  0.63120  Biso   1.000  H
  H136     1.0000 0.51150  0.06050  0.13120  Biso   1.000  H
  H137     1.0000 0.44740  0.49490  0.39950  Biso   1.000  H
  H138     1.0000 0.94740  0.99490  0.89950  Biso   1.000  H
  H139     1.0000 0.94740  0.50510  0.39950  Biso   1.000  H
  H140     1.0000 0.44740  0.00510  0.89950  Biso   1.000  H
  H141     1.0000 0.55260  0.50510  0.60050  Biso   1.000  H
  H142     1.0000 0.05260  0.00510  0.10050  Biso   1.000  H
  H143     1.0000 0.05260  0.49490  0.60050  Biso   1.000  H
  H144     1.0000 0.55260  0.99490  0.10050  Biso   1.000  H
  H145     1.0000 0.40350  0.54480  0.34520  Biso   1.000  H
  H146     1.0000 0.90350  0.04480  0.84520  Biso   1.000  H
  H147     1.0000 0.90350  0.45520  0.34520  Biso   1.000  H
  H148     1.0000 0.40350  0.95520  0.84520  Biso   1.000  H
  H149     1.0000 0.59650  0.45520  0.65480  Biso   1.000  H
  H150     1.0000 0.09650  0.95520  0.15480  Biso   1.000  H
  H151     1.0000 0.09650  0.54480  0.65480  Biso   1.000  H
  H152     1.0000 0.59650  0.04480  0.15480  Biso   1.000  H
  C121     1.0000 0.41670  0.41990  0.28420  Biso   1.000  C
  C122     1.0000 0.91670  0.91990  0.78420  Biso   1.000  C
  C123     1.0000 0.91670  0.58010  0.28420  Biso   1.000  C
  C124     1.0000 0.41670  0.08010  0.78420  Biso   1.000  C
  C125     1.0000 0.58330  0.58010  0.71580  Biso   1.000  C
  C126     1.0000 0.08330  0.08010  0.21580  Biso   1.000  C
  C127     1.0000 0.08330  0.41990  0.71580  Biso   1.000  C
  C128     1.0000 0.58330  0.91990  0.21580  Biso   1.000  C
  H153     1.0000 0.43170  0.38930  0.24760  Biso   1.000  H
  H154     1.0000 0.93170  0.88930  0.74760  Biso   1.000  H
  H155     1.0000 0.93170  0.61070  0.24760  Biso   1.000  H
  H156     1.0000 0.43170  0.11070  0.74760  Biso   1.000  H
  H157     1.0000 0.56830  0.61070  0.75240  Biso   1.000  H
  H158     1.0000 0.06830  0.11070  0.25240  Biso   1.000  H
  H159     1.0000 0.06830  0.38930  0.75240  Biso   1.000  H
  H160     1.0000 0.56830  0.88930  0.25240  Biso   1.000  H
  H161     1.0000 0.36920  0.44210  0.27000  Biso   1.000  H
  H162     1.0000 0.86920  0.94210  0.77000  Biso   1.000  H
  H163     1.0000 0.86920  0.55790  0.27000  Biso   1.000  H
  H164     1.0000 0.36920  0.05790  0.77000  Biso   1.000  H
  H165     1.0000 0.63080  0.55790  0.73000  Biso   1.000  H
  H166     1.0000 0.13080  0.05790  0.23000  Biso   1.000  H
  H167     1.0000 0.13080  0.44210  0.73000  Biso   1.000  H
  H168     1.0000 0.63080  0.94210  0.23000  Biso   1.000  H
  H169     1.0000 0.41130  0.39230  0.32560  Biso   1.000  H
  H170     1.0000 0.91130  0.89230  0.82560  Biso   1.000  H
  H171     1.0000 0.91130  0.60770  0.32560  Biso   1.000  H
  H172     1.0000 0.41130  0.10770  0.82560  Biso   1.000  H
  H173     1.0000 0.58870  0.60770  0.67440  Biso   1.000  H
  H174     1.0000 0.08870  0.10770  0.17440  Biso   1.000  H
  H175     1.0000 0.08870  0.39230  0.67440  Biso   1.000  H
  H176     1.0000 0.58870  0.89230  0.17440  Biso   1.000  H
  C129     1.0000 0.91870  0.12440  0.11340  Biso   1.000  C
  C130     1.0000 0.41870  0.62440  0.61340  Biso   1.000  C
  C131     1.0000 0.41870  0.87560  0.11340  Biso   1.000  C
  C132     1.0000 0.91870  0.37560  0.61340  Biso   1.000  C
  C133     1.0000 0.08130  0.87560  0.88660  Biso   1.000  C
  C134     1.0000 0.58130  0.37560  0.38660  Biso   1.000  C
  C135     1.0000 0.58130  0.12440  0.88660  Biso   1.000  C
  C136     1.0000 0.08130  0.62440  0.38660  Biso   1.000  C
  H177     1.0000 0.95790  0.16080  0.12250  Biso   1.000  H
  H178     1.0000 0.45790  0.66080  0.62250  Biso   1.000  H
  H179     1.0000 0.45790  0.83920  0.12250  Biso   1.000  H
  H180     1.0000 0.95790  0.33920  0.62250  Biso   1.000  H
  H181     1.0000 0.04210  0.83920  0.87750  Biso   1.000  H
  H182     1.0000 0.54210  0.33920  0.37750  Biso   1.000  H
  H183     1.0000 0.54210  0.16080  0.87750  Biso   1.000  H
  H184     1.0000 0.04210  0.66080  0.37750  Biso   1.000  H
  C137     1.0000 0.92760  0.09320  0.04190  Biso   1.000  C
  C138     1.0000 0.42760  0.59320  0.54190  Biso   1.000  C
  C139     1.0000 0.42760  0.90680  0.04190  Biso   1.000  C
  C140     1.0000 0.92760  0.40680  0.54190  Biso   1.000  C
  C141     1.0000 0.07240  0.90680  0.95810  Biso   1.000  C
  C142     1.0000 0.57240  0.40680  0.45810  Biso   1.000  C
  C143     1.0000 0.57240  0.09320  0.95810  Biso   1.000  C
  C144     1.0000 0.07240  0.59320  0.45810  Biso   1.000  C
  H185     1.0000 0.97580  0.06970  0.04160  Biso   1.000  H
  H186     1.0000 0.47580  0.56970  0.54160  Biso   1.000  H
  H187     1.0000 0.47580  0.93030  0.04160  Biso   1.000  H
  H188     1.0000 0.97580  0.43030  0.54160  Biso   1.000  H
  H189     1.0000 0.02420  0.93030  0.95840  Biso   1.000  H
  H190     1.0000 0.52420  0.43030  0.45840  Biso   1.000  H
  H191     1.0000 0.52420  0.06970  0.95840  Biso   1.000  H
  H192     1.0000 0.02420  0.56970  0.45840  Biso   1.000  H
  H193     1.0000 0.88780  0.05940  0.03100  Biso   1.000  H
  H194     1.0000 0.38780  0.55940  0.53100  Biso   1.000  H
  H195     1.0000 0.38780  0.94060  0.03100  Biso   1.000  H
  H196     1.0000 0.88780  0.44060  0.53100  Biso   1.000  H
  H197     1.0000 0.11220  0.94060  0.96900  Biso   1.000  H
  H198     1.0000 0.61220  0.44060  0.46900  Biso   1.000  H
  H199     1.0000 0.61220  0.05940  0.96900  Biso   1.000  H
  H200     1.0000 0.11220  0.55940  0.46900  Biso   1.000  H
  H201     1.0000 0.92490  0.13060  0.00780  Biso   1.000  H
  H202     1.0000 0.42490  0.63060  0.50780  Biso   1.000  H
  H203     1.0000 0.42490  0.86940  0.00780  Biso   1.000  H
  H204     1.0000 0.92490  0.36940  0.50780  Biso   1.000  H
  H205     1.0000 0.07510  0.86940  0.99220  Biso   1.000  H
  H206     1.0000 0.57510  0.36940  0.49220  Biso   1.000  H
  H207     1.0000 0.57510  0.13060  0.99220  Biso   1.000  H
  H208     1.0000 0.07510  0.63060  0.49220  Biso   1.000  H
  C145     1.0000 0.83980  0.16140  0.11020  Biso   1.000  C
  C146     1.0000 0.33980  0.66140  0.61020  Biso   1.000  C
  C147     1.0000 0.33980  0.83860  0.11020  Biso   1.000  C
  C148     1.0000 0.83980  0.33860  0.61020  Biso   1.000  C
  C149     1.0000 0.16020  0.83860  0.88980  Biso   1.000  C
  C150     1.0000 0.66020  0.33860  0.38980  Biso   1.000  C
  C151     1.0000 0.66020  0.16140  0.88980  Biso   1.000  C
  C152     1.0000 0.16020  0.66140  0.38980  Biso   1.000  C
  H209     1.0000 0.83190  0.18200  0.15480  Biso   1.000  H
  H210     1.0000 0.33190  0.68200  0.65480  Biso   1.000  H
  H211     1.0000 0.33190  0.81800  0.15480  Biso   1.000  H
  H212     1.0000 0.83190  0.31800  0.65480  Biso   1.000  H
  H213     1.0000 0.16810  0.81800  0.84520  Biso   1.000  H
  H214     1.0000 0.66810  0.31800  0.34520  Biso   1.000  H
  H215     1.0000 0.66810  0.18200  0.84520  Biso   1.000  H
  H216     1.0000 0.16810  0.68200  0.34520  Biso   1.000  H
  H217     1.0000 0.83800  0.19810  0.07540  Biso   1.000  H
  H218     1.0000 0.33800  0.69810  0.57540  Biso   1.000  H
  H219     1.0000 0.33800  0.80190  0.07540  Biso   1.000  H
  H220     1.0000 0.83800  0.30190  0.57540  Biso   1.000  H
  H221     1.0000 0.16200  0.80190  0.92460  Biso   1.000  H
  H222     1.0000 0.66200  0.30190  0.42460  Biso   1.000  H
  H223     1.0000 0.66200  0.19810  0.92460  Biso   1.000  H
  H224     1.0000 0.16200  0.69810  0.42460  Biso   1.000  H
  H225     1.0000 0.80090  0.12690  0.09860  Biso   1.000  H
  H226     1.0000 0.30090  0.62690  0.59860  Biso   1.000  H
  H227     1.0000 0.30090  0.87310  0.09860  Biso   1.000  H
  H228     1.0000 0.80090  0.37310  0.59860  Biso   1.000  H
  H229     1.0000 0.19910  0.87310  0.90140  Biso   1.000  H
  H230     1.0000 0.69910  0.37310  0.40140  Biso   1.000  H
  H231     1.0000 0.69910  0.12690  0.90140  Biso   1.000  H
  H232     1.0000 0.19910  0.62690  0.40140  Biso   1.000  H
  C153     1.0000 0.62150  0.37040  0.37170  Biso   1.000  C
  C154     1.0000 0.12150  0.87040  0.87170  Biso   1.000  C
  C155     1.0000 0.12150  0.62960  0.37170  Biso   1.000  C
  C156     1.0000 0.62150  0.12960  0.87170  Biso   1.000  C
  C157     1.0000 0.37850  0.62960  0.62830  Biso   1.000  C
  C158     1.0000 0.87850  0.12960  0.12830  Biso   1.000  C
  C159     1.0000 0.87850  0.37040  0.62830  Biso   1.000  C
  C160     1.0000 0.37850  0.87040  0.12830  Biso   1.000  C
  H233     1.0000 0.66640  0.35640  0.34790  Biso   1.000  H
  H234     1.0000 0.16640  0.85640  0.84790  Biso   1.000  H
  H235     1.0000 0.16640  0.64360  0.34790  Biso   1.000  H
  H236     1.0000 0.66640  0.14360  0.84790  Biso   1.000  H
  H237     1.0000 0.33360  0.64360  0.65210  Biso   1.000  H
  H238     1.0000 0.83360  0.14360  0.15210  Biso   1.000  H
  H239     1.0000 0.83360  0.35640  0.65210  Biso   1.000  H
  H240     1.0000 0.33360  0.85640  0.15210  Biso   1.000  H
  C161     1.0000 0.65230  0.39590  0.44200  Biso   1.000  C
  C162     1.0000 0.15230  0.89590  0.94200  Biso   1.000  C
  C163     1.0000 0.15230  0.60410  0.44200  Biso   1.000  C
  C164     1.0000 0.65230  0.10410  0.94200  Biso   1.000  C
  C165     1.0000 0.34770  0.60410  0.55800  Biso   1.000  C
  C166     1.0000 0.84770  0.10410  0.05800  Biso   1.000  C
  C167     1.0000 0.84770  0.39590  0.55800  Biso   1.000  C
  C168     1.0000 0.34770  0.89590  0.05800  Biso   1.000  C
  H241     1.0000 0.68080  0.43880  0.43690  Biso   1.000  H
  H242     1.0000 0.18080  0.93880  0.93690  Biso   1.000  H
  H243     1.0000 0.18080  0.56120  0.43690  Biso   1.000  H
  H244     1.0000 0.68080  0.06120  0.93690  Biso   1.000  H
  H245     1.0000 0.31920  0.56120  0.56310  Biso   1.000  H
  H246     1.0000 0.81920  0.06120  0.06310  Biso   1.000  H
  H247     1.0000 0.81920  0.43880  0.56310  Biso   1.000  H
  H248     1.0000 0.31920  0.93880  0.06310  Biso   1.000  H
  H249     1.0000 0.68470  0.36000  0.46360  Biso   1.000  H
  H250     1.0000 0.18470  0.86000  0.96360  Biso   1.000  H
  H251     1.0000 0.18470  0.64000  0.46360  Biso   1.000  H
  H252     1.0000 0.68470  0.14000  0.96360  Biso   1.000  H
  H253     1.0000 0.31530  0.64000  0.53640  Biso   1.000  H
  H254     1.0000 0.81530  0.14000  0.03640  Biso   1.000  H
  H255     1.0000 0.81530  0.36000  0.53640  Biso   1.000  H
  H256     1.0000 0.31530  0.86000  0.03640  Biso   1.000  H
  H257     1.0000 0.61100  0.40510  0.47060  Biso   1.000  H
  H258     1.0000 0.11100  0.90510  0.97060  Biso   1.000  H
  H259     1.0000 0.11100  0.59490  0.47060  Biso   1.000  H
  H260     1.0000 0.61100  0.09490  0.97060  Biso   1.000  H
  H261     1.0000 0.38900  0.59490  0.52940  Biso   1.000  H
  H262     1.0000 0.88900  0.09490  0.02940  Biso   1.000  H
  H263     1.0000 0.88900  0.40510  0.52940  Biso   1.000  H
  H264     1.0000 0.38900  0.90510  0.02940  Biso   1.000  H
  C169     1.0000 0.57580  0.30250  0.37600  Biso   1.000  C
  C170     1.0000 0.07580  0.80250  0.87600  Biso   1.000  C
  C171     1.0000 0.07580  0.69750  0.37600  Biso   1.000  C
  C172     1.0000 0.57580  0.19750  0.87600  Biso   1.000  C
  C173     1.0000 0.42420  0.69750  0.62400  Biso   1.000  C
  C174     1.0000 0.92420  0.19750  0.12400  Biso   1.000  C
  C175     1.0000 0.92420  0.30250  0.62400  Biso   1.000  C
  C176     1.0000 0.42420  0.80250  0.12400  Biso   1.000  C
  H265     1.0000 0.55730  0.28820  0.32990  Biso   1.000  H
  H266     1.0000 0.05730  0.78820  0.82990  Biso   1.000  H
  H267     1.0000 0.05730  0.71180  0.32990  Biso   1.000  H
  H268     1.0000 0.55730  0.21180  0.82990  Biso   1.000  H
  H269     1.0000 0.44270  0.71180  0.67010  Biso   1.000  H
  H270     1.0000 0.94270  0.21180  0.17010  Biso   1.000  H
  H271     1.0000 0.94270  0.28820  0.67010  Biso   1.000  H
  H272     1.0000 0.44270  0.78820  0.17010  Biso   1.000  H
  H273     1.0000 0.53370  0.31070  0.40380  Biso   1.000  H
  H274     1.0000 0.03370  0.81070  0.90380  Biso   1.000  H
  H275     1.0000 0.03370  0.68930  0.40380  Biso   1.000  H
  H276     1.0000 0.53370  0.18930  0.90380  Biso   1.000  H
  H277     1.0000 0.46630  0.68930  0.59620  Biso   1.000  H
  H278     1.0000 0.96630  0.18930  0.09620  Biso   1.000  H
  H279     1.0000 0.96630  0.31070  0.59620  Biso   1.000  H
  H280     1.0000 0.46630  0.81070  0.09620  Biso   1.000  H
  H281     1.0000 0.60730  0.26560  0.39690  Biso   1.000  H
  H282     1.0000 0.10730  0.76560  0.89690  Biso   1.000  H
  H283     1.0000 0.10730  0.73440  0.39690  Biso   1.000  H
  H284     1.0000 0.60730  0.23440  0.89690  Biso   1.000  H
  H285     1.0000 0.39270  0.73440  0.60310  Biso   1.000  H
  H286     1.0000 0.89270  0.23440  0.10310  Biso   1.000  H
  H287     1.0000 0.89270  0.26560  0.60310  Biso   1.000  H
  H288     1.0000 0.39270  0.76560  0.10310  Biso   1.000  H
  C177     1.0000 0.78970  0.09490  0.34310  Biso   1.000  C
  C178     1.0000 0.28970  0.59490  0.84310  Biso   1.000  C
  C179     1.0000 0.28970  0.90510  0.34310  Biso   1.000  C
  C180     1.0000 0.78970  0.40510  0.84310  Biso   1.000  C
  C181     1.0000 0.21030  0.90510  0.65690  Biso   1.000  C
  C182     1.0000 0.71030  0.40510  0.15690  Biso   1.000  C
  C183     1.0000 0.71030  0.09490  0.65690  Biso   1.000  C
  C184     1.0000 0.21030  0.59490  0.15690  Biso   1.000  C
  H289     1.0000 0.79200  0.04290  0.34000  Biso   1.000  H
  H290     1.0000 0.29200  0.54290  0.84000  Biso   1.000  H
  H291     1.0000 0.29200  0.95710  0.34000  Biso   1.000  H
  H292     1.0000 0.79200  0.45710  0.84000  Biso   1.000  H
  H293     1.0000 0.20800  0.95710  0.66000  Biso   1.000  H
  H294     1.0000 0.70800  0.45710  0.16000  Biso   1.000  H
  H295     1.0000 0.70800  0.04290  0.66000  Biso   1.000  H
  H296     1.0000 0.20800  0.54290  0.16000  Biso   1.000  H
  C185     1.0000 0.73170  0.12190  0.28610  Biso   1.000  C
  C186     1.0000 0.23170  0.62190  0.78610  Biso   1.000  C
  C187     1.0000 0.23170  0.87810  0.28610  Biso   1.000  C
  C188     1.0000 0.73170  0.37810  0.78610  Biso   1.000  C
  C189     1.0000 0.26830  0.87810  0.71390  Biso   1.000  C
  C190     1.0000 0.76830  0.37810  0.21390  Biso   1.000  C
  C191     1.0000 0.76830  0.12190  0.71390  Biso   1.000  C
  C192     1.0000 0.26830  0.62190  0.21390  Biso   1.000  C
  H297     1.0000 0.74850  0.11020  0.24120  Biso   1.000  H
  H298     1.0000 0.24850  0.61020  0.74120  Biso   1.000  H
  H299     1.0000 0.24850  0.88980  0.24120  Biso   1.000  H
  H300     1.0000 0.74850  0.38980  0.74120  Biso   1.000  H
  H301     1.0000 0.25150  0.88980  0.75880  Biso   1.000  H
  H302     1.0000 0.75150  0.38980  0.25880  Biso   1.000  H
  H303     1.0000 0.75150  0.11020  0.75880  Biso   1.000  H
  H304     1.0000 0.25150  0.61020  0.25880  Biso   1.000  H
  H305     1.0000 0.68350  0.09980  0.29160  Biso   1.000  H
  H306     1.0000 0.18350  0.59980  0.79160  Biso   1.000  H
  H307     1.0000 0.18350  0.90020  0.29160  Biso   1.000  H
  H308     1.0000 0.68350  0.40020  0.79160  Biso   1.000  H
  H309     1.0000 0.31650  0.90020  0.70840  Biso   1.000  H
  H310     1.0000 0.81650  0.40020  0.20840  Biso   1.000  H
  H311     1.0000 0.81650  0.09980  0.70840  Biso   1.000  H
  H312     1.0000 0.31650  0.59980  0.20840  Biso   1.000  H
  H313     1.0000 0.72670  0.17260  0.29000  Biso   1.000  H
  H314     1.0000 0.22670  0.67260  0.79000  Biso   1.000  H
  H315     1.0000 0.22670  0.82740  0.29000  Biso   1.000  H
  H316     1.0000 0.72670  0.32740  0.79000  Biso   1.000  H
  H317     1.0000 0.27330  0.82740  0.71000  Biso   1.000  H
  H318     1.0000 0.77330  0.32740  0.21000  Biso   1.000  H
  H319     1.0000 0.77330  0.17260  0.71000  Biso   1.000  H
  H320     1.0000 0.27330  0.67260  0.21000  Biso   1.000  H
  C193     1.0000 0.76020  0.11480  0.41390  Biso   1.000  C
  C194     1.0000 0.26020  0.61480  0.91390  Biso   1.000  C
  C195     1.0000 0.26020  0.88520  0.41390  Biso   1.000  C
  C196     1.0000 0.76020  0.38520  0.91390  Biso   1.000  C
  C197     1.0000 0.23980  0.88520  0.58610  Biso   1.000  C
  C198     1.0000 0.73980  0.38520  0.08610  Biso   1.000  C
  C199     1.0000 0.73980  0.11480  0.58610  Biso   1.000  C
  C200     1.0000 0.23980  0.61480  0.08610  Biso   1.000  C
  H321     1.0000 0.79540  0.09860  0.45080  Biso   1.000  H
  H322     1.0000 0.29540  0.59860  0.95080  Biso   1.000  H
  H323     1.0000 0.29540  0.90140  0.45080  Biso   1.000  H
  H324     1.0000 0.79540  0.40140  0.95080  Biso   1.000  H
  H325     1.0000 0.20460  0.90140  0.54920  Biso   1.000  H
  H326     1.0000 0.70460  0.40140  0.04920  Biso   1.000  H
  H327     1.0000 0.70460  0.09860  0.54920  Biso   1.000  H
  H328     1.0000 0.20460  0.59860  0.04920  Biso   1.000  H
  H329     1.0000 0.75500  0.16560  0.41680  Biso   1.000  H
  H330     1.0000 0.25500  0.66560  0.91680  Biso   1.000  H
  H331     1.0000 0.25500  0.83440  0.41680  Biso   1.000  H
  H332     1.0000 0.75500  0.33440  0.91680  Biso   1.000  H
  H333     1.0000 0.24500  0.83440  0.58320  Biso   1.000  H
  H334     1.0000 0.74500  0.33440  0.08320  Biso   1.000  H
  H335     1.0000 0.74500  0.16560  0.58320  Biso   1.000  H
  H336     1.0000 0.24500  0.66560  0.08320  Biso   1.000  H
  H337     1.0000 0.71180  0.09280  0.41840  Biso   1.000  H
  H338     1.0000 0.21180  0.59280  0.91840  Biso   1.000  H
  H339     1.0000 0.21180  0.90720  0.41840  Biso   1.000  H
  H340     1.0000 0.71180  0.40720  0.91840  Biso   1.000  H
  H341     1.0000 0.28820  0.90720  0.58160  Biso   1.000  H
  H342     1.0000 0.78820  0.40720  0.08160  Biso   1.000  H
  H343     1.0000 0.78820  0.09280  0.58160  Biso   1.000  H
  H344     1.0000 0.28820  0.59280  0.08160  Biso   1.000  H
  C201     1.0000 0.71570  0.34870  0.18290  Biso   1.000  C
  C202     1.0000 0.21570  0.84870  0.68290  Biso   1.000  C
  C203     1.0000 0.21570  0.65130  0.18290  Biso   1.000  C
  C204     1.0000 0.71570  0.15130  0.68290  Biso   1.000  C
  C205     1.0000 0.28430  0.65130  0.81710  Biso   1.000  C
  C206     1.0000 0.78430  0.15130  0.31710  Biso   1.000  C
  C207     1.0000 0.78430  0.34870  0.81710  Biso   1.000  C
  C208     1.0000 0.28430  0.84870  0.31710  Biso   1.000  C
  H345     1.0000 0.72300  0.31090  0.21780  Biso   1.000  H
  H346     1.0000 0.22300  0.81090  0.71780  Biso   1.000  H
  H347     1.0000 0.22300  0.68910  0.21780  Biso   1.000  H
  H348     1.0000 0.72300  0.18910  0.71780  Biso   1.000  H
  H349     1.0000 0.27700  0.68910  0.78220  Biso   1.000  H
  H350     1.0000 0.77700  0.18910  0.28220  Biso   1.000  H
  H351     1.0000 0.77700  0.31090  0.78220  Biso   1.000  H
  H352     1.0000 0.27700  0.81090  0.28220  Biso   1.000  H
  C209     1.0000 0.76090  0.41490  0.20950  Biso   1.000  C
  C210     1.0000 0.26090  0.91490  0.70950  Biso   1.000  C
  C211     1.0000 0.26090  0.58510  0.20950  Biso   1.000  C
  C212     1.0000 0.76090  0.08510  0.70950  Biso   1.000  C
  C213     1.0000 0.23910  0.58510  0.79050  Biso   1.000  C
  C214     1.0000 0.73910  0.08510  0.29050  Biso   1.000  C
  C215     1.0000 0.73910  0.41490  0.79050  Biso   1.000  C
  C216     1.0000 0.23910  0.91490  0.29050  Biso   1.000  C
  H353     1.0000 0.74070  0.43190  0.25150  Biso   1.000  H
  H354     1.0000 0.24070  0.93190  0.75150  Biso   1.000  H
  H355     1.0000 0.24070  0.56810  0.25150  Biso   1.000  H
  H356     1.0000 0.74070  0.06810  0.75150  Biso   1.000  H
  H357     1.0000 0.25930  0.56810  0.74850  Biso   1.000  H
  H358     1.0000 0.75930  0.06810  0.24850  Biso   1.000  H
  H359     1.0000 0.75930  0.43190  0.74850  Biso   1.000  H
  H360     1.0000 0.25930  0.93190  0.24850  Biso   1.000  H
  H361     1.0000 0.75670  0.45150  0.17470  Biso   1.000  H
  H362     1.0000 0.25670  0.95150  0.67470  Biso   1.000  H
  H363     1.0000 0.25670  0.54850  0.17470  Biso   1.000  H
  H364     1.0000 0.75670  0.04850  0.67470  Biso   1.000  H
  H365     1.0000 0.24330  0.54850  0.82530  Biso   1.000  H
  H366     1.0000 0.74330  0.04850  0.32530  Biso   1.000  H
  H367     1.0000 0.74330  0.45150  0.82530  Biso   1.000  H
  H368     1.0000 0.24330  0.95150  0.32530  Biso   1.000  H
  H369     1.0000 0.81320  0.40230  0.21890  Biso   1.000  H
  H370     1.0000 0.31320  0.90230  0.71890  Biso   1.000  H
  H371     1.0000 0.31320  0.59770  0.21890  Biso   1.000  H
  H372     1.0000 0.81320  0.09770  0.71890  Biso   1.000  H
  H373     1.0000 0.18680  0.59770  0.78110  Biso   1.000  H
  H374     1.0000 0.68680  0.09770  0.28110  Biso   1.000  H
  H375     1.0000 0.68680  0.40230  0.78110  Biso   1.000  H
  H376     1.0000 0.18680  0.90230  0.28110  Biso   1.000  H
  C217     1.0000 0.75020  0.32390  0.11600  Biso   1.000  C
  C218     1.0000 0.25020  0.82390  0.61600  Biso   1.000  C
  C219     1.0000 0.25020  0.67610  0.11600  Biso   1.000  C
  C220     1.0000 0.75020  0.17610  0.61600  Biso   1.000  C
  C221     1.0000 0.24980  0.67610  0.88400  Biso   1.000  C
  C222     1.0000 0.74980  0.17610  0.38400  Biso   1.000  C
  C223     1.0000 0.74980  0.32390  0.88400  Biso   1.000  C
  C224     1.0000 0.24980  0.82390  0.38400  Biso   1.000  C
  H377     1.0000 0.72350  0.28270  0.09790  Biso   1.000  H
  H378     1.0000 0.22350  0.78270  0.59790  Biso   1.000  H
  H379     1.0000 0.22350  0.71730  0.09790  Biso   1.000  H
  H380     1.0000 0.72350  0.21730  0.59790  Biso   1.000  H
  H381     1.0000 0.27650  0.71730  0.90210  Biso   1.000  H
  H382     1.0000 0.77650  0.21730  0.40210  Biso   1.000  H
  H383     1.0000 0.77650  0.28270  0.90210  Biso   1.000  H
  H384     1.0000 0.27650  0.78270  0.40210  Biso   1.000  H
  H385     1.0000 0.80270  0.31220  0.12620  Biso   1.000  H
  H386     1.0000 0.30270  0.81220  0.62620  Biso   1.000  H
  H387     1.0000 0.30270  0.68780  0.12620  Biso   1.000  H
  H388     1.0000 0.80270  0.18780  0.62620  Biso   1.000  H
  H389     1.0000 0.19730  0.68780  0.87380  Biso   1.000  H
  H390     1.0000 0.69730  0.18780  0.37380  Biso   1.000  H
  H391     1.0000 0.69730  0.31220  0.87380  Biso   1.000  H
  H392     1.0000 0.19730  0.81220  0.37380  Biso   1.000  H
  H393     1.0000 0.74620  0.36140  0.08200  Biso   1.000  H
  H394     1.0000 0.24620  0.86140  0.58200  Biso   1.000  H
  H395     1.0000 0.24620  0.63860  0.08200  Biso   1.000  H
  H396     1.0000 0.74620  0.13860  0.58200  Biso   1.000  H
  H397     1.0000 0.25380  0.63860  0.91800  Biso   1.000  H
  H398     1.0000 0.75380  0.13860  0.41800  Biso   1.000  H
  H399     1.0000 0.75380  0.36140  0.91800  Biso   1.000  H
  H400     1.0000 0.25380  0.86140  0.41800  Biso   1.000  H
  C225     1.0000 0.90800  0.22560  0.34180  Biso   1.000  C
  C226     1.0000 0.40800  0.72560  0.84180  Biso   1.000  C
  C227     1.0000 0.40800  0.77440  0.34180  Biso   1.000  C
  C228     1.0000 0.90800  0.27440  0.84180  Biso   1.000  C
  C229     1.0000 0.09200  0.77440  0.65820  Biso   1.000  C
  C230     1.0000 0.59200  0.27440  0.15820  Biso   1.000  C
  C231     1.0000 0.59200  0.22560  0.65820  Biso   1.000  C
  C232     1.0000 0.09200  0.72560  0.15820  Biso   1.000  C
  H401     1.0000 0.88240  0.25140  0.30260  Biso   1.000  H
  H402     1.0000 0.38240  0.75140  0.80260  Biso   1.000  H
  H403     1.0000 0.38240  0.74860  0.30260  Biso   1.000  H
  H404     1.0000 0.88240  0.24860  0.80260  Biso   1.000  H
  H405     1.0000 0.11760  0.74860  0.69740  Biso   1.000  H
  H406     1.0000 0.61760  0.24860  0.19740  Biso   1.000  H
  H407     1.0000 0.61760  0.25140  0.69740  Biso   1.000  H
  H408     1.0000 0.11760  0.75140  0.19740  Biso   1.000  H
  C233     1.0000 0.88120  0.25680  0.40920  Biso   1.000  C
  C234     1.0000 0.38120  0.75680  0.90920  Biso   1.000  C
  C235     1.0000 0.38120  0.74320  0.40920  Biso   1.000  C
  C236     1.0000 0.88120  0.24320  0.90920  Biso   1.000  C
  C237     1.0000 0.11880  0.74320  0.59080  Biso   1.000  C
  C238     1.0000 0.61880  0.24320  0.09080  Biso   1.000  C
  C239     1.0000 0.61880  0.25680  0.59080  Biso   1.000  C
  C240     1.0000 0.11880  0.75680  0.09080  Biso   1.000  C
  H409     1.0000 0.82770  0.24900  0.41080  Biso   1.000  H
  H410     1.0000 0.32770  0.74900  0.91080  Biso   1.000  H
  H411     1.0000 0.32770  0.75100  0.41080  Biso   1.000  H
  H412     1.0000 0.82770  0.25100  0.91080  Biso   1.000  H
  H413     1.0000 0.17230  0.75100  0.58920  Biso   1.000  H
  H414     1.0000 0.67230  0.25100  0.08920  Biso   1.000  H
  H415     1.0000 0.67230  0.24900  0.58920  Biso   1.000  H
  H416     1.0000 0.17230  0.74900  0.08920  Biso   1.000  H
  H417     1.0000 0.90770  0.23420  0.44850  Biso   1.000  H
  H418     1.0000 0.40770  0.73420  0.94850  Biso   1.000  H
  H419     1.0000 0.40770  0.76580  0.44850  Biso   1.000  H
  H420     1.0000 0.90770  0.26580  0.94850  Biso   1.000  H
  H421     1.0000 0.09230  0.76580  0.55150  Biso   1.000  H
  H422     1.0000 0.59230  0.26580  0.05150  Biso   1.000  H
  H423     1.0000 0.59230  0.23420  0.55150  Biso   1.000  H
  H424     1.0000 0.09230  0.73420  0.05150  Biso   1.000  H
  H425     1.0000 0.89130  0.30700  0.41060  Biso   1.000  H
  H426     1.0000 0.39130  0.80700  0.91060  Biso   1.000  H
  H427     1.0000 0.39130  0.69300  0.41060  Biso   1.000  H
  H428     1.0000 0.89130  0.19300  0.91060  Biso   1.000  H
  H429     1.0000 0.10870  0.69300  0.58940  Biso   1.000  H
  H430     1.0000 0.60870  0.19300  0.08940  Biso   1.000  H
  H431     1.0000 0.60870  0.30700  0.58940  Biso   1.000  H
  H432     1.0000 0.10870  0.80700  0.08940  Biso   1.000  H
  C241     1.0000 0.99320  0.23880  0.34040  Biso   1.000  C
  C242     1.0000 0.49320  0.73880  0.84040  Biso   1.000  C
  C243     1.0000 0.49320  0.76120  0.34040  Biso   1.000  C
  C244     1.0000 0.99320  0.26120  0.84040  Biso   1.000  C
  C245     1.0000 0.00680  0.76120  0.65960  Biso   1.000  C
  C246     1.0000 0.50680  0.26120  0.15960  Biso   1.000  C
  C247     1.0000 0.50680  0.23880  0.65960  Biso   1.000  C
  C248     1.0000 0.00680  0.73880  0.15960  Biso   1.000  C
  H433     1.0000 0.01080  0.21940  0.29820  Biso   1.000  H
  H434     1.0000 0.51080  0.71940  0.79820  Biso   1.000  H
  H435     1.0000 0.51080  0.78060  0.29820  Biso   1.000  H
  H436     1.0000 0.01080  0.28060  0.79820  Biso   1.000  H
  H437     1.0000 0.98920  0.78060  0.70180  Biso   1.000  H
  H438     1.0000 0.48920  0.28060  0.20180  Biso   1.000  H
  H439     1.0000 0.48920  0.21940  0.70180  Biso   1.000  H
  H440     1.0000 0.98920  0.71940  0.20180  Biso   1.000  H
  H441     1.0000 0.00290  0.28900  0.34200  Biso   1.000  H
  H442     1.0000 0.50290  0.78900  0.84200  Biso   1.000  H
  H443     1.0000 0.50290  0.71100  0.34200  Biso   1.000  H
  H444     1.0000 0.00290  0.21100  0.84200  Biso   1.000  H
  H445     1.0000 0.99710  0.71100  0.65800  Biso   1.000  H
  H446     1.0000 0.49710  0.21100  0.15800  Biso   1.000  H
  H447     1.0000 0.49710  0.28900  0.65800  Biso   1.000  H
  H448     1.0000 0.99710  0.78900  0.15800  Biso   1.000  H
  H449     1.0000 0.01930  0.21620  0.37990  Biso   1.000  H
  H450     1.0000 0.51930  0.71620  0.87990  Biso   1.000  H
  H451     1.0000 0.51930  0.78380  0.37990  Biso   1.000  H
  H452     1.0000 0.01930  0.28380  0.87990  Biso   1.000  H
  H453     1.0000 0.98070  0.78380  0.62010  Biso   1.000  H
  H454     1.0000 0.48070  0.28380  0.12010  Biso   1.000  H
  H455     1.0000 0.48070  0.21620  0.62010  Biso   1.000  H
  H456     1.0000 0.98070  0.71620  0.12010  Biso   1.000  H
  C249     1.0000 0.55030  0.28600  0.16770  Biso   1.000  C
  C250     1.0000 0.05030  0.78600  0.66770  Biso   1.000  C
  C251     1.0000 0.05030  0.71400  0.16770  Biso   1.000  C
  C252     1.0000 0.55030  0.21400  0.66770  Biso   1.000  C
  C253     1.0000 0.44970  0.71400  0.83230  Biso   1.000  C
  C254     1.0000 0.94970  0.21400  0.33230  Biso   1.000  C
  C255     1.0000 0.94970  0.28600  0.83230  Biso   1.000  C
  C256     1.0000 0.44970  0.78600  0.33230  Biso   1.000  C
  H457     1.0000 0.49940  0.30400  0.17470  Biso   1.000  H
  H458     1.0000 0.99940  0.80400  0.67470  Biso   1.000  H
  H459     1.0000 0.99940  0.69600  0.17470  Biso   1.000  H
  H460     1.0000 0.49940  0.19600  0.67470  Biso   1.000  H
  H461     1.0000 0.50060  0.69600  0.82530  Biso   1.000  H
  H462     1.0000 0.00060  0.19600  0.32530  Biso   1.000  H
  H463     1.0000 0.00060  0.30400  0.82530  Biso   1.000  H
  H464     1.0000 0.50060  0.80400  0.32530  Biso   1.000  H
  C257     1.0000 0.54250  0.24920  0.09750  Biso   1.000  C
  C258     1.0000 0.04250  0.74920  0.59750  Biso   1.000  C
  C259     1.0000 0.04250  0.75080  0.09750  Biso   1.000  C
  C260     1.0000 0.54250  0.25080  0.59750  Biso   1.000  C
  C261     1.0000 0.45750  0.75080  0.90250  Biso   1.000  C
  C262     1.0000 0.95750  0.25080  0.40250  Biso   1.000  C
  C263     1.0000 0.95750  0.24920  0.90250  Biso   1.000  C
  C264     1.0000 0.45750  0.74920  0.40250  Biso   1.000  C
  H465     1.0000 0.53260  0.28410  0.06150  Biso   1.000  H
  H466     1.0000 0.03260  0.78410  0.56150  Biso   1.000  H
  H467     1.0000 0.03260  0.71590  0.06150  Biso   1.000  H
  H468     1.0000 0.53260  0.21590  0.56150  Biso   1.000  H
  H469     1.0000 0.46740  0.71590  0.93850  Biso   1.000  H
  H470     1.0000 0.96740  0.21590  0.43850  Biso   1.000  H
  H471     1.0000 0.96740  0.28410  0.93850  Biso   1.000  H
  H472     1.0000 0.46740  0.78410  0.43850  Biso   1.000  H
  H473     1.0000 0.50130  0.21590  0.09670  Biso   1.000  H
  H474     1.0000 0.00130  0.71590  0.59670  Biso   1.000  H
  H475     1.0000 0.00130  0.78410  0.09670  Biso   1.000  H
  H476     1.0000 0.50130  0.28410  0.59670  Biso   1.000  H
  H477     1.0000 0.49870  0.78410  0.90330  Biso   1.000  H
  H478     1.0000 0.99870  0.28410  0.40330  Biso   1.000  H
  H479     1.0000 0.99870  0.21590  0.90330  Biso   1.000  H
  H480     1.0000 0.49870  0.71590  0.40330  Biso   1.000  H
  H481     1.0000 0.58860  0.22450  0.08980  Biso   1.000  H
  H482     1.0000 0.08860  0.72450  0.58980  Biso   1.000  H
  H483     1.0000 0.08860  0.77550  0.08980  Biso   1.000  H
  H484     1.0000 0.58860  0.27550  0.58980  Biso   1.000  H
  H485     1.0000 0.41140  0.77550  0.91020  Biso   1.000  H
  H486     1.0000 0.91140  0.27550  0.41020  Biso   1.000  H
  H487     1.0000 0.91140  0.22450  0.91020  Biso   1.000  H
  H488     1.0000 0.41140  0.72450  0.41020  Biso   1.000  H
  C265     1.0000 0.56600  0.23240  0.22510  Biso   1.000  C
  C266     1.0000 0.06600  0.73240  0.72510  Biso   1.000  C
  C267     1.0000 0.06600  0.76760  0.22510  Biso   1.000  C
  C268     1.0000 0.56600  0.26760  0.72510  Biso   1.000  C
  C269     1.0000 0.43400  0.76760  0.77490  Biso   1.000  C
  C270     1.0000 0.93400  0.26760  0.27490  Biso   1.000  C
  C271     1.0000 0.93400  0.23240  0.77490  Biso   1.000  C
  C272     1.0000 0.43400  0.73240  0.27490  Biso   1.000  C
  H489     1.0000 0.57070  0.25650  0.26920  Biso   1.000  H
  H490     1.0000 0.07070  0.75650  0.76920  Biso   1.000  H
  H491     1.0000 0.07070  0.74350  0.26920  Biso   1.000  H
  H492     1.0000 0.57070  0.24350  0.76920  Biso   1.000  H
  H493     1.0000 0.42930  0.74350  0.73080  Biso   1.000  H
  H494     1.0000 0.92930  0.24350  0.23080  Biso   1.000  H
  H495     1.0000 0.92930  0.25650  0.73080  Biso   1.000  H
  H496     1.0000 0.42930  0.75650  0.23080  Biso   1.000  H
  H497     1.0000 0.61220  0.20760  0.21790  Biso   1.000  H
  H498     1.0000 0.11220  0.70760  0.71790  Biso   1.000  H
  H499     1.0000 0.11220  0.79240  0.21790  Biso   1.000  H
  H500     1.0000 0.61220  0.29240  0.71790  Biso   1.000  H
  H501     1.0000 0.38780  0.79240  0.78210  Biso   1.000  H
  H502     1.0000 0.88780  0.29240  0.28210  Biso   1.000  H
  H503     1.0000 0.88780  0.20760  0.78210  Biso   1.000  H
  H504     1.0000 0.38780  0.70760  0.28210  Biso   1.000  H
  H505     1.0000 0.52490  0.19900  0.22480  Biso   1.000  H
  H506     1.0000 0.02490  0.69900  0.72480  Biso   1.000  H
  H507     1.0000 0.02490  0.80100  0.22480  Biso   1.000  H
  H508     1.0000 0.52490  0.30100  0.72480  Biso   1.000  H
  H509     1.0000 0.47510  0.80100  0.77520  Biso   1.000  H
  H510     1.0000 0.97510  0.30100  0.27520  Biso   1.000  H
  H511     1.0000 0.97510  0.19900  0.77520  Biso   1.000  H
  H512     1.0000 0.47510  0.69900  0.27520  Biso   1.000  H
