data_image0
_cell_length_a       16.627
_cell_length_b       9.4319
_cell_length_c       56.658
_cell_angle_alpha    90
_cell_angle_beta     91.554
_cell_angle_gamma    90

_symmetry_space_group_name_H-M    "P 1"
_symmetry_int_tables_number       1

loop_
  _symmetry_equiv_pos_as_xyz
  'x, y, z'

loop_
  _atom_site_label
  _atom_site_occupancy
  _atom_site_fract_x
  _atom_site_fract_y
  _atom_site_fract_z
  _atom_site_thermal_displace_type
  _atom_site_B_iso_or_equiv
  _atom_site_type_symbol
  Cu1      1.0000 0.86533  0.12912  0.10331  Biso   1.000  Cu
  Cu2      1.0000 0.36533  0.62912  0.60331  Biso   1.000  Cu
  Cu3      1.0000 0.36533  0.87088  0.10331  Biso   1.000  Cu
  Cu4      1.0000 0.86533  0.37088  0.60331  Biso   1.000  Cu
  Cu5      1.0000 0.13467  0.87088  0.89669  Biso   1.000  Cu
  Cu6      1.0000 0.63467  0.37088  0.39669  Biso   1.000  Cu
  Cu7      1.0000 0.63467  0.12912  0.89669  Biso   1.000  Cu
  Cu8      1.0000 0.13467  0.62912  0.39669  Biso   1.000  Cu
  Br1      1.0000 0.89246  0.95628  0.13509  Biso   1.000  Br
  Br2      1.0000 0.39246  0.45628  0.63509  Biso   1.000  Br
  Br3      1.0000 0.39246  0.04372  0.13509  Biso   1.000  Br
  Br4      1.0000 0.89246  0.54372  0.63509  Biso   1.000  Br
  Br5      1.0000 0.10754  0.04372  0.86491  Biso   1.000  Br
  Br6      1.0000 0.60754  0.54372  0.36491  Biso   1.000  Br
  Br7      1.0000 0.60754  0.95628  0.86491  Biso   1.000  Br
  Br8      1.0000 0.10754  0.45628  0.36491  Biso   1.000  Br
  Br9      1.0000 0.82580  0.01885  0.06419  Biso   1.000  Br
  Br10     1.0000 0.32580  0.51885  0.56419  Biso   1.000  Br
  Br11     1.0000 0.32580  0.98115  0.06419  Biso   1.000  Br
  Br12     1.0000 0.82580  0.48115  0.56419  Biso   1.000  Br
  Br13     1.0000 0.17420  0.98115  0.93581  Biso   1.000  Br
  Br14     1.0000 0.67420  0.48115  0.43581  Biso   1.000  Br
  Br15     1.0000 0.67420  0.01885  0.93581  Biso   1.000  Br
  Br16     1.0000 0.17420  0.51885  0.43581  Biso   1.000  Br
  N1       1.0000 0.24860  0.83900  0.11283  Biso   1.000  N
  N2       1.0000 0.74860  0.33900  0.61283  Biso   1.000  N
  N3       1.0000 0.74860  0.16100  0.11283  Biso   1.000  N
  N4       1.0000 0.24860  0.66100  0.61283  Biso   1.000  N
  N5       1.0000 0.75140  0.16100  0.88717  Biso   1.000  N
  N6       1.0000 0.25140  0.66100  0.38717  Biso   1.000  N
  N7       1.0000 0.25140  0.83900  0.88717  Biso   1.000  N
  N8       1.0000 0.75140  0.33900  0.38717  Biso   1.000  N
  C1       1.0000 0.21670  0.88340  0.13303  Biso   1.000  C
  C2       1.0000 0.71670  0.38340  0.63303  Biso   1.000  C
  C3       1.0000 0.71670  0.11660  0.13303  Biso   1.000  C
  C4       1.0000 0.21670  0.61660  0.63303  Biso   1.000  C
  C5       1.0000 0.78330  0.11660  0.86697  Biso   1.000  C
  C6       1.0000 0.28330  0.61660  0.36697  Biso   1.000  C
  C7       1.0000 0.28330  0.88340  0.86697  Biso   1.000  C
  C8       1.0000 0.78330  0.38340  0.36697  Biso   1.000  C
  H1       1.0000 0.24990  0.93240  0.14370  Biso   1.000  H
  H2       1.0000 0.74990  0.43240  0.64370  Biso   1.000  H
  H3       1.0000 0.74990  0.06760  0.14370  Biso   1.000  H
  H4       1.0000 0.24990  0.56760  0.64370  Biso   1.000  H
  H5       1.0000 0.75010  0.06760  0.85630  Biso   1.000  H
  H6       1.0000 0.25010  0.56760  0.35630  Biso   1.000  H
  H7       1.0000 0.25010  0.93240  0.85630  Biso   1.000  H
  H8       1.0000 0.75010  0.43240  0.35630  Biso   1.000  H
  C9       1.0000 0.13790  0.86090  0.13896  Biso   1.000  C
  C10      1.0000 0.63790  0.36090  0.63896  Biso   1.000  C
  C11      1.0000 0.63790  0.13910  0.13896  Biso   1.000  C
  C12      1.0000 0.13790  0.63910  0.63896  Biso   1.000  C
  C13      1.0000 0.86210  0.13910  0.86104  Biso   1.000  C
  C14      1.0000 0.36210  0.63910  0.36104  Biso   1.000  C
  C15      1.0000 0.36210  0.86090  0.86104  Biso   1.000  C
  C16      1.0000 0.86210  0.36090  0.36104  Biso   1.000  C
  C17      1.0000 0.08900  0.78740  0.12309  Biso   1.000  C
  C18      1.0000 0.58900  0.28740  0.62309  Biso   1.000  C
  C19      1.0000 0.58900  0.21260  0.12309  Biso   1.000  C
  C20      1.0000 0.08900  0.71260  0.62309  Biso   1.000  C
  C21      1.0000 0.91100  0.21260  0.87691  Biso   1.000  C
  C22      1.0000 0.41100  0.71260  0.37691  Biso   1.000  C
  C23      1.0000 0.41100  0.78740  0.87691  Biso   1.000  C
  C24      1.0000 0.91100  0.28740  0.37691  Biso   1.000  C
  H9       1.0000 0.03540  0.76970  0.12643  Biso   1.000  H
  H10      1.0000 0.53540  0.26970  0.62643  Biso   1.000  H
  H11      1.0000 0.53540  0.23030  0.12643  Biso   1.000  H
  H12      1.0000 0.03540  0.73030  0.62643  Biso   1.000  H
  H13      1.0000 0.96460  0.23030  0.87357  Biso   1.000  H
  H14      1.0000 0.46460  0.73030  0.37357  Biso   1.000  H
  H15      1.0000 0.46460  0.76970  0.87357  Biso   1.000  H
  H16      1.0000 0.96460  0.26970  0.37357  Biso   1.000  H
  C25      1.0000 0.12070  0.74080  0.10219  Biso   1.000  C
  C26      1.0000 0.62070  0.24080  0.60219  Biso   1.000  C
  C27      1.0000 0.62070  0.25920  0.10219  Biso   1.000  C
  C28      1.0000 0.12070  0.75920  0.60219  Biso   1.000  C
  C29      1.0000 0.87930  0.25920  0.89781  Biso   1.000  C
  C30      1.0000 0.37930  0.75920  0.39781  Biso   1.000  C
  C31      1.0000 0.37930  0.74080  0.89781  Biso   1.000  C
  C32      1.0000 0.87930  0.24080  0.39781  Biso   1.000  C
  H17      1.0000 0.08870  0.69090  0.09133  Biso   1.000  H
  H18      1.0000 0.58870  0.19090  0.59133  Biso   1.000  H
  H19      1.0000 0.58870  0.30910  0.09133  Biso   1.000  H
  H20      1.0000 0.08870  0.80910  0.59133  Biso   1.000  H
  H21      1.0000 0.91130  0.30910  0.90867  Biso   1.000  H
  H22      1.0000 0.41130  0.80910  0.40867  Biso   1.000  H
  H23      1.0000 0.41130  0.69090  0.90867  Biso   1.000  H
  H24      1.0000 0.91130  0.19090  0.40867  Biso   1.000  H
  C33      1.0000 0.20040  0.76890  0.09751  Biso   1.000  C
  C34      1.0000 0.70040  0.26890  0.59751  Biso   1.000  C
  C35      1.0000 0.70040  0.23110  0.09751  Biso   1.000  C
  C36      1.0000 0.20040  0.73110  0.59751  Biso   1.000  C
  C37      1.0000 0.79960  0.23110  0.90249  Biso   1.000  C
  C38      1.0000 0.29960  0.73110  0.40249  Biso   1.000  C
  C39      1.0000 0.29960  0.76890  0.90249  Biso   1.000  C
  C40      1.0000 0.79960  0.26890  0.40249  Biso   1.000  C
  H25      1.0000 0.22120  0.73810  0.08332  Biso   1.000  H
  H26      1.0000 0.72120  0.23810  0.58332  Biso   1.000  H
  H27      1.0000 0.72120  0.26190  0.08332  Biso   1.000  H
  H28      1.0000 0.22120  0.76190  0.58332  Biso   1.000  H
  H29      1.0000 0.77880  0.26190  0.91668  Biso   1.000  H
  H30      1.0000 0.27880  0.76190  0.41668  Biso   1.000  H
  H31      1.0000 0.27880  0.73810  0.91668  Biso   1.000  H
  H32      1.0000 0.77880  0.23810  0.41668  Biso   1.000  H
  C41      1.0000 0.10480  0.92170  0.16135  Biso   1.000  C
  C42      1.0000 0.60480  0.42170  0.66135  Biso   1.000  C
  C43      1.0000 0.60480  0.07830  0.16135  Biso   1.000  C
  C44      1.0000 0.10480  0.57830  0.66135  Biso   1.000  C
  C45      1.0000 0.89520  0.07830  0.83865  Biso   1.000  C
  C46      1.0000 0.39520  0.57830  0.33865  Biso   1.000  C
  C47      1.0000 0.39520  0.92170  0.83865  Biso   1.000  C
  C48      1.0000 0.89520  0.42170  0.33865  Biso   1.000  C
  H33      1.0000 0.07710  0.01000  0.15785  Biso   1.000  H
  H34      1.0000 0.57710  0.51000  0.65785  Biso   1.000  H
  H35      1.0000 0.57710  0.99000  0.15785  Biso   1.000  H
  H36      1.0000 0.07710  0.49000  0.65785  Biso   1.000  H
  H37      1.0000 0.92290  0.99000  0.84215  Biso   1.000  H
  H38      1.0000 0.42290  0.49000  0.34215  Biso   1.000  H
  H39      1.0000 0.42290  0.01000  0.84215  Biso   1.000  H
  H40      1.0000 0.92290  0.51000  0.34215  Biso   1.000  H
  H41      1.0000 0.06630  0.85610  0.16786  Biso   1.000  H
  H42      1.0000 0.56630  0.35610  0.66786  Biso   1.000  H
  H43      1.0000 0.56630  0.14390  0.16786  Biso   1.000  H
  H44      1.0000 0.06630  0.64390  0.66786  Biso   1.000  H
  H45      1.0000 0.93370  0.14390  0.83214  Biso   1.000  H
  H46      1.0000 0.43370  0.64390  0.33214  Biso   1.000  H
  H47      1.0000 0.43370  0.85610  0.83214  Biso   1.000  H
  H48      1.0000 0.93370  0.35610  0.33214  Biso   1.000  H
  O1       1.0000 0.16820  0.94630  0.17808  Biso   1.000  O
  O2       1.0000 0.66820  0.44630  0.67808  Biso   1.000  O
  O3       1.0000 0.66820  0.05370  0.17808  Biso   1.000  O
  O4       1.0000 0.16820  0.55370  0.67808  Biso   1.000  O
  O5       1.0000 0.83180  0.05370  0.82192  Biso   1.000  O
  O6       1.0000 0.33180  0.55370  0.32192  Biso   1.000  O
  O7       1.0000 0.33180  0.94630  0.82192  Biso   1.000  O
  O8       1.0000 0.83180  0.44630  0.32192  Biso   1.000  O
  Si1      1.0000 0.16577  0.05540  0.20054  Biso   1.000  Si
  Si2      1.0000 0.66577  0.55540  0.70054  Biso   1.000  Si
  Si3      1.0000 0.66577  0.94460  0.20054  Biso   1.000  Si
  Si4      1.0000 0.16577  0.44460  0.70054  Biso   1.000  Si
  Si5      1.0000 0.83423  0.94460  0.79946  Biso   1.000  Si
  Si6      1.0000 0.33423  0.44460  0.29946  Biso   1.000  Si
  Si7      1.0000 0.33423  0.05540  0.79946  Biso   1.000  Si
  Si8      1.0000 0.83423  0.55540  0.29946  Biso   1.000  Si
  O9       1.0000 0.14430  0.21270  0.19082  Biso   1.000  O
  O10      1.0000 0.64430  0.71270  0.69082  Biso   1.000  O
  O11      1.0000 0.64430  0.78730  0.19082  Biso   1.000  O
  O12      1.0000 0.14430  0.28730  0.69082  Biso   1.000  O
  O13      1.0000 0.85570  0.78730  0.80918  Biso   1.000  O
  O14      1.0000 0.35570  0.28730  0.30918  Biso   1.000  O
  O15      1.0000 0.35570  0.21270  0.80918  Biso   1.000  O
  O16      1.0000 0.85570  0.71270  0.30918  Biso   1.000  O
  Si9      1.0000 0.11665  0.36020  0.17932  Biso   1.000  Si
  Si10     1.0000 0.61665  0.86020  0.67932  Biso   1.000  Si
  Si11     1.0000 0.61665  0.63980  0.17932  Biso   1.000  Si
  Si12     1.0000 0.11665  0.13980  0.67932  Biso   1.000  Si
  Si13     1.0000 0.88335  0.63980  0.82068  Biso   1.000  Si
  Si14     1.0000 0.38335  0.13980  0.32068  Biso   1.000  Si
  Si15     1.0000 0.38335  0.36020  0.82068  Biso   1.000  Si
  Si16     1.0000 0.88335  0.86020  0.32068  Biso   1.000  Si
  O17      1.0000 0.10440  0.34240  0.15082  Biso   1.000  O
  O18      1.0000 0.60440  0.84240  0.65082  Biso   1.000  O
  O19      1.0000 0.60440  0.65760  0.15082  Biso   1.000  O
  O20      1.0000 0.10440  0.15760  0.65082  Biso   1.000  O
  O21      1.0000 0.89560  0.65760  0.84918  Biso   1.000  O
  O22      1.0000 0.39560  0.15760  0.34918  Biso   1.000  O
  O23      1.0000 0.39560  0.34240  0.84918  Biso   1.000  O
  O24      1.0000 0.89560  0.84240  0.34918  Biso   1.000  O
  C49      1.0000 0.15840  0.28540  0.13469  Biso   1.000  C
  C50      1.0000 0.65840  0.78540  0.63469  Biso   1.000  C
  C51      1.0000 0.65840  0.71460  0.13469  Biso   1.000  C
  C52      1.0000 0.15840  0.21460  0.63469  Biso   1.000  C
  C53      1.0000 0.84160  0.71460  0.86531  Biso   1.000  C
  C54      1.0000 0.34160  0.21460  0.36531  Biso   1.000  C
  C55      1.0000 0.34160  0.28540  0.86531  Biso   1.000  C
  C56      1.0000 0.84160  0.78540  0.36531  Biso   1.000  C
  H49      1.0000 0.19400  0.21840  0.14270  Biso   1.000  H
  H50      1.0000 0.69400  0.71840  0.64270  Biso   1.000  H
  H51      1.0000 0.69400  0.78160  0.14270  Biso   1.000  H
  H52      1.0000 0.19400  0.28160  0.64270  Biso   1.000  H
  H53      1.0000 0.80600  0.78160  0.85730  Biso   1.000  H
  H54      1.0000 0.30600  0.28160  0.35730  Biso   1.000  H
  H55      1.0000 0.30600  0.21840  0.85730  Biso   1.000  H
  H56      1.0000 0.80600  0.71840  0.35730  Biso   1.000  H
  H57      1.0000 0.19110  0.36070  0.12828  Biso   1.000  H
  H58      1.0000 0.69110  0.86070  0.62828  Biso   1.000  H
  H59      1.0000 0.69110  0.63930  0.12828  Biso   1.000  H
  H60      1.0000 0.19110  0.13930  0.62828  Biso   1.000  H
  H61      1.0000 0.80890  0.63930  0.87172  Biso   1.000  H
  H62      1.0000 0.30890  0.13930  0.37172  Biso   1.000  H
  H63      1.0000 0.30890  0.36070  0.87172  Biso   1.000  H
  H64      1.0000 0.80890  0.86070  0.37172  Biso   1.000  H
  C57      1.0000 0.11210  0.21120  0.11480  Biso   1.000  C
  C58      1.0000 0.61210  0.71120  0.61480  Biso   1.000  C
  C59      1.0000 0.61210  0.78880  0.11480  Biso   1.000  C
  C60      1.0000 0.11210  0.28880  0.61480  Biso   1.000  C
  C61      1.0000 0.88790  0.78880  0.88520  Biso   1.000  C
  C62      1.0000 0.38790  0.28880  0.38520  Biso   1.000  C
  C63      1.0000 0.38790  0.21120  0.88520  Biso   1.000  C
  C64      1.0000 0.88790  0.71120  0.38520  Biso   1.000  C
  C65      1.0000 0.02990  0.19970  0.11510  Biso   1.000  C
  C66      1.0000 0.52990  0.69970  0.61510  Biso   1.000  C
  C67      1.0000 0.52990  0.80030  0.11510  Biso   1.000  C
  C68      1.0000 0.02990  0.30030  0.61510  Biso   1.000  C
  C69      1.0000 0.97010  0.80030  0.88490  Biso   1.000  C
  C70      1.0000 0.47010  0.30030  0.38490  Biso   1.000  C
  C71      1.0000 0.47010  0.19970  0.88490  Biso   1.000  C
  C72      1.0000 0.97010  0.69970  0.38490  Biso   1.000  C
  H65      1.0000 0.00310  0.23960  0.12769  Biso   1.000  H
  H66      1.0000 0.50310  0.73960  0.62769  Biso   1.000  H
  H67      1.0000 0.50310  0.76040  0.12769  Biso   1.000  H
  H68      1.0000 0.00310  0.26040  0.62769  Biso   1.000  H
  H69      1.0000 0.99690  0.76040  0.87231  Biso   1.000  H
  H70      1.0000 0.49690  0.26040  0.37231  Biso   1.000  H
  H71      1.0000 0.49690  0.23960  0.87231  Biso   1.000  H
  H72      1.0000 0.99690  0.73960  0.37231  Biso   1.000  H
  N9       1.0000 0.98590  0.13360  0.09808  Biso   1.000  N
  N10      1.0000 0.48590  0.63360  0.59808  Biso   1.000  N
  N11      1.0000 0.48590  0.86640  0.09808  Biso   1.000  N
  N12      1.0000 0.98590  0.36640  0.59808  Biso   1.000  N
  N13      1.0000 0.01410  0.86640  0.90192  Biso   1.000  N
  N14      1.0000 0.51410  0.36640  0.40192  Biso   1.000  N
  N15      1.0000 0.51410  0.13360  0.90192  Biso   1.000  N
  N16      1.0000 0.01410  0.63360  0.40192  Biso   1.000  N
  C73      1.0000 0.52430  0.92170  0.07995  Biso   1.000  C
  C74      1.0000 0.02430  0.42170  0.57995  Biso   1.000  C
  C75      1.0000 0.02430  0.07830  0.07995  Biso   1.000  C
  C76      1.0000 0.52430  0.57830  0.57995  Biso   1.000  C
  C77      1.0000 0.47570  0.07830  0.92005  Biso   1.000  C
  C78      1.0000 0.97570  0.57830  0.42005  Biso   1.000  C
  C79      1.0000 0.97570  0.92170  0.92005  Biso   1.000  C
  C80      1.0000 0.47570  0.42170  0.42005  Biso   1.000  C
  H73      1.0000 0.49470  0.96670  0.06798  Biso   1.000  H
  H74      1.0000 0.99470  0.46670  0.56798  Biso   1.000  H
  H75      1.0000 0.99470  0.03330  0.06798  Biso   1.000  H
  H76      1.0000 0.49470  0.53330  0.56798  Biso   1.000  H
  H77      1.0000 0.50530  0.03330  0.93202  Biso   1.000  H
  H78      1.0000 0.00530  0.53330  0.43202  Biso   1.000  H
  H79      1.0000 0.00530  0.96670  0.93202  Biso   1.000  H
  H80      1.0000 0.50530  0.46670  0.43202  Biso   1.000  H
  C81      1.0000 0.60780  0.91420  0.07838  Biso   1.000  C
  C82      1.0000 0.10780  0.41420  0.57838  Biso   1.000  C
  C83      1.0000 0.10780  0.08580  0.07838  Biso   1.000  C
  C84      1.0000 0.60780  0.58580  0.57838  Biso   1.000  C
  C85      1.0000 0.39220  0.08580  0.92162  Biso   1.000  C
  C86      1.0000 0.89220  0.58580  0.42162  Biso   1.000  C
  C87      1.0000 0.89220  0.91420  0.92162  Biso   1.000  C
  C88      1.0000 0.39220  0.41420  0.42162  Biso   1.000  C
  H81      1.0000 0.63350  0.95440  0.06563  Biso   1.000  H
  H82      1.0000 0.13350  0.45440  0.56563  Biso   1.000  H
  H83      1.0000 0.13350  0.04560  0.06563  Biso   1.000  H
  H84      1.0000 0.63350  0.54560  0.56563  Biso   1.000  H
  H85      1.0000 0.36650  0.04560  0.93437  Biso   1.000  H
  H86      1.0000 0.86650  0.54560  0.43437  Biso   1.000  H
  H87      1.0000 0.86650  0.95440  0.93437  Biso   1.000  H
  H88      1.0000 0.36650  0.45440  0.43437  Biso   1.000  H
  C89      1.0000 0.15140  0.15340  0.09592  Biso   1.000  C
  C90      1.0000 0.65140  0.65340  0.59592  Biso   1.000  C
  C91      1.0000 0.65140  0.84660  0.09592  Biso   1.000  C
  C92      1.0000 0.15140  0.34660  0.59592  Biso   1.000  C
  C93      1.0000 0.84860  0.84660  0.90408  Biso   1.000  C
  C94      1.0000 0.34860  0.34660  0.40408  Biso   1.000  C
  C95      1.0000 0.34860  0.15340  0.90408  Biso   1.000  C
  C96      1.0000 0.84860  0.65340  0.40408  Biso   1.000  C
  H89      1.0000 0.20710  0.16020  0.09510  Biso   1.000  H
  H90      1.0000 0.70710  0.66020  0.59510  Biso   1.000  H
  H91      1.0000 0.70710  0.83980  0.09510  Biso   1.000  H
  H92      1.0000 0.20710  0.33980  0.59510  Biso   1.000  H
  H93      1.0000 0.79290  0.83980  0.90490  Biso   1.000  H
  H94      1.0000 0.29290  0.33980  0.40490  Biso   1.000  H
  H95      1.0000 0.29290  0.16020  0.90490  Biso   1.000  H
  H96      1.0000 0.79290  0.66020  0.40490  Biso   1.000  H
  C97      1.0000 0.26780  0.05570  0.21437  Biso   1.000  C
  C98      1.0000 0.76780  0.55570  0.71437  Biso   1.000  C
  C99      1.0000 0.76780  0.94430  0.21437  Biso   1.000  C
  C100     1.0000 0.26780  0.44430  0.71437  Biso   1.000  C
  C101     1.0000 0.73220  0.94430  0.78563  Biso   1.000  C
  C102     1.0000 0.23220  0.44430  0.28563  Biso   1.000  C
  C103     1.0000 0.23220  0.05570  0.78563  Biso   1.000  C
  C104     1.0000 0.73220  0.55570  0.28563  Biso   1.000  C
  H97      1.0000 0.26440  0.11210  0.22884  Biso   1.000  H
  H98      1.0000 0.76440  0.61210  0.72884  Biso   1.000  H
  H99      1.0000 0.76440  0.88790  0.22884  Biso   1.000  H
  H100     1.0000 0.26440  0.38790  0.72884  Biso   1.000  H
  H101     1.0000 0.73560  0.88790  0.77116  Biso   1.000  H
  H102     1.0000 0.23560  0.38790  0.27116  Biso   1.000  H
  H103     1.0000 0.23560  0.11210  0.77116  Biso   1.000  H
  H104     1.0000 0.73560  0.61210  0.27116  Biso   1.000  H
  C105     1.0000 0.32970  0.12690  0.19950  Biso   1.000  C
  C106     1.0000 0.82970  0.62690  0.69950  Biso   1.000  C
  C107     1.0000 0.82970  0.87310  0.19950  Biso   1.000  C
  C108     1.0000 0.32970  0.37310  0.69950  Biso   1.000  C
  C109     1.0000 0.67030  0.87310  0.80050  Biso   1.000  C
  C110     1.0000 0.17030  0.37310  0.30050  Biso   1.000  C
  C111     1.0000 0.17030  0.12690  0.80050  Biso   1.000  C
  C112     1.0000 0.67030  0.62690  0.30050  Biso   1.000  C
  H105     1.0000 0.31070  0.21910  0.19480  Biso   1.000  H
  H106     1.0000 0.81070  0.71910  0.69480  Biso   1.000  H
  H107     1.0000 0.81070  0.78090  0.19480  Biso   1.000  H
  H108     1.0000 0.31070  0.28090  0.69480  Biso   1.000  H
  H109     1.0000 0.68930  0.78090  0.80520  Biso   1.000  H
  H110     1.0000 0.18930  0.28090  0.30520  Biso   1.000  H
  H111     1.0000 0.18930  0.21910  0.80520  Biso   1.000  H
  H112     1.0000 0.68930  0.71910  0.30520  Biso   1.000  H
  H113     1.0000 0.33870  0.07060  0.18570  Biso   1.000  H
  H114     1.0000 0.83870  0.57060  0.68570  Biso   1.000  H
  H115     1.0000 0.83870  0.92940  0.18570  Biso   1.000  H
  H116     1.0000 0.33870  0.42940  0.68570  Biso   1.000  H
  H117     1.0000 0.66130  0.92940  0.81430  Biso   1.000  H
  H118     1.0000 0.16130  0.42940  0.31430  Biso   1.000  H
  H119     1.0000 0.16130  0.07060  0.81430  Biso   1.000  H
  H120     1.0000 0.66130  0.57060  0.31430  Biso   1.000  H
  H121     1.0000 0.37930  0.13630  0.20850  Biso   1.000  H
  H122     1.0000 0.87930  0.63630  0.70850  Biso   1.000  H
  H123     1.0000 0.87930  0.86370  0.20850  Biso   1.000  H
  H124     1.0000 0.37930  0.36370  0.70850  Biso   1.000  H
  H125     1.0000 0.62070  0.86370  0.79150  Biso   1.000  H
  H126     1.0000 0.12070  0.36370  0.29150  Biso   1.000  H
  H127     1.0000 0.12070  0.13630  0.79150  Biso   1.000  H
  H128     1.0000 0.62070  0.63630  0.29150  Biso   1.000  H
  C113     1.0000 0.29740  0.90730  0.22200  Biso   1.000  C
  C114     1.0000 0.79740  0.40730  0.72200  Biso   1.000  C
  C115     1.0000 0.79740  0.09270  0.22200  Biso   1.000  C
  C116     1.0000 0.29740  0.59270  0.72200  Biso   1.000  C
  C117     1.0000 0.70260  0.09270  0.77800  Biso   1.000  C
  C118     1.0000 0.20260  0.59270  0.27800  Biso   1.000  C
  C119     1.0000 0.20260  0.90730  0.77800  Biso   1.000  C
  C120     1.0000 0.70260  0.40730  0.27800  Biso   1.000  C
  H129     1.0000 0.25760  0.86290  0.23150  Biso   1.000  H
  H130     1.0000 0.75760  0.36290  0.73150  Biso   1.000  H
  H131     1.0000 0.75760  0.13710  0.23150  Biso   1.000  H
  H132     1.0000 0.25760  0.63710  0.73150  Biso   1.000  H
  H133     1.0000 0.74240  0.13710  0.76850  Biso   1.000  H
  H134     1.0000 0.24240  0.63710  0.26850  Biso   1.000  H
  H135     1.0000 0.24240  0.86290  0.76850  Biso   1.000  H
  H136     1.0000 0.74240  0.36290  0.26850  Biso   1.000  H
  H137     1.0000 0.34690  0.91620  0.23110  Biso   1.000  H
  H138     1.0000 0.84690  0.41620  0.73110  Biso   1.000  H
  H139     1.0000 0.84690  0.08380  0.23110  Biso   1.000  H
  H140     1.0000 0.34690  0.58380  0.73110  Biso   1.000  H
  H141     1.0000 0.65310  0.08380  0.76890  Biso   1.000  H
  H142     1.0000 0.15310  0.58380  0.26890  Biso   1.000  H
  H143     1.0000 0.15310  0.91620  0.76890  Biso   1.000  H
  H144     1.0000 0.65310  0.41620  0.26890  Biso   1.000  H
  H145     1.0000 0.30630  0.85050  0.20830  Biso   1.000  H
  H146     1.0000 0.80630  0.35050  0.70830  Biso   1.000  H
  H147     1.0000 0.80630  0.14950  0.20830  Biso   1.000  H
  H148     1.0000 0.30630  0.64950  0.70830  Biso   1.000  H
  H149     1.0000 0.69370  0.14950  0.79170  Biso   1.000  H
  H150     1.0000 0.19370  0.64950  0.29170  Biso   1.000  H
  H151     1.0000 0.19370  0.85050  0.79170  Biso   1.000  H
  H152     1.0000 0.69370  0.35050  0.29170  Biso   1.000  H
  C121     1.0000 0.08250  0.00420  0.22040  Biso   1.000  C
  C122     1.0000 0.58250  0.50420  0.72040  Biso   1.000  C
  C123     1.0000 0.58250  0.99580  0.22040  Biso   1.000  C
  C124     1.0000 0.08250  0.49580  0.72040  Biso   1.000  C
  C125     1.0000 0.91750  0.99580  0.77960  Biso   1.000  C
  C126     1.0000 0.41750  0.49580  0.27960  Biso   1.000  C
  C127     1.0000 0.41750  0.00420  0.77960  Biso   1.000  C
  C128     1.0000 0.91750  0.50420  0.27960  Biso   1.000  C
  H153     1.0000 0.03260  0.02220  0.21130  Biso   1.000  H
  H154     1.0000 0.53260  0.52220  0.71130  Biso   1.000  H
  H155     1.0000 0.53260  0.97780  0.21130  Biso   1.000  H
  H156     1.0000 0.03260  0.47780  0.71130  Biso   1.000  H
  H157     1.0000 0.96740  0.97780  0.78870  Biso   1.000  H
  H158     1.0000 0.46740  0.47780  0.28870  Biso   1.000  H
  H159     1.0000 0.46740  0.02220  0.78870  Biso   1.000  H
  H160     1.0000 0.96740  0.52220  0.28870  Biso   1.000  H
  C129     1.0000 0.07920  0.85290  0.22730  Biso   1.000  C
  C130     1.0000 0.57920  0.35290  0.72730  Biso   1.000  C
  C131     1.0000 0.57920  0.14710  0.22730  Biso   1.000  C
  C132     1.0000 0.07920  0.64710  0.72730  Biso   1.000  C
  C133     1.0000 0.92080  0.14710  0.77270  Biso   1.000  C
  C134     1.0000 0.42080  0.64710  0.27270  Biso   1.000  C
  C135     1.0000 0.42080  0.85290  0.77270  Biso   1.000  C
  C136     1.0000 0.92080  0.35290  0.27270  Biso   1.000  C
  H161     1.0000 0.08080  0.79480  0.21340  Biso   1.000  H
  H162     1.0000 0.58080  0.29480  0.71340  Biso   1.000  H
  H163     1.0000 0.58080  0.20520  0.21340  Biso   1.000  H
  H164     1.0000 0.08080  0.70520  0.71340  Biso   1.000  H
  H165     1.0000 0.91920  0.20520  0.78660  Biso   1.000  H
  H166     1.0000 0.41920  0.70520  0.28660  Biso   1.000  H
  H167     1.0000 0.41920  0.79480  0.78660  Biso   1.000  H
  H168     1.0000 0.91920  0.29480  0.28660  Biso   1.000  H
  H169     1.0000 0.03030  0.83500  0.23540  Biso   1.000  H
  H170     1.0000 0.53030  0.33500  0.73540  Biso   1.000  H
  H171     1.0000 0.53030  0.16500  0.23540  Biso   1.000  H
  H172     1.0000 0.03030  0.66500  0.73540  Biso   1.000  H
  H173     1.0000 0.96970  0.16500  0.76460  Biso   1.000  H
  H174     1.0000 0.46970  0.66500  0.26460  Biso   1.000  H
  H175     1.0000 0.46970  0.83500  0.76460  Biso   1.000  H
  H176     1.0000 0.96970  0.33500  0.26460  Biso   1.000  H
  H177     1.0000 0.12450  0.83090  0.23750  Biso   1.000  H
  H178     1.0000 0.62450  0.33090  0.73750  Biso   1.000  H
  H179     1.0000 0.62450  0.16910  0.23750  Biso   1.000  H
  H180     1.0000 0.12450  0.66910  0.73750  Biso   1.000  H
  H181     1.0000 0.87550  0.16910  0.76250  Biso   1.000  H
  H182     1.0000 0.37550  0.66910  0.26250  Biso   1.000  H
  H183     1.0000 0.37550  0.83090  0.76250  Biso   1.000  H
  H184     1.0000 0.87550  0.33090  0.26250  Biso   1.000  H
  C137     1.0000 0.08030  0.10520  0.24180  Biso   1.000  C
  C138     1.0000 0.58030  0.60520  0.74180  Biso   1.000  C
  C139     1.0000 0.58030  0.89480  0.24180  Biso   1.000  C
  C140     1.0000 0.08030  0.39480  0.74180  Biso   1.000  C
  C141     1.0000 0.91970  0.89480  0.75820  Biso   1.000  C
  C142     1.0000 0.41970  0.39480  0.25820  Biso   1.000  C
  C143     1.0000 0.41970  0.10520  0.75820  Biso   1.000  C
  C144     1.0000 0.91970  0.60520  0.25820  Biso   1.000  C
  H185     1.0000 0.08260  0.20160  0.23650  Biso   1.000  H
  H186     1.0000 0.58260  0.70160  0.73650  Biso   1.000  H
  H187     1.0000 0.58260  0.79840  0.23650  Biso   1.000  H
  H188     1.0000 0.08260  0.29840  0.73650  Biso   1.000  H
  H189     1.0000 0.91740  0.79840  0.76350  Biso   1.000  H
  H190     1.0000 0.41740  0.29840  0.26350  Biso   1.000  H
  H191     1.0000 0.41740  0.20160  0.76350  Biso   1.000  H
  H192     1.0000 0.91740  0.70160  0.26350  Biso   1.000  H
  H193     1.0000 0.12560  0.08630  0.25230  Biso   1.000  H
  H194     1.0000 0.62560  0.58630  0.75230  Biso   1.000  H
  H195     1.0000 0.62560  0.91370  0.25230  Biso   1.000  H
  H196     1.0000 0.12560  0.41370  0.75230  Biso   1.000  H
  H197     1.0000 0.87440  0.91370  0.74770  Biso   1.000  H
  H198     1.0000 0.37440  0.41370  0.24770  Biso   1.000  H
  H199     1.0000 0.37440  0.08630  0.74770  Biso   1.000  H
  H200     1.0000 0.87440  0.58630  0.24770  Biso   1.000  H
  H201     1.0000 0.03140  0.09040  0.25010  Biso   1.000  H
  H202     1.0000 0.53140  0.59040  0.75010  Biso   1.000  H
  H203     1.0000 0.53140  0.90960  0.25010  Biso   1.000  H
  H204     1.0000 0.03140  0.40960  0.75010  Biso   1.000  H
  H205     1.0000 0.96860  0.90960  0.74990  Biso   1.000  H
  H206     1.0000 0.46860  0.40960  0.24990  Biso   1.000  H
  H207     1.0000 0.46860  0.09040  0.74990  Biso   1.000  H
  H208     1.0000 0.96860  0.59040  0.24990  Biso   1.000  H
  C145     1.0000 0.21670  0.45760  0.18430  Biso   1.000  C
  C146     1.0000 0.71670  0.95760  0.68430  Biso   1.000  C
  C147     1.0000 0.71670  0.54240  0.18430  Biso   1.000  C
  C148     1.0000 0.21670  0.04240  0.68430  Biso   1.000  C
  C149     1.0000 0.78330  0.54240  0.81570  Biso   1.000  C
  C150     1.0000 0.28330  0.04240  0.31570  Biso   1.000  C
  C151     1.0000 0.28330  0.45760  0.81570  Biso   1.000  C
  C152     1.0000 0.78330  0.95760  0.31570  Biso   1.000  C
  H209     1.0000 0.26030  0.39710  0.17880  Biso   1.000  H
  H210     1.0000 0.76030  0.89710  0.67880  Biso   1.000  H
  H211     1.0000 0.76030  0.60290  0.17880  Biso   1.000  H
  H212     1.0000 0.26030  0.10290  0.67880  Biso   1.000  H
  H213     1.0000 0.73970  0.60290  0.82120  Biso   1.000  H
  H214     1.0000 0.23970  0.10290  0.32120  Biso   1.000  H
  H215     1.0000 0.23970  0.39710  0.82120  Biso   1.000  H
  H216     1.0000 0.73970  0.89710  0.32120  Biso   1.000  H
  C153     1.0000 0.21510  0.59310  0.16980  Biso   1.000  C
  C154     1.0000 0.71510  0.09310  0.66980  Biso   1.000  C
  C155     1.0000 0.71510  0.40690  0.16980  Biso   1.000  C
  C156     1.0000 0.21510  0.90690  0.66980  Biso   1.000  C
  C157     1.0000 0.78490  0.40690  0.83020  Biso   1.000  C
  C158     1.0000 0.28490  0.90690  0.33020  Biso   1.000  C
  C159     1.0000 0.28490  0.59310  0.83020  Biso   1.000  C
  C160     1.0000 0.78490  0.09310  0.33020  Biso   1.000  C
  H217     1.0000 0.20550  0.57030  0.15350  Biso   1.000  H
  H218     1.0000 0.70550  0.07030  0.65350  Biso   1.000  H
  H219     1.0000 0.70550  0.42970  0.15350  Biso   1.000  H
  H220     1.0000 0.20550  0.92970  0.65350  Biso   1.000  H
  H221     1.0000 0.79450  0.42970  0.84650  Biso   1.000  H
  H222     1.0000 0.29450  0.92970  0.34650  Biso   1.000  H
  H223     1.0000 0.29450  0.57030  0.84650  Biso   1.000  H
  H224     1.0000 0.79450  0.07030  0.34650  Biso   1.000  H
  H225     1.0000 0.26580  0.64090  0.17170  Biso   1.000  H
  H226     1.0000 0.76580  0.14090  0.67170  Biso   1.000  H
  H227     1.0000 0.76580  0.35910  0.17170  Biso   1.000  H
  H228     1.0000 0.26580  0.85910  0.67170  Biso   1.000  H
  H229     1.0000 0.73420  0.35910  0.82830  Biso   1.000  H
  H230     1.0000 0.23420  0.85910  0.32830  Biso   1.000  H
  H231     1.0000 0.23420  0.64090  0.82830  Biso   1.000  H
  H232     1.0000 0.73420  0.14090  0.32830  Biso   1.000  H
  H233     1.0000 0.17290  0.65370  0.17510  Biso   1.000  H
  H234     1.0000 0.67290  0.15370  0.67510  Biso   1.000  H
  H235     1.0000 0.67290  0.34630  0.17510  Biso   1.000  H
  H236     1.0000 0.17290  0.84630  0.67510  Biso   1.000  H
  H237     1.0000 0.82710  0.34630  0.82490  Biso   1.000  H
  H238     1.0000 0.32710  0.84630  0.32490  Biso   1.000  H
  H239     1.0000 0.32710  0.65370  0.82490  Biso   1.000  H
  H240     1.0000 0.82710  0.15370  0.32490  Biso   1.000  H
  C161     1.0000 0.23170  0.48940  0.21020  Biso   1.000  C
  C162     1.0000 0.73170  0.98940  0.71020  Biso   1.000  C
  C163     1.0000 0.73170  0.51060  0.21020  Biso   1.000  C
  C164     1.0000 0.23170  0.01060  0.71020  Biso   1.000  C
  C165     1.0000 0.76830  0.51060  0.78980  Biso   1.000  C
  C166     1.0000 0.26830  0.01060  0.28980  Biso   1.000  C
  C167     1.0000 0.26830  0.48940  0.78980  Biso   1.000  C
  C168     1.0000 0.76830  0.98940  0.28980  Biso   1.000  C
  H241     1.0000 0.23250  0.40230  0.21900  Biso   1.000  H
  H242     1.0000 0.73250  0.90230  0.71900  Biso   1.000  H
  H243     1.0000 0.73250  0.59770  0.21900  Biso   1.000  H
  H244     1.0000 0.23250  0.09770  0.71900  Biso   1.000  H
  H245     1.0000 0.76750  0.59770  0.78100  Biso   1.000  H
  H246     1.0000 0.26750  0.09770  0.28100  Biso   1.000  H
  H247     1.0000 0.26750  0.40230  0.78100  Biso   1.000  H
  H248     1.0000 0.76750  0.90230  0.28100  Biso   1.000  H
  H249     1.0000 0.18970  0.54940  0.21580  Biso   1.000  H
  H250     1.0000 0.68970  0.04940  0.71580  Biso   1.000  H
  H251     1.0000 0.68970  0.45060  0.21580  Biso   1.000  H
  H252     1.0000 0.18970  0.95060  0.71580  Biso   1.000  H
  H253     1.0000 0.81030  0.45060  0.78420  Biso   1.000  H
  H254     1.0000 0.31030  0.95060  0.28420  Biso   1.000  H
  H255     1.0000 0.31030  0.54940  0.78420  Biso   1.000  H
  H256     1.0000 0.81030  0.04940  0.28420  Biso   1.000  H
  H257     1.0000 0.28260  0.53660  0.21230  Biso   1.000  H
  H258     1.0000 0.78260  0.03660  0.71230  Biso   1.000  H
  H259     1.0000 0.78260  0.46340  0.21230  Biso   1.000  H
  H260     1.0000 0.28260  0.96340  0.71230  Biso   1.000  H
  H261     1.0000 0.71740  0.46340  0.78770  Biso   1.000  H
  H262     1.0000 0.21740  0.96340  0.28770  Biso   1.000  H
  H263     1.0000 0.21740  0.53660  0.78770  Biso   1.000  H
  H264     1.0000 0.71740  0.03660  0.28770  Biso   1.000  H
  C169     1.0000 0.17320  0.52240  0.18760  Biso   1.000  C
  C170     1.0000 0.67320  0.02240  0.68760  Biso   1.000  C
  C171     1.0000 0.67320  0.47760  0.18760  Biso   1.000  C
  C172     1.0000 0.17320  0.97760  0.68760  Biso   1.000  C
  C173     1.0000 0.82680  0.47760  0.81240  Biso   1.000  C
  C174     1.0000 0.32680  0.97760  0.31240  Biso   1.000  C
  C175     1.0000 0.32680  0.52240  0.81240  Biso   1.000  C
  C176     1.0000 0.82680  0.02240  0.31240  Biso   1.000  C
  H265     1.0000 0.13780  0.60430  0.18500  Biso   1.000  H
  H266     1.0000 0.63780  0.10430  0.68500  Biso   1.000  H
  H267     1.0000 0.63780  0.39570  0.18500  Biso   1.000  H
  H268     1.0000 0.13780  0.89570  0.68500  Biso   1.000  H
  H269     1.0000 0.86220  0.39570  0.81500  Biso   1.000  H
  H270     1.0000 0.36220  0.89570  0.31500  Biso   1.000  H
  H271     1.0000 0.36220  0.60430  0.81500  Biso   1.000  H
  H272     1.0000 0.86220  0.10430  0.31500  Biso   1.000  H
  C177     1.0000 0.24690  0.54070  0.17250  Biso   1.000  C
  C178     1.0000 0.74690  0.04070  0.67250  Biso   1.000  C
  C179     1.0000 0.74690  0.45930  0.17250  Biso   1.000  C
  C180     1.0000 0.24690  0.95930  0.67250  Biso   1.000  C
  C181     1.0000 0.75310  0.45930  0.82750  Biso   1.000  C
  C182     1.0000 0.25310  0.95930  0.32750  Biso   1.000  C
  C183     1.0000 0.25310  0.54070  0.82750  Biso   1.000  C
  C184     1.0000 0.75310  0.04070  0.32750  Biso   1.000  C
  H273     1.0000 0.23060  0.54400  0.15610  Biso   1.000  H
  H274     1.0000 0.73060  0.04400  0.65610  Biso   1.000  H
  H275     1.0000 0.73060  0.45600  0.15610  Biso   1.000  H
  H276     1.0000 0.23060  0.95600  0.65610  Biso   1.000  H
  H277     1.0000 0.76940  0.45600  0.84390  Biso   1.000  H
  H278     1.0000 0.26940  0.95600  0.34390  Biso   1.000  H
  H279     1.0000 0.26940  0.54400  0.84390  Biso   1.000  H
  H280     1.0000 0.76940  0.04400  0.34390  Biso   1.000  H
  H281     1.0000 0.28290  0.46240  0.17510  Biso   1.000  H
  H282     1.0000 0.78290  0.96240  0.67510  Biso   1.000  H
  H283     1.0000 0.78290  0.53760  0.17510  Biso   1.000  H
  H284     1.0000 0.28290  0.03760  0.67510  Biso   1.000  H
  H285     1.0000 0.71710  0.53760  0.82490  Biso   1.000  H
  H286     1.0000 0.21710  0.03760  0.32490  Biso   1.000  H
  H287     1.0000 0.21710  0.46240  0.82490  Biso   1.000  H
  H288     1.0000 0.71710  0.96240  0.32490  Biso   1.000  H
  H289     1.0000 0.27380  0.62750  0.17680  Biso   1.000  H
  H290     1.0000 0.77380  0.12750  0.67680  Biso   1.000  H
  H291     1.0000 0.77380  0.37250  0.17680  Biso   1.000  H
  H292     1.0000 0.27380  0.87250  0.67680  Biso   1.000  H
  H293     1.0000 0.72620  0.37250  0.82320  Biso   1.000  H
  H294     1.0000 0.22620  0.87250  0.32320  Biso   1.000  H
  H295     1.0000 0.22620  0.62750  0.82320  Biso   1.000  H
  H296     1.0000 0.72620  0.12750  0.32320  Biso   1.000  H
  C185     1.0000 0.19820  0.51700  0.21370  Biso   1.000  C
  C186     1.0000 0.69820  0.01700  0.71370  Biso   1.000  C
  C187     1.0000 0.69820  0.48300  0.21370  Biso   1.000  C
  C188     1.0000 0.19820  0.98300  0.71370  Biso   1.000  C
  C189     1.0000 0.80180  0.48300  0.78630  Biso   1.000  C
  C190     1.0000 0.30180  0.98300  0.28630  Biso   1.000  C
  C191     1.0000 0.30180  0.51700  0.78630  Biso   1.000  C
  C192     1.0000 0.80180  0.01700  0.28630  Biso   1.000  C
  H297     1.0000 0.15120  0.50540  0.22300  Biso   1.000  H
  H298     1.0000 0.65120  0.00540  0.72300  Biso   1.000  H
  H299     1.0000 0.65120  0.49460  0.22300  Biso   1.000  H
  H300     1.0000 0.15120  0.99460  0.72300  Biso   1.000  H
  H301     1.0000 0.84880  0.49460  0.77700  Biso   1.000  H
  H302     1.0000 0.34880  0.99460  0.27700  Biso   1.000  H
  H303     1.0000 0.34880  0.50540  0.77700  Biso   1.000  H
  H304     1.0000 0.84880  0.00540  0.27700  Biso   1.000  H
  H305     1.0000 0.22490  0.60370  0.21810  Biso   1.000  H
  H306     1.0000 0.72490  0.10370  0.71810  Biso   1.000  H
  H307     1.0000 0.72490  0.39630  0.21810  Biso   1.000  H
  H308     1.0000 0.22490  0.89630  0.71810  Biso   1.000  H
  H309     1.0000 0.77510  0.39630  0.78190  Biso   1.000  H
  H310     1.0000 0.27510  0.89630  0.28190  Biso   1.000  H
  H311     1.0000 0.27510  0.60370  0.78190  Biso   1.000  H
  H312     1.0000 0.77510  0.10370  0.28190  Biso   1.000  H
  H313     1.0000 0.23400  0.43860  0.21640  Biso   1.000  H
  H314     1.0000 0.73400  0.93860  0.71640  Biso   1.000  H
  H315     1.0000 0.73400  0.56140  0.21640  Biso   1.000  H
  H316     1.0000 0.23400  0.06140  0.71640  Biso   1.000  H
  H317     1.0000 0.76600  0.56140  0.78360  Biso   1.000  H
  H318     1.0000 0.26600  0.06140  0.28360  Biso   1.000  H
  H319     1.0000 0.26600  0.43860  0.78360  Biso   1.000  H
  H320     1.0000 0.76600  0.93860  0.28360  Biso   1.000  H
  C193     1.0000 0.01620  0.41070  0.18970  Biso   1.000  C
  C194     1.0000 0.51620  0.91070  0.68970  Biso   1.000  C
  C195     1.0000 0.51620  0.58930  0.18970  Biso   1.000  C
  C196     1.0000 0.01620  0.08930  0.68970  Biso   1.000  C
  C197     1.0000 0.98380  0.58930  0.81030  Biso   1.000  C
  C198     1.0000 0.48380  0.08930  0.31030  Biso   1.000  C
  C199     1.0000 0.48380  0.41070  0.81030  Biso   1.000  C
  C200     1.0000 0.98380  0.91070  0.31030  Biso   1.000  C
  H321     1.0000 0.02190  0.43070  0.20660  Biso   1.000  H
  H322     1.0000 0.52190  0.93070  0.70660  Biso   1.000  H
  H323     1.0000 0.52190  0.56930  0.20660  Biso   1.000  H
  H324     1.0000 0.02190  0.06930  0.70660  Biso   1.000  H
  H325     1.0000 0.97810  0.56930  0.79340  Biso   1.000  H
  H326     1.0000 0.47810  0.06930  0.29340  Biso   1.000  H
  H327     1.0000 0.47810  0.43070  0.79340  Biso   1.000  H
  H328     1.0000 0.97810  0.93070  0.29340  Biso   1.000  H
  C201     1.0000 0.95600  0.29600  0.18680  Biso   1.000  C
  C202     1.0000 0.45600  0.79600  0.68680  Biso   1.000  C
  C203     1.0000 0.45600  0.70400  0.18680  Biso   1.000  C
  C204     1.0000 0.95600  0.20400  0.68680  Biso   1.000  C
  C205     1.0000 0.04400  0.70400  0.81320  Biso   1.000  C
  C206     1.0000 0.54400  0.20400  0.31320  Biso   1.000  C
  C207     1.0000 0.54400  0.29600  0.81320  Biso   1.000  C
  C208     1.0000 0.04400  0.79600  0.31320  Biso   1.000  C
  H329     1.0000 0.97620  0.21120  0.19420  Biso   1.000  H
  H330     1.0000 0.47620  0.71120  0.69420  Biso   1.000  H
  H331     1.0000 0.47620  0.78880  0.19420  Biso   1.000  H
  H332     1.0000 0.97620  0.28880  0.69420  Biso   1.000  H
  H333     1.0000 0.02380  0.78880  0.80580  Biso   1.000  H
  H334     1.0000 0.52380  0.28880  0.30580  Biso   1.000  H
  H335     1.0000 0.52380  0.21120  0.80580  Biso   1.000  H
  H336     1.0000 0.02380  0.71120  0.30580  Biso   1.000  H
  H337     1.0000 0.94590  0.27850  0.17030  Biso   1.000  H
  H338     1.0000 0.44590  0.77850  0.67030  Biso   1.000  H
  H339     1.0000 0.44590  0.72150  0.17030  Biso   1.000  H
  H340     1.0000 0.94590  0.22150  0.67030  Biso   1.000  H
  H341     1.0000 0.05410  0.72150  0.82970  Biso   1.000  H
  H342     1.0000 0.55410  0.22150  0.32970  Biso   1.000  H
  H343     1.0000 0.55410  0.27850  0.82970  Biso   1.000  H
  H344     1.0000 0.05410  0.77850  0.32970  Biso   1.000  H
  H345     1.0000 0.90680  0.32380  0.19400  Biso   1.000  H
  H346     1.0000 0.40680  0.82380  0.69400  Biso   1.000  H
  H347     1.0000 0.40680  0.67620  0.19400  Biso   1.000  H
  H348     1.0000 0.90680  0.17620  0.69400  Biso   1.000  H
  H349     1.0000 0.09320  0.67620  0.80600  Biso   1.000  H
  H350     1.0000 0.59320  0.17620  0.30600  Biso   1.000  H
  H351     1.0000 0.59320  0.32380  0.80600  Biso   1.000  H
  H352     1.0000 0.09320  0.82380  0.30600  Biso   1.000  H
  C209     1.0000 0.98360  0.54400  0.17790  Biso   1.000  C
  C210     1.0000 0.48360  0.04400  0.67790  Biso   1.000  C
  C211     1.0000 0.48360  0.45600  0.17790  Biso   1.000  C
  C212     1.0000 0.98360  0.95600  0.67790  Biso   1.000  C
  C213     1.0000 0.01640  0.45600  0.82210  Biso   1.000  C
  C214     1.0000 0.51640  0.95600  0.32210  Biso   1.000  C
  C215     1.0000 0.51640  0.54400  0.82210  Biso   1.000  C
  C216     1.0000 0.01640  0.04400  0.32210  Biso   1.000  C
  H353     1.0000 0.02240  0.61890  0.17970  Biso   1.000  H
  H354     1.0000 0.52240  0.11890  0.67970  Biso   1.000  H
  H355     1.0000 0.52240  0.38110  0.17970  Biso   1.000  H
  H356     1.0000 0.02240  0.88110  0.67970  Biso   1.000  H
  H357     1.0000 0.97760  0.38110  0.82030  Biso   1.000  H
  H358     1.0000 0.47760  0.88110  0.32030  Biso   1.000  H
  H359     1.0000 0.47760  0.61890  0.82030  Biso   1.000  H
  H360     1.0000 0.97760  0.11890  0.32030  Biso   1.000  H
  H361     1.0000 0.93440  0.57140  0.18510  Biso   1.000  H
  H362     1.0000 0.43440  0.07140  0.68510  Biso   1.000  H
  H363     1.0000 0.43440  0.42860  0.18510  Biso   1.000  H
  H364     1.0000 0.93440  0.92860  0.68510  Biso   1.000  H
  H365     1.0000 0.06560  0.42860  0.81490  Biso   1.000  H
  H366     1.0000 0.56560  0.92860  0.31490  Biso   1.000  H
  H367     1.0000 0.56560  0.57140  0.81490  Biso   1.000  H
  H368     1.0000 0.06560  0.07140  0.31490  Biso   1.000  H
  H369     1.0000 0.97350  0.52600  0.16140  Biso   1.000  H
  H370     1.0000 0.47350  0.02600  0.66140  Biso   1.000  H
  H371     1.0000 0.47350  0.47400  0.16140  Biso   1.000  H
  H372     1.0000 0.97350  0.97400  0.66140  Biso   1.000  H
  H373     1.0000 0.02650  0.47400  0.83860  Biso   1.000  H
  H374     1.0000 0.52650  0.97400  0.33860  Biso   1.000  H
  H375     1.0000 0.52650  0.52600  0.83860  Biso   1.000  H
  H376     1.0000 0.02650  0.02600  0.33860  Biso   1.000  H
  N17      1.0000 0.37200  0.64790  0.09806  Biso   1.000  N
  N18      1.0000 0.87200  0.14790  0.59806  Biso   1.000  N
  N19      1.0000 0.87200  0.35210  0.09806  Biso   1.000  N
  N20      1.0000 0.37200  0.85210  0.59806  Biso   1.000  N
  N21      1.0000 0.62800  0.35210  0.90194  Biso   1.000  N
  N22      1.0000 0.12800  0.85210  0.40194  Biso   1.000  N
  N23      1.0000 0.12800  0.64790  0.90194  Biso   1.000  N
  N24      1.0000 0.62800  0.14790  0.40194  Biso   1.000  N
  C217     1.0000 0.39320  0.59420  0.07731  Biso   1.000  C
  C218     1.0000 0.89320  0.09420  0.57731  Biso   1.000  C
  C219     1.0000 0.89320  0.40580  0.07731  Biso   1.000  C
  C220     1.0000 0.39320  0.90580  0.57731  Biso   1.000  C
  C221     1.0000 0.60680  0.40580  0.92269  Biso   1.000  C
  C222     1.0000 0.10680  0.90580  0.42269  Biso   1.000  C
  C223     1.0000 0.10680  0.59420  0.92269  Biso   1.000  C
  C224     1.0000 0.60680  0.09420  0.42269  Biso   1.000  C
  H377     1.0000 0.40230  0.65630  0.06492  Biso   1.000  H
  H378     1.0000 0.90230  0.15630  0.56492  Biso   1.000  H
  H379     1.0000 0.90230  0.34370  0.06492  Biso   1.000  H
  H380     1.0000 0.40230  0.84370  0.56492  Biso   1.000  H
  H381     1.0000 0.59770  0.34370  0.93508  Biso   1.000  H
  H382     1.0000 0.09770  0.84370  0.43508  Biso   1.000  H
  H383     1.0000 0.09770  0.65630  0.93508  Biso   1.000  H
  H384     1.0000 0.59770  0.15630  0.43508  Biso   1.000  H
  C225     1.0000 0.40220  0.45080  0.07340  Biso   1.000  C
  C226     1.0000 0.90220  0.95080  0.57340  Biso   1.000  C
  C227     1.0000 0.90220  0.54920  0.07340  Biso   1.000  C
  C228     1.0000 0.40220  0.04920  0.57340  Biso   1.000  C
  C229     1.0000 0.59780  0.54920  0.92660  Biso   1.000  C
  C230     1.0000 0.09780  0.04920  0.42660  Biso   1.000  C
  C231     1.0000 0.09780  0.45080  0.92660  Biso   1.000  C
  C232     1.0000 0.59780  0.95080  0.42660  Biso   1.000  C
  C233     1.0000 0.38970  0.36040  0.09168  Biso   1.000  C
  C234     1.0000 0.88970  0.86040  0.59168  Biso   1.000  C
  C235     1.0000 0.88970  0.63960  0.09168  Biso   1.000  C
  C236     1.0000 0.38970  0.13960  0.59168  Biso   1.000  C
  C237     1.0000 0.61030  0.63960  0.90832  Biso   1.000  C
  C238     1.0000 0.11030  0.13960  0.40832  Biso   1.000  C
  C239     1.0000 0.11030  0.36040  0.90832  Biso   1.000  C
  C240     1.0000 0.61030  0.86040  0.40832  Biso   1.000  C
  H385     1.0000 0.39540  0.26330  0.08950  Biso   1.000  H
  H386     1.0000 0.89540  0.76330  0.58950  Biso   1.000  H
  H387     1.0000 0.89540  0.73670  0.08950  Biso   1.000  H
  H388     1.0000 0.39540  0.23670  0.58950  Biso   1.000  H
  H389     1.0000 0.60460  0.73670  0.91050  Biso   1.000  H
  H390     1.0000 0.10460  0.23670  0.41050  Biso   1.000  H
  H391     1.0000 0.10460  0.26330  0.91050  Biso   1.000  H
  H392     1.0000 0.60460  0.76330  0.41050  Biso   1.000  H
  C241     1.0000 0.36840  0.41320  0.11378  Biso   1.000  C
  C242     1.0000 0.86840  0.91320  0.61378  Biso   1.000  C
  C243     1.0000 0.86840  0.58680  0.11378  Biso   1.000  C
  C244     1.0000 0.36840  0.08680  0.61378  Biso   1.000  C
  C245     1.0000 0.63160  0.58680  0.88622  Biso   1.000  C
  C246     1.0000 0.13160  0.08680  0.38622  Biso   1.000  C
  C247     1.0000 0.13160  0.41320  0.88622  Biso   1.000  C
  C248     1.0000 0.63160  0.91320  0.38622  Biso   1.000  C
  H393     1.0000 0.36030  0.35340  0.12655  Biso   1.000  H
  H394     1.0000 0.86030  0.85340  0.62655  Biso   1.000  H
  H395     1.0000 0.86030  0.64660  0.12655  Biso   1.000  H
  H396     1.0000 0.36030  0.14660  0.62655  Biso   1.000  H
  H397     1.0000 0.63970  0.64660  0.87345  Biso   1.000  H
  H398     1.0000 0.13970  0.14660  0.37345  Biso   1.000  H
  H399     1.0000 0.13970  0.35340  0.87345  Biso   1.000  H
  H400     1.0000 0.63970  0.85340  0.37345  Biso   1.000  H
  C249     1.0000 0.36010  0.55680  0.11562  Biso   1.000  C
  C250     1.0000 0.86010  0.05680  0.61562  Biso   1.000  C
  C251     1.0000 0.86010  0.44320  0.11562  Biso   1.000  C
  C252     1.0000 0.36010  0.94320  0.61562  Biso   1.000  C
  C253     1.0000 0.63990  0.44320  0.88438  Biso   1.000  C
  C254     1.0000 0.13990  0.94320  0.38438  Biso   1.000  C
  C255     1.0000 0.13990  0.55680  0.88438  Biso   1.000  C
  C256     1.0000 0.63990  0.05680  0.38438  Biso   1.000  C
  H401     1.0000 0.34520  0.59350  0.13010  Biso   1.000  H
  H402     1.0000 0.84520  0.09350  0.63010  Biso   1.000  H
  H403     1.0000 0.84520  0.40650  0.13010  Biso   1.000  H
  H404     1.0000 0.34520  0.90650  0.63010  Biso   1.000  H
  H405     1.0000 0.65480  0.40650  0.86990  Biso   1.000  H
  H406     1.0000 0.15480  0.90650  0.36990  Biso   1.000  H
  H407     1.0000 0.15480  0.59350  0.86990  Biso   1.000  H
  H408     1.0000 0.65480  0.09350  0.36990  Biso   1.000  H
  C257     1.0000 0.42670  0.39910  0.04965  Biso   1.000  C
  C258     1.0000 0.92670  0.89910  0.54965  Biso   1.000  C
  C259     1.0000 0.92670  0.60090  0.04965  Biso   1.000  C
  C260     1.0000 0.42670  0.10090  0.54965  Biso   1.000  C
  C261     1.0000 0.57330  0.60090  0.95035  Biso   1.000  C
  C262     1.0000 0.07330  0.10090  0.45035  Biso   1.000  C
  C263     1.0000 0.07330  0.39910  0.95035  Biso   1.000  C
  C264     1.0000 0.57330  0.89910  0.45035  Biso   1.000  C
  H409     1.0000 0.42270  0.29660  0.04900  Biso   1.000  H
  H410     1.0000 0.92270  0.79660  0.54900  Biso   1.000  H
  H411     1.0000 0.92270  0.70340  0.04900  Biso   1.000  H
  H412     1.0000 0.42270  0.20340  0.54900  Biso   1.000  H
  H413     1.0000 0.57730  0.70340  0.95100  Biso   1.000  H
  H414     1.0000 0.07730  0.20340  0.45100  Biso   1.000  H
  H415     1.0000 0.07730  0.29660  0.95100  Biso   1.000  H
  H416     1.0000 0.57730  0.79660  0.45100  Biso   1.000  H
  H417     1.0000 0.39110  0.43830  0.03747  Biso   1.000  H
  H418     1.0000 0.89110  0.93830  0.53747  Biso   1.000  H
  H419     1.0000 0.89110  0.56170  0.03747  Biso   1.000  H
  H420     1.0000 0.39110  0.06170  0.53747  Biso   1.000  H
  H421     1.0000 0.60890  0.56170  0.96253  Biso   1.000  H
  H422     1.0000 0.10890  0.06170  0.46253  Biso   1.000  H
  H423     1.0000 0.10890  0.43830  0.96253  Biso   1.000  H
  H424     1.0000 0.60890  0.93830  0.46253  Biso   1.000  H
  O25      1.0000 0.50670  0.44120  0.04569  Biso   1.000  O
  O26      1.0000 0.00670  0.94120  0.54569  Biso   1.000  O
  O27      1.0000 0.00670  0.55880  0.04569  Biso   1.000  O
  O28      1.0000 0.50670  0.05880  0.54569  Biso   1.000  O
  O29      1.0000 0.49330  0.55880  0.95431  Biso   1.000  O
  O30      1.0000 0.99330  0.05880  0.45431  Biso   1.000  O
  O31      1.0000 0.99330  0.44120  0.95431  Biso   1.000  O
  O32      1.0000 0.49330  0.94120  0.45431  Biso   1.000  O
  Si17     1.0000 0.55520  0.43820  0.02135  Biso   1.000  Si
  Si18     1.0000 0.05520  0.93820  0.52135  Biso   1.000  Si
  Si19     1.0000 0.05520  0.56180  0.02135  Biso   1.000  Si
  Si20     1.0000 0.55520  0.06180  0.52135  Biso   1.000  Si
  Si21     1.0000 0.44480  0.56180  0.97865  Biso   1.000  Si
  Si22     1.0000 0.94480  0.06180  0.47865  Biso   1.000  Si
  Si23     1.0000 0.94480  0.43820  0.97865  Biso   1.000  Si
  Si24     1.0000 0.44480  0.93820  0.47865  Biso   1.000  Si
  O33      1.0000 0.50000  0.50000  0.00000  Biso   1.000  O
  O34      1.0000 0.00000  0.00000  0.50000  Biso   1.000  O
  O35      1.0000 0.00000  0.50000  0.00000  Biso   1.000  O
  O36      1.0000 0.50000  0.00000  0.50000  Biso   1.000  O
  C265     1.0000 0.35450  0.45400  0.97530  Biso   1.000  C
  C266     1.0000 0.85450  0.95400  0.47530  Biso   1.000  C
  C267     1.0000 0.85450  0.54600  0.97530  Biso   1.000  C
  C268     1.0000 0.35450  0.04600  0.47530  Biso   1.000  C
  C269     1.0000 0.64550  0.54600  0.02470  Biso   1.000  C
  C270     1.0000 0.14550  0.04600  0.52470  Biso   1.000  C
  C271     1.0000 0.14550  0.45400  0.02470  Biso   1.000  C
  C272     1.0000 0.64550  0.95400  0.52470  Biso   1.000  C
  H425     1.0000 0.31790  0.48120  0.98780  Biso   1.000  H
  H426     1.0000 0.81790  0.98120  0.48780  Biso   1.000  H
  H427     1.0000 0.81790  0.51880  0.98780  Biso   1.000  H
  H428     1.0000 0.31790  0.01880  0.48780  Biso   1.000  H
  H429     1.0000 0.68210  0.51880  0.01220  Biso   1.000  H
  H430     1.0000 0.18210  0.01880  0.51220  Biso   1.000  H
  H431     1.0000 0.18210  0.48120  0.01220  Biso   1.000  H
  H432     1.0000 0.68210  0.98120  0.51220  Biso   1.000  H
  C273     1.0000 0.30990  0.47640  0.95150  Biso   1.000  C
  C274     1.0000 0.80990  0.97640  0.45150  Biso   1.000  C
  C275     1.0000 0.80990  0.52360  0.95150  Biso   1.000  C
  C276     1.0000 0.30990  0.02360  0.45150  Biso   1.000  C
  C277     1.0000 0.69010  0.52360  0.04850  Biso   1.000  C
  C278     1.0000 0.19010  0.02360  0.54850  Biso   1.000  C
  C279     1.0000 0.19010  0.47640  0.04850  Biso   1.000  C
  C280     1.0000 0.69010  0.97640  0.54850  Biso   1.000  C
  H433     1.0000 0.29820  0.57530  0.94940  Biso   1.000  H
  H434     1.0000 0.79820  0.07530  0.44940  Biso   1.000  H
  H435     1.0000 0.79820  0.42470  0.94940  Biso   1.000  H
  H436     1.0000 0.29820  0.92470  0.44940  Biso   1.000  H
  H437     1.0000 0.70180  0.42470  0.05060  Biso   1.000  H
  H438     1.0000 0.20180  0.92470  0.55060  Biso   1.000  H
  H439     1.0000 0.20180  0.57530  0.05060  Biso   1.000  H
  H440     1.0000 0.70180  0.07530  0.55060  Biso   1.000  H
  H441     1.0000 0.34310  0.44430  0.93890  Biso   1.000  H
  H442     1.0000 0.84310  0.94430  0.43890  Biso   1.000  H
  H443     1.0000 0.84310  0.55570  0.93890  Biso   1.000  H
  H444     1.0000 0.34310  0.05570  0.43890  Biso   1.000  H
  H445     1.0000 0.65690  0.55570  0.06110  Biso   1.000  H
  H446     1.0000 0.15690  0.05570  0.56110  Biso   1.000  H
  H447     1.0000 0.15690  0.44430  0.06110  Biso   1.000  H
  H448     1.0000 0.65690  0.94430  0.56110  Biso   1.000  H
  H449     1.0000 0.26060  0.42340  0.95120  Biso   1.000  H
  H450     1.0000 0.76060  0.92340  0.45120  Biso   1.000  H
  H451     1.0000 0.76060  0.57660  0.95120  Biso   1.000  H
  H452     1.0000 0.26060  0.07660  0.45120  Biso   1.000  H
  H453     1.0000 0.73940  0.57660  0.04880  Biso   1.000  H
  H454     1.0000 0.23940  0.07660  0.54880  Biso   1.000  H
  H455     1.0000 0.23940  0.42340  0.04880  Biso   1.000  H
  H456     1.0000 0.73940  0.92340  0.54880  Biso   1.000  H
  C281     1.0000 0.37200  0.29620  0.97800  Biso   1.000  C
  C282     1.0000 0.87200  0.79620  0.47800  Biso   1.000  C
  C283     1.0000 0.87200  0.70380  0.97800  Biso   1.000  C
  C284     1.0000 0.37200  0.20380  0.47800  Biso   1.000  C
  C285     1.0000 0.62800  0.70380  0.02200  Biso   1.000  C
  C286     1.0000 0.12800  0.20380  0.52200  Biso   1.000  C
  C287     1.0000 0.12800  0.29620  0.02200  Biso   1.000  C
  C288     1.0000 0.62800  0.79620  0.52200  Biso   1.000  C
  H457     1.0000 0.39980  0.27950  0.99280  Biso   1.000  H
  H458     1.0000 0.89980  0.77950  0.49280  Biso   1.000  H
  H459     1.0000 0.89980  0.72050  0.99280  Biso   1.000  H
  H460     1.0000 0.39980  0.22050  0.49280  Biso   1.000  H
  H461     1.0000 0.60020  0.72050  0.00720  Biso   1.000  H
  H462     1.0000 0.10020  0.22050  0.50720  Biso   1.000  H
  H463     1.0000 0.10020  0.27950  0.00720  Biso   1.000  H
  H464     1.0000 0.60020  0.77950  0.50720  Biso   1.000  H
  H465     1.0000 0.32220  0.24440  0.97750  Biso   1.000  H
  H466     1.0000 0.82220  0.74440  0.47750  Biso   1.000  H
  H467     1.0000 0.82220  0.75560  0.97750  Biso   1.000  H
  H468     1.0000 0.32220  0.25560  0.47750  Biso   1.000  H
  H469     1.0000 0.67780  0.75560  0.02250  Biso   1.000  H
  H470     1.0000 0.17780  0.25560  0.52250  Biso   1.000  H
  H471     1.0000 0.17780  0.24440  0.02250  Biso   1.000  H
  H472     1.0000 0.67780  0.74440  0.52250  Biso   1.000  H
  H473     1.0000 0.40480  0.26530  0.96530  Biso   1.000  H
  H474     1.0000 0.90480  0.76530  0.46530  Biso   1.000  H
  H475     1.0000 0.90480  0.73470  0.96530  Biso   1.000  H
  H476     1.0000 0.40480  0.23470  0.46530  Biso   1.000  H
  H477     1.0000 0.59520  0.73470  0.03470  Biso   1.000  H
  H478     1.0000 0.09520  0.23470  0.53470  Biso   1.000  H
  H479     1.0000 0.09520  0.26530  0.03470  Biso   1.000  H
  H480     1.0000 0.59520  0.76530  0.53470  Biso   1.000  H
  C289     1.0000 0.62410  0.58640  0.03360  Biso   1.000  C
  C290     1.0000 0.12410  0.08640  0.53360  Biso   1.000  C
  C291     1.0000 0.12410  0.41360  0.03360  Biso   1.000  C
  C292     1.0000 0.62410  0.91360  0.53360  Biso   1.000  C
  C293     1.0000 0.37590  0.41360  0.96640  Biso   1.000  C
  C294     1.0000 0.87590  0.91360  0.46640  Biso   1.000  C
  C295     1.0000 0.87590  0.58640  0.96640  Biso   1.000  C
  C296     1.0000 0.37590  0.08640  0.46640  Biso   1.000  C
  H481     1.0000 0.59010  0.66050  0.04020  Biso   1.000  H
  H482     1.0000 0.09010  0.16050  0.54020  Biso   1.000  H
  H483     1.0000 0.09010  0.33950  0.04020  Biso   1.000  H
  H484     1.0000 0.59010  0.83950  0.54020  Biso   1.000  H
  H485     1.0000 0.40990  0.33950  0.95980  Biso   1.000  H
  H486     1.0000 0.90990  0.83950  0.45980  Biso   1.000  H
  H487     1.0000 0.90990  0.66050  0.95980  Biso   1.000  H
  H488     1.0000 0.40990  0.16050  0.45980  Biso   1.000  H
  C297     1.0000 0.67790  0.52880  0.05320  Biso   1.000  C
  C298     1.0000 0.17790  0.02880  0.55320  Biso   1.000  C
  C299     1.0000 0.17790  0.47120  0.05320  Biso   1.000  C
  C300     1.0000 0.67790  0.97120  0.55320  Biso   1.000  C
  C301     1.0000 0.32210  0.47120  0.94680  Biso   1.000  C
  C302     1.0000 0.82210  0.97120  0.44680  Biso   1.000  C
  C303     1.0000 0.82210  0.52880  0.94680  Biso   1.000  C
  C304     1.0000 0.32210  0.02880  0.44680  Biso   1.000  C
  H489     1.0000 0.64550  0.48760  0.06520  Biso   1.000  H
  H490     1.0000 0.14550  0.98760  0.56520  Biso   1.000  H
  H491     1.0000 0.14550  0.51240  0.06520  Biso   1.000  H
  H492     1.0000 0.64550  0.01240  0.56520  Biso   1.000  H
  H493     1.0000 0.35450  0.51240  0.93480  Biso   1.000  H
  H494     1.0000 0.85450  0.01240  0.43480  Biso   1.000  H
  H495     1.0000 0.85450  0.48760  0.93480  Biso   1.000  H
  H496     1.0000 0.35450  0.98760  0.43480  Biso   1.000  H
  H497     1.0000 0.70970  0.60450  0.05990  Biso   1.000  H
  H498     1.0000 0.20970  0.10450  0.55990  Biso   1.000  H
  H499     1.0000 0.20970  0.39550  0.05990  Biso   1.000  H
  H500     1.0000 0.70970  0.89550  0.55990  Biso   1.000  H
  H501     1.0000 0.29030  0.39550  0.94010  Biso   1.000  H
  H502     1.0000 0.79030  0.89550  0.44010  Biso   1.000  H
  H503     1.0000 0.79030  0.60450  0.94010  Biso   1.000  H
  H504     1.0000 0.29030  0.10450  0.44010  Biso   1.000  H
  H505     1.0000 0.71280  0.45770  0.04700  Biso   1.000  H
  H506     1.0000 0.21280  0.95770  0.54700  Biso   1.000  H
  H507     1.0000 0.21280  0.54230  0.04700  Biso   1.000  H
  H508     1.0000 0.71280  0.04230  0.54700  Biso   1.000  H
  H509     1.0000 0.28720  0.54230  0.95300  Biso   1.000  H
  H510     1.0000 0.78720  0.04230  0.45300  Biso   1.000  H
  H511     1.0000 0.78720  0.45770  0.95300  Biso   1.000  H
  H512     1.0000 0.28720  0.95770  0.45300  Biso   1.000  H
  C305     1.0000 0.67330  0.65170  0.01450  Biso   1.000  C
  C306     1.0000 0.17330  0.15170  0.51450  Biso   1.000  C
  C307     1.0000 0.17330  0.34830  0.01450  Biso   1.000  C
  C308     1.0000 0.67330  0.84830  0.51450  Biso   1.000  C
  C309     1.0000 0.32670  0.34830  0.98550  Biso   1.000  C
  C310     1.0000 0.82670  0.84830  0.48550  Biso   1.000  C
  C311     1.0000 0.82670  0.65170  0.98550  Biso   1.000  C
  C312     1.0000 0.32670  0.15170  0.48550  Biso   1.000  C
  H513     1.0000 0.63810  0.68840  0.00220  Biso   1.000  H
  H514     1.0000 0.13810  0.18840  0.50220  Biso   1.000  H
  H515     1.0000 0.13810  0.31160  0.00220  Biso   1.000  H
  H516     1.0000 0.63810  0.81160  0.50220  Biso   1.000  H
  H517     1.0000 0.36190  0.31160  0.99780  Biso   1.000  H
  H518     1.0000 0.86190  0.81160  0.49780  Biso   1.000  H
  H519     1.0000 0.86190  0.68840  0.99780  Biso   1.000  H
  H520     1.0000 0.36190  0.18840  0.49780  Biso   1.000  H
  H521     1.0000 0.70780  0.58100  0.00800  Biso   1.000  H
  H522     1.0000 0.20780  0.08100  0.50800  Biso   1.000  H
  H523     1.0000 0.20780  0.41900  0.00800  Biso   1.000  H
  H524     1.0000 0.70780  0.91900  0.50800  Biso   1.000  H
  H525     1.0000 0.29220  0.41900  0.99200  Biso   1.000  H
  H526     1.0000 0.79220  0.91900  0.49200  Biso   1.000  H
  H527     1.0000 0.79220  0.58100  0.99200  Biso   1.000  H
  H528     1.0000 0.29220  0.08100  0.49200  Biso   1.000  H
  H529     1.0000 0.70540  0.72740  0.02100  Biso   1.000  H
  H530     1.0000 0.20540  0.22740  0.52100  Biso   1.000  H
  H531     1.0000 0.20540  0.27260  0.02100  Biso   1.000  H
  H532     1.0000 0.70540  0.77260  0.52100  Biso   1.000  H
  H533     1.0000 0.29460  0.27260  0.97900  Biso   1.000  H
  H534     1.0000 0.79460  0.77260  0.47900  Biso   1.000  H
  H535     1.0000 0.79460  0.72740  0.97900  Biso   1.000  H
  H536     1.0000 0.29460  0.22740  0.47900  Biso   1.000  H
  C313     1.0000 0.43680  0.75440  0.98840  Biso   1.000  C
  C314     1.0000 0.93680  0.25440  0.48840  Biso   1.000  C
  C315     1.0000 0.93680  0.24560  0.98840  Biso   1.000  C
  C316     1.0000 0.43680  0.74560  0.48840  Biso   1.000  C
  C317     1.0000 0.56320  0.24560  0.01160  Biso   1.000  C
  C318     1.0000 0.06320  0.74560  0.51160  Biso   1.000  C
  C319     1.0000 0.06320  0.75440  0.01160  Biso   1.000  C
  C320     1.0000 0.56320  0.25440  0.51160  Biso   1.000  C
  H537     1.0000 0.49210  0.79050  0.98920  Biso   1.000  H
  H538     1.0000 0.99210  0.29050  0.48920  Biso   1.000  H
  H539     1.0000 0.99210  0.20950  0.98920  Biso   1.000  H
  H540     1.0000 0.49210  0.70950  0.48920  Biso   1.000  H
  H541     1.0000 0.50790  0.20950  0.01080  Biso   1.000  H
  H542     1.0000 0.00790  0.70950  0.51080  Biso   1.000  H
  H543     1.0000 0.00790  0.79050  0.01080  Biso   1.000  H
  H544     1.0000 0.50790  0.29050  0.51080  Biso   1.000  H
  C321     1.0000 0.40500  0.77550  0.01200  Biso   1.000  C
  C322     1.0000 0.90500  0.27550  0.51200  Biso   1.000  C
  C323     1.0000 0.90500  0.22450  0.01200  Biso   1.000  C
  C324     1.0000 0.40500  0.72450  0.51200  Biso   1.000  C
  C325     1.0000 0.59500  0.22450  0.98800  Biso   1.000  C
  C326     1.0000 0.09500  0.72450  0.48800  Biso   1.000  C
  C327     1.0000 0.09500  0.77550  0.98800  Biso   1.000  C
  C328     1.0000 0.59500  0.27550  0.48800  Biso   1.000  C
  H545     1.0000 0.43470  0.71790  0.02320  Biso   1.000  H
  H546     1.0000 0.93470  0.21790  0.52320  Biso   1.000  H
  H547     1.0000 0.93470  0.28210  0.02320  Biso   1.000  H
  H548     1.0000 0.43470  0.78210  0.52320  Biso   1.000  H
  H549     1.0000 0.56530  0.28210  0.97680  Biso   1.000  H
  H550     1.0000 0.06530  0.78210  0.47680  Biso   1.000  H
  H551     1.0000 0.06530  0.71790  0.97680  Biso   1.000  H
  H552     1.0000 0.56530  0.21790  0.47680  Biso   1.000  H
  H553     1.0000 0.41030  0.87350  0.01640  Biso   1.000  H
  H554     1.0000 0.91030  0.37350  0.51640  Biso   1.000  H
  H555     1.0000 0.91030  0.12650  0.01640  Biso   1.000  H
  H556     1.0000 0.41030  0.62650  0.51640  Biso   1.000  H
  H557     1.0000 0.58970  0.12650  0.98360  Biso   1.000  H
  H558     1.0000 0.08970  0.62650  0.48360  Biso   1.000  H
  H559     1.0000 0.08970  0.87350  0.98360  Biso   1.000  H
  H560     1.0000 0.58970  0.37350  0.48360  Biso   1.000  H
  H561     1.0000 0.34930  0.74900  0.01200  Biso   1.000  H
  H562     1.0000 0.84930  0.24900  0.51200  Biso   1.000  H
  H563     1.0000 0.84930  0.25100  0.01200  Biso   1.000  H
  H564     1.0000 0.34930  0.75100  0.51200  Biso   1.000  H
  H565     1.0000 0.65070  0.25100  0.98800  Biso   1.000  H
  H566     1.0000 0.15070  0.75100  0.48800  Biso   1.000  H
  H567     1.0000 0.15070  0.74900  0.98800  Biso   1.000  H
  H568     1.0000 0.65070  0.24900  0.48800  Biso   1.000  H
  C329     1.0000 0.39420  0.84020  0.96970  Biso   1.000  C
  C330     1.0000 0.89420  0.34020  0.46970  Biso   1.000  C
  C331     1.0000 0.89420  0.15980  0.96970  Biso   1.000  C
  C332     1.0000 0.39420  0.65980  0.46970  Biso   1.000  C
  C333     1.0000 0.60580  0.15980  0.03030  Biso   1.000  C
  C334     1.0000 0.10580  0.65980  0.53030  Biso   1.000  C
  C335     1.0000 0.10580  0.84020  0.03030  Biso   1.000  C
  C336     1.0000 0.60580  0.34020  0.53030  Biso   1.000  C
  H569     1.0000 0.41760  0.82190  0.95470  Biso   1.000  H
  H570     1.0000 0.91760  0.32190  0.45470  Biso   1.000  H
  H571     1.0000 0.91760  0.17810  0.95470  Biso   1.000  H
  H572     1.0000 0.41760  0.67810  0.45470  Biso   1.000  H
  H573     1.0000 0.58240  0.17810  0.04530  Biso   1.000  H
  H574     1.0000 0.08240  0.67810  0.54530  Biso   1.000  H
  H575     1.0000 0.08240  0.82190  0.04530  Biso   1.000  H
  H576     1.0000 0.58240  0.32190  0.54530  Biso   1.000  H
  H577     1.0000 0.33830  0.81460  0.96900  Biso   1.000  H
  H578     1.0000 0.83830  0.31460  0.46900  Biso   1.000  H
  H579     1.0000 0.83830  0.18540  0.96900  Biso   1.000  H
  H580     1.0000 0.33830  0.68540  0.46900  Biso   1.000  H
  H581     1.0000 0.66170  0.18540  0.03100  Biso   1.000  H
  H582     1.0000 0.16170  0.68540  0.53100  Biso   1.000  H
  H583     1.0000 0.16170  0.81460  0.03100  Biso   1.000  H
  H584     1.0000 0.66170  0.31460  0.53100  Biso   1.000  H
  H585     1.0000 0.39930  0.93920  0.97340  Biso   1.000  H
  H586     1.0000 0.89930  0.43920  0.47340  Biso   1.000  H
  H587     1.0000 0.89930  0.06080  0.97340  Biso   1.000  H
  H588     1.0000 0.39930  0.56080  0.47340  Biso   1.000  H
  H589     1.0000 0.60070  0.06080  0.02660  Biso   1.000  H
  H590     1.0000 0.10070  0.56080  0.52660  Biso   1.000  H
  H591     1.0000 0.10070  0.93920  0.02660  Biso   1.000  H
  H592     1.0000 0.60070  0.43920  0.52660  Biso   1.000  H
  C337     1.0000 0.61370  0.26760  0.01800  Biso   1.000  C
  C338     1.0000 0.11370  0.76760  0.51800  Biso   1.000  C
  C339     1.0000 0.11370  0.73240  0.01800  Biso   1.000  C
  C340     1.0000 0.61370  0.23240  0.51800  Biso   1.000  C
  C341     1.0000 0.38630  0.73240  0.98200  Biso   1.000  C
  C342     1.0000 0.88630  0.23240  0.48200  Biso   1.000  C
  C343     1.0000 0.88630  0.26760  0.98200  Biso   1.000  C
  C344     1.0000 0.38630  0.76760  0.48200  Biso   1.000  C
  H593     1.0000 0.65330  0.25800  0.03110  Biso   1.000  H
  H594     1.0000 0.15330  0.75800  0.53110  Biso   1.000  H
  H595     1.0000 0.15330  0.74200  0.03110  Biso   1.000  H
  H596     1.0000 0.65330  0.24200  0.53110  Biso   1.000  H
  H597     1.0000 0.34670  0.74200  0.96890  Biso   1.000  H
  H598     1.0000 0.84670  0.24200  0.46890  Biso   1.000  H
  H599     1.0000 0.84670  0.25800  0.96890  Biso   1.000  H
  H600     1.0000 0.34670  0.75800  0.46890  Biso   1.000  H
  C345     1.0000 0.65570  0.26780  0.99490  Biso   1.000  C
  C346     1.0000 0.15570  0.76780  0.49490  Biso   1.000  C
  C347     1.0000 0.15570  0.73220  0.99490  Biso   1.000  C
  C348     1.0000 0.65570  0.23220  0.49490  Biso   1.000  C
  C349     1.0000 0.34430  0.73220  0.00510  Biso   1.000  C
  C350     1.0000 0.84430  0.23220  0.50510  Biso   1.000  C
  C351     1.0000 0.84430  0.26780  0.00510  Biso   1.000  C
  C352     1.0000 0.34430  0.76780  0.50510  Biso   1.000  C
  H601     1.0000 0.69340  0.34490  0.99460  Biso   1.000  H
  H602     1.0000 0.19340  0.84490  0.49460  Biso   1.000  H
  H603     1.0000 0.19340  0.65510  0.99460  Biso   1.000  H
  H604     1.0000 0.69340  0.15510  0.49460  Biso   1.000  H
  H605     1.0000 0.30660  0.65510  0.00540  Biso   1.000  H
  H606     1.0000 0.80660  0.15510  0.50540  Biso   1.000  H
  H607     1.0000 0.80660  0.34490  0.00540  Biso   1.000  H
  H608     1.0000 0.30660  0.84490  0.50540  Biso   1.000  H
  H609     1.0000 0.61680  0.27880  0.98220  Biso   1.000  H
  H610     1.0000 0.11680  0.77880  0.48220  Biso   1.000  H
  H611     1.0000 0.11680  0.72120  0.98220  Biso   1.000  H
  H612     1.0000 0.61680  0.22120  0.48220  Biso   1.000  H
  H613     1.0000 0.38320  0.72120  0.01780  Biso   1.000  H
  H614     1.0000 0.88320  0.22120  0.51780  Biso   1.000  H
  H615     1.0000 0.88320  0.27880  0.01780  Biso   1.000  H
  H616     1.0000 0.38320  0.77880  0.51780  Biso   1.000  H
  H617     1.0000 0.68390  0.17980  0.99300  Biso   1.000  H
  H618     1.0000 0.18390  0.67980  0.49300  Biso   1.000  H
  H619     1.0000 0.18390  0.82020  0.99300  Biso   1.000  H
  H620     1.0000 0.68390  0.32020  0.49300  Biso   1.000  H
  H621     1.0000 0.31610  0.82020  0.00700  Biso   1.000  H
  H622     1.0000 0.81610  0.32020  0.50700  Biso   1.000  H
  H623     1.0000 0.81610  0.17980  0.00700  Biso   1.000  H
  H624     1.0000 0.31610  0.67980  0.50700  Biso   1.000  H
  C353     1.0000 0.55280  0.14320  0.01860  Biso   1.000  C
  C354     1.0000 0.05280  0.64320  0.51860  Biso   1.000  C
  C355     1.0000 0.05280  0.85680  0.01860  Biso   1.000  C
  C356     1.0000 0.55280  0.35680  0.51860  Biso   1.000  C
  C357     1.0000 0.44720  0.85680  0.98140  Biso   1.000  C
  C358     1.0000 0.94720  0.35680  0.48140  Biso   1.000  C
  C359     1.0000 0.94720  0.14320  0.98140  Biso   1.000  C
  C360     1.0000 0.44720  0.64320  0.48140  Biso   1.000  C
  H625     1.0000 0.52610  0.14340  0.03340  Biso   1.000  H
  H626     1.0000 0.02610  0.64340  0.53340  Biso   1.000  H
  H627     1.0000 0.02610  0.85660  0.03340  Biso   1.000  H
  H628     1.0000 0.52610  0.35660  0.53340  Biso   1.000  H
  H629     1.0000 0.47390  0.85660  0.96660  Biso   1.000  H
  H630     1.0000 0.97390  0.35660  0.46660  Biso   1.000  H
  H631     1.0000 0.97390  0.14340  0.96660  Biso   1.000  H
  H632     1.0000 0.47390  0.64340  0.46660  Biso   1.000  H
  H633     1.0000 0.58090  0.05510  0.01670  Biso   1.000  H
  H634     1.0000 0.08090  0.55510  0.51670  Biso   1.000  H
  H635     1.0000 0.08090  0.94490  0.01670  Biso   1.000  H
  H636     1.0000 0.58090  0.44490  0.51670  Biso   1.000  H
  H637     1.0000 0.41910  0.94490  0.98330  Biso   1.000  H
  H638     1.0000 0.91910  0.44490  0.48330  Biso   1.000  H
  H639     1.0000 0.91910  0.05510  0.98330  Biso   1.000  H
  H640     1.0000 0.41910  0.55510  0.48330  Biso   1.000  H
  H641     1.0000 0.51370  0.15420  0.00590  Biso   1.000  H
  H642     1.0000 0.01370  0.65420  0.50590  Biso   1.000  H
  H643     1.0000 0.01370  0.84580  0.00590  Biso   1.000  H
  H644     1.0000 0.51370  0.34580  0.50590  Biso   1.000  H
  H645     1.0000 0.48630  0.84580  0.99410  Biso   1.000  H
  H646     1.0000 0.98630  0.34580  0.49410  Biso   1.000  H
  H647     1.0000 0.98630  0.15420  0.99410  Biso   1.000  H
  H648     1.0000 0.48630  0.65420  0.49410  Biso   1.000  H
