data_image0
_cell_length_a       19.1842
_cell_length_b       43.462
_cell_length_c       15.4484
_cell_angle_alpha    90
_cell_angle_beta     90
_cell_angle_gamma    90

_symmetry_space_group_name_H-M    "P 1"
_symmetry_int_tables_number       1

loop_
  _symmetry_equiv_pos_as_xyz
  'x, y, z'

loop_
  _atom_site_label
  _atom_site_occupancy
  _atom_site_fract_x
  _atom_site_fract_y
  _atom_site_fract_z
  _atom_site_thermal_displace_type
  _atom_site_B_iso_or_equiv
  _atom_site_type_symbol
  Cu1      1.0000 0.91596  0.09766  0.63702  Biso   1.000  Cu
  Cu2      1.0000 0.08404  0.90234  0.63702  Biso   1.000  Cu
  Cu3      1.0000 0.16596  0.15234  0.88702  Biso   1.000  Cu
  Cu4      1.0000 0.33404  0.34766  0.88702  Biso   1.000  Cu
  Cu5      1.0000 0.91596  0.59766  0.13702  Biso   1.000  Cu
  Cu6      1.0000 0.08404  0.40234  0.13702  Biso   1.000  Cu
  Cu7      1.0000 0.16596  0.65234  0.38702  Biso   1.000  Cu
  Cu8      1.0000 0.33404  0.84766  0.38702  Biso   1.000  Cu
  Cu9      1.0000 0.41596  0.09766  0.13702  Biso   1.000  Cu
  Cu10     1.0000 0.58404  0.90234  0.13702  Biso   1.000  Cu
  Cu11     1.0000 0.66596  0.15234  0.38702  Biso   1.000  Cu
  Cu12     1.0000 0.83404  0.34766  0.38702  Biso   1.000  Cu
  Cu13     1.0000 0.41596  0.59766  0.63702  Biso   1.000  Cu
  Cu14     1.0000 0.58404  0.40234  0.63702  Biso   1.000  Cu
  Cu15     1.0000 0.66596  0.65234  0.88702  Biso   1.000  Cu
  Cu16     1.0000 0.83404  0.84766  0.88702  Biso   1.000  Cu
  Cu17     1.0000 0.28767  0.91428  0.42908  Biso   1.000  Cu
  Cu18     1.0000 0.71233  0.08572  0.42908  Biso   1.000  Cu
  Cu19     1.0000 0.53767  0.33572  0.67908  Biso   1.000  Cu
  Cu20     1.0000 0.96233  0.16428  0.67908  Biso   1.000  Cu
  Cu21     1.0000 0.28767  0.41428  0.92908  Biso   1.000  Cu
  Cu22     1.0000 0.71233  0.58572  0.92908  Biso   1.000  Cu
  Cu23     1.0000 0.53767  0.83572  0.17908  Biso   1.000  Cu
  Cu24     1.0000 0.96233  0.66428  0.17908  Biso   1.000  Cu
  Cu25     1.0000 0.78767  0.91428  0.92908  Biso   1.000  Cu
  Cu26     1.0000 0.21233  0.08572  0.92908  Biso   1.000  Cu
  Cu27     1.0000 0.03767  0.33572  0.17908  Biso   1.000  Cu
  Cu28     1.0000 0.46233  0.16428  0.17908  Biso   1.000  Cu
  Cu29     1.0000 0.78767  0.41428  0.42908  Biso   1.000  Cu
  Cu30     1.0000 0.21233  0.58572  0.42908  Biso   1.000  Cu
  Cu31     1.0000 0.03767  0.83572  0.67908  Biso   1.000  Cu
  Cu32     1.0000 0.46233  0.66428  0.67908  Biso   1.000  Cu
  N1       1.0000 0.98600  0.06551  0.60130  Biso   1.000  N
  N2       1.0000 0.01400  0.93449  0.60130  Biso   1.000  N
  N3       1.0000 0.23600  0.18449  0.85130  Biso   1.000  N
  N4       1.0000 0.26400  0.31551  0.85130  Biso   1.000  N
  N5       1.0000 0.98600  0.56551  0.10130  Biso   1.000  N
  N6       1.0000 0.01400  0.43449  0.10130  Biso   1.000  N
  N7       1.0000 0.23600  0.68449  0.35130  Biso   1.000  N
  N8       1.0000 0.26400  0.81551  0.35130  Biso   1.000  N
  N9       1.0000 0.48600  0.06551  0.10130  Biso   1.000  N
  N10      1.0000 0.51400  0.93449  0.10130  Biso   1.000  N
  N11      1.0000 0.73600  0.18449  0.35130  Biso   1.000  N
  N12      1.0000 0.76400  0.31551  0.35130  Biso   1.000  N
  N13      1.0000 0.48600  0.56551  0.60130  Biso   1.000  N
  N14      1.0000 0.51400  0.43449  0.60130  Biso   1.000  N
  N15      1.0000 0.73600  0.68449  0.85130  Biso   1.000  N
  N16      1.0000 0.76400  0.81551  0.85130  Biso   1.000  N
  N17      1.0000 0.22010  0.94914  0.46480  Biso   1.000  N
  N18      1.0000 0.77990  0.05086  0.46480  Biso   1.000  N
  N19      1.0000 0.47010  0.30086  0.71480  Biso   1.000  N
  N20      1.0000 0.02990  0.19914  0.71480  Biso   1.000  N
  N21      1.0000 0.22010  0.44914  0.96480  Biso   1.000  N
  N22      1.0000 0.77990  0.55086  0.96480  Biso   1.000  N
  N23      1.0000 0.47010  0.80086  0.21480  Biso   1.000  N
  N24      1.0000 0.02990  0.69914  0.21480  Biso   1.000  N
  N25      1.0000 0.72010  0.94914  0.96480  Biso   1.000  N
  N26      1.0000 0.27990  0.05086  0.96480  Biso   1.000  N
  N27      1.0000 0.97010  0.30086  0.21480  Biso   1.000  N
  N28      1.0000 0.52990  0.19914  0.21480  Biso   1.000  N
  N29      1.0000 0.72010  0.44914  0.46480  Biso   1.000  N
  N30      1.0000 0.27990  0.55086  0.46480  Biso   1.000  N
  N31      1.0000 0.97010  0.80086  0.71480  Biso   1.000  N
  N32      1.0000 0.52990  0.69914  0.71480  Biso   1.000  N
  N33      1.0000 0.36560  0.94439  0.44720  Biso   1.000  N
  N34      1.0000 0.63440  0.05561  0.44720  Biso   1.000  N
  N35      1.0000 0.61560  0.30561  0.69720  Biso   1.000  N
  N36      1.0000 0.88440  0.19439  0.69720  Biso   1.000  N
  N37      1.0000 0.36560  0.44439  0.94720  Biso   1.000  N
  N38      1.0000 0.63440  0.55561  0.94720  Biso   1.000  N
  N39      1.0000 0.61560  0.80561  0.19720  Biso   1.000  N
  N40      1.0000 0.88440  0.69439  0.19720  Biso   1.000  N
  N41      1.0000 0.86560  0.94439  0.94720  Biso   1.000  N
  N42      1.0000 0.13440  0.05561  0.94720  Biso   1.000  N
  N43      1.0000 0.11560  0.30561  0.19720  Biso   1.000  N
  N44      1.0000 0.38440  0.19439  0.19720  Biso   1.000  N
  N45      1.0000 0.86560  0.44439  0.44720  Biso   1.000  N
  N46      1.0000 0.13440  0.55561  0.44720  Biso   1.000  N
  N47      1.0000 0.11560  0.80561  0.69720  Biso   1.000  N
  N48      1.0000 0.38440  0.69439  0.69720  Biso   1.000  N
  O1       1.0000 0.92500  0.15978  0.55620  Biso   1.000  O
  O2       1.0000 0.07500  0.84022  0.55620  Biso   1.000  O
  O3       1.0000 0.17500  0.09022  0.80620  Biso   1.000  O
  O4       1.0000 0.32500  0.40978  0.80620  Biso   1.000  O
  O5       1.0000 0.92500  0.65978  0.05620  Biso   1.000  O
  O6       1.0000 0.07500  0.34022  0.05620  Biso   1.000  O
  O7       1.0000 0.17500  0.59022  0.30620  Biso   1.000  O
  O8       1.0000 0.32500  0.90978  0.30620  Biso   1.000  O
  O9       1.0000 0.42500  0.15978  0.05620  Biso   1.000  O
  O10      1.0000 0.57500  0.84022  0.05620  Biso   1.000  O
  O11      1.0000 0.67500  0.09022  0.30620  Biso   1.000  O
  O12      1.0000 0.82500  0.40978  0.30620  Biso   1.000  O
  O13      1.0000 0.42500  0.65978  0.55620  Biso   1.000  O
  O14      1.0000 0.57500  0.34022  0.55620  Biso   1.000  O
  O15      1.0000 0.67500  0.59022  0.80620  Biso   1.000  O
  O16      1.0000 0.82500  0.90978  0.80620  Biso   1.000  O
  O17      1.0000 0.91090  0.11086  0.51590  Biso   1.000  O
  O18      1.0000 0.08910  0.88914  0.51590  Biso   1.000  O
  O19      1.0000 0.16090  0.13914  0.76590  Biso   1.000  O
  O20      1.0000 0.33910  0.36086  0.76590  Biso   1.000  O
  O21      1.0000 0.91090  0.61086  0.01590  Biso   1.000  O
  O22      1.0000 0.08910  0.38914  0.01590  Biso   1.000  O
  O23      1.0000 0.16090  0.63914  0.26590  Biso   1.000  O
  O24      1.0000 0.33910  0.86086  0.26590  Biso   1.000  O
  O25      1.0000 0.41090  0.11086  0.01590  Biso   1.000  O
  O26      1.0000 0.58910  0.88914  0.01590  Biso   1.000  O
  O27      1.0000 0.66090  0.13914  0.26590  Biso   1.000  O
  O28      1.0000 0.83910  0.36086  0.26590  Biso   1.000  O
  O29      1.0000 0.41090  0.61086  0.51590  Biso   1.000  O
  O30      1.0000 0.58910  0.38914  0.51590  Biso   1.000  O
  O31      1.0000 0.66090  0.63914  0.76590  Biso   1.000  O
  O32      1.0000 0.83910  0.86086  0.76590  Biso   1.000  O
  O33      1.0000 0.78275  0.11691  0.40610  Biso   1.000  O
  O34      1.0000 0.21725  0.88309  0.40610  Biso   1.000  O
  O35      1.0000 0.03275  0.13309  0.65610  Biso   1.000  O
  O36      1.0000 0.46725  0.36691  0.65610  Biso   1.000  O
  O37      1.0000 0.78275  0.61691  0.90610  Biso   1.000  O
  O38      1.0000 0.21725  0.38309  0.90610  Biso   1.000  O
  O39      1.0000 0.03275  0.63309  0.15610  Biso   1.000  O
  O40      1.0000 0.46725  0.86691  0.15610  Biso   1.000  O
  O41      1.0000 0.28275  0.11691  0.90610  Biso   1.000  O
  O42      1.0000 0.71725  0.88309  0.90610  Biso   1.000  O
  O43      1.0000 0.53275  0.13309  0.15610  Biso   1.000  O
  O44      1.0000 0.96725  0.36691  0.15610  Biso   1.000  O
  O45      1.0000 0.28275  0.61691  0.40610  Biso   1.000  O
  O46      1.0000 0.71725  0.38309  0.40610  Biso   1.000  O
  O47      1.0000 0.53275  0.63309  0.65610  Biso   1.000  O
  O48      1.0000 0.96725  0.86691  0.65610  Biso   1.000  O
  O49      1.0000 0.83700  0.08883  0.30570  Biso   1.000  O
  O50      1.0000 0.16300  0.91117  0.30570  Biso   1.000  O
  O51      1.0000 0.08700  0.16117  0.55570  Biso   1.000  O
  O52      1.0000 0.41300  0.33883  0.55570  Biso   1.000  O
  O53      1.0000 0.83700  0.58883  0.80570  Biso   1.000  O
  O54      1.0000 0.16300  0.41117  0.80570  Biso   1.000  O
  O55      1.0000 0.08700  0.66117  0.05570  Biso   1.000  O
  O56      1.0000 0.41300  0.83883  0.05570  Biso   1.000  O
  O57      1.0000 0.33700  0.08883  0.80570  Biso   1.000  O
  O58      1.0000 0.66300  0.91117  0.80570  Biso   1.000  O
  O59      1.0000 0.58700  0.16117  0.05570  Biso   1.000  O
  O60      1.0000 0.91300  0.33883  0.05570  Biso   1.000  O
  O61      1.0000 0.33700  0.58883  0.30570  Biso   1.000  O
  O62      1.0000 0.66300  0.41117  0.30570  Biso   1.000  O
  O63      1.0000 0.58700  0.66117  0.55570  Biso   1.000  O
  O64      1.0000 0.91300  0.83883  0.55570  Biso   1.000  O
  O65      1.0000 0.27550  0.08391  0.23950  Biso   1.000  O
  O66      1.0000 0.72450  0.91609  0.23950  Biso   1.000  O
  O67      1.0000 0.52550  0.16609  0.48950  Biso   1.000  O
  O68      1.0000 0.97450  0.33391  0.48950  Biso   1.000  O
  O69      1.0000 0.27550  0.58391  0.73950  Biso   1.000  O
  O70      1.0000 0.72450  0.41609  0.73950  Biso   1.000  O
  O71      1.0000 0.52550  0.66609  0.98950  Biso   1.000  O
  O72      1.0000 0.97450  0.83391  0.98950  Biso   1.000  O
  O73      1.0000 0.77550  0.08391  0.73950  Biso   1.000  O
  O74      1.0000 0.22450  0.91609  0.73950  Biso   1.000  O
  O75      1.0000 0.02550  0.16609  0.98950  Biso   1.000  O
  O76      1.0000 0.47450  0.33391  0.98950  Biso   1.000  O
  O77      1.0000 0.77550  0.58391  0.23950  Biso   1.000  O
  O78      1.0000 0.22450  0.41609  0.23950  Biso   1.000  O
  O79      1.0000 0.02550  0.66609  0.48950  Biso   1.000  O
  O80      1.0000 0.47450  0.83391  0.48950  Biso   1.000  O
  O81      1.0000 0.33014  0.11946  0.15920  Biso   1.000  O
  O82      1.0000 0.66986  0.88054  0.15920  Biso   1.000  O
  O83      1.0000 0.58014  0.13054  0.40920  Biso   1.000  O
  O84      1.0000 0.91986  0.36946  0.40920  Biso   1.000  O
  O85      1.0000 0.33014  0.61946  0.65920  Biso   1.000  O
  O86      1.0000 0.66986  0.38054  0.65920  Biso   1.000  O
  O87      1.0000 0.58014  0.63054  0.90920  Biso   1.000  O
  O88      1.0000 0.91986  0.86946  0.90920  Biso   1.000  O
  O89      1.0000 0.83014  0.11946  0.65920  Biso   1.000  O
  O90      1.0000 0.16986  0.88054  0.65920  Biso   1.000  O
  O91      1.0000 0.08014  0.13054  0.90920  Biso   1.000  O
  O92      1.0000 0.41986  0.36946  0.90920  Biso   1.000  O
  O93      1.0000 0.83014  0.61946  0.15920  Biso   1.000  O
  O94      1.0000 0.16986  0.38054  0.15920  Biso   1.000  O
  O95      1.0000 0.08014  0.63054  0.40920  Biso   1.000  O
  O96      1.0000 0.41986  0.86946  0.40920  Biso   1.000  O
  O97      1.0000 0.19350  0.10862  0.04760  Biso   1.000  O
  O98      1.0000 0.80650  0.89138  0.04760  Biso   1.000  O
  O99      1.0000 0.44350  0.14138  0.29760  Biso   1.000  O
  O100     1.0000 0.05650  0.35862  0.29760  Biso   1.000  O
  O101     1.0000 0.19350  0.60862  0.54760  Biso   1.000  O
  O102     1.0000 0.80650  0.39138  0.54760  Biso   1.000  O
  O103     1.0000 0.44350  0.64138  0.79760  Biso   1.000  O
  O104     1.0000 0.05650  0.85862  0.79760  Biso   1.000  O
  O105     1.0000 0.69350  0.10862  0.54760  Biso   1.000  O
  O106     1.0000 0.30650  0.89138  0.54760  Biso   1.000  O
  O107     1.0000 0.94350  0.14138  0.79760  Biso   1.000  O
  O108     1.0000 0.55650  0.35862  0.79760  Biso   1.000  O
  O109     1.0000 0.69350  0.60862  0.04760  Biso   1.000  O
  O110     1.0000 0.30650  0.39138  0.04760  Biso   1.000  O
  O111     1.0000 0.94350  0.64138  0.29760  Biso   1.000  O
  O112     1.0000 0.55650  0.85862  0.29760  Biso   1.000  O
  O113     1.0000 0.18550  0.15842  0.00910  Biso   1.000  O
  O114     1.0000 0.81450  0.84158  0.00910  Biso   1.000  O
  O115     1.0000 0.43550  0.09158  0.25910  Biso   1.000  O
  O116     1.0000 0.06450  0.40842  0.25910  Biso   1.000  O
  O117     1.0000 0.18550  0.65842  0.50910  Biso   1.000  O
  O118     1.0000 0.81450  0.34158  0.50910  Biso   1.000  O
  O119     1.0000 0.43550  0.59158  0.75910  Biso   1.000  O
  O120     1.0000 0.06450  0.90842  0.75910  Biso   1.000  O
  O121     1.0000 0.68550  0.15842  0.50910  Biso   1.000  O
  O122     1.0000 0.31450  0.84158  0.50910  Biso   1.000  O
  O123     1.0000 0.93550  0.09158  0.75910  Biso   1.000  O
  O124     1.0000 0.56450  0.40842  0.75910  Biso   1.000  O
  O125     1.0000 0.68550  0.65842  0.00910  Biso   1.000  O
  O126     1.0000 0.31450  0.34158  0.00910  Biso   1.000  O
  O127     1.0000 0.93550  0.59158  0.25910  Biso   1.000  O
  O128     1.0000 0.56450  0.90842  0.25910  Biso   1.000  O
  O129     1.0000 0.04570  0.22237  0.21120  Biso   1.000  O
  O130     1.0000 0.95430  0.77763  0.21120  Biso   1.000  O
  O131     1.0000 0.29570  0.02763  0.46120  Biso   1.000  O
  O132     1.0000 0.20430  0.47237  0.46120  Biso   1.000  O
  O133     1.0000 0.04570  0.72237  0.71120  Biso   1.000  O
  O134     1.0000 0.95430  0.27763  0.71120  Biso   1.000  O
  O135     1.0000 0.29570  0.52763  0.96120  Biso   1.000  O
  O136     1.0000 0.20430  0.97237  0.96120  Biso   1.000  O
  O137     1.0000 0.54570  0.22237  0.71120  Biso   1.000  O
  O138     1.0000 0.45430  0.77763  0.71120  Biso   1.000  O
  O139     1.0000 0.79570  0.02763  0.96120  Biso   1.000  O
  O140     1.0000 0.70430  0.47237  0.96120  Biso   1.000  O
  O141     1.0000 0.54570  0.72237  0.21120  Biso   1.000  O
  O142     1.0000 0.45430  0.27763  0.21120  Biso   1.000  O
  O143     1.0000 0.79570  0.52763  0.46120  Biso   1.000  O
  O144     1.0000 0.70430  0.97237  0.46120  Biso   1.000  O
  O145     1.0000 0.07750  0.22003  0.36580  Biso   1.000  O
  O146     1.0000 0.92250  0.77997  0.36580  Biso   1.000  O
  O147     1.0000 0.32750  0.02997  0.61580  Biso   1.000  O
  O148     1.0000 0.17250  0.47003  0.61580  Biso   1.000  O
  O149     1.0000 0.07750  0.72003  0.86580  Biso   1.000  O
  O150     1.0000 0.92250  0.27997  0.86580  Biso   1.000  O
  O151     1.0000 0.32750  0.52997  0.11580  Biso   1.000  O
  O152     1.0000 0.17250  0.97003  0.11580  Biso   1.000  O
  O153     1.0000 0.57750  0.22003  0.86580  Biso   1.000  O
  O154     1.0000 0.42250  0.77997  0.86580  Biso   1.000  O
  O155     1.0000 0.82750  0.02997  0.11580  Biso   1.000  O
  O156     1.0000 0.67250  0.47003  0.11580  Biso   1.000  O
  O157     1.0000 0.57750  0.72003  0.36580  Biso   1.000  O
  O158     1.0000 0.42250  0.27997  0.36580  Biso   1.000  O
  O159     1.0000 0.82750  0.52997  0.61580  Biso   1.000  O
  O160     1.0000 0.67250  0.97003  0.61580  Biso   1.000  O
  O161     1.0000 0.05280  0.22800  0.02860  Biso   1.000  O
  O162     1.0000 0.94720  0.77200  0.02860  Biso   1.000  O
  O163     1.0000 0.30280  0.02200  0.27860  Biso   1.000  O
  O164     1.0000 0.19720  0.47800  0.27860  Biso   1.000  O
  O165     1.0000 0.05280  0.72800  0.52860  Biso   1.000  O
  O166     1.0000 0.94720  0.27200  0.52860  Biso   1.000  O
  O167     1.0000 0.30280  0.52200  0.77860  Biso   1.000  O
  O168     1.0000 0.19720  0.97800  0.77860  Biso   1.000  O
  O169     1.0000 0.55280  0.22800  0.52860  Biso   1.000  O
  O170     1.0000 0.44720  0.77200  0.52860  Biso   1.000  O
  O171     1.0000 0.80280  0.02200  0.77860  Biso   1.000  O
  O172     1.0000 0.69720  0.47800  0.77860  Biso   1.000  O
  O173     1.0000 0.55280  0.72800  0.02860  Biso   1.000  O
  O174     1.0000 0.44720  0.27200  0.02860  Biso   1.000  O
  O175     1.0000 0.80280  0.52200  0.27860  Biso   1.000  O
  O176     1.0000 0.69720  0.97800  0.27860  Biso   1.000  O
  O177     1.0000 0.71850  0.19210  0.04420  Biso   1.000  O
  O178     1.0000 0.28150  0.80790  0.04420  Biso   1.000  O
  O179     1.0000 0.96850  0.05790  0.29420  Biso   1.000  O
  O180     1.0000 0.53150  0.44210  0.29420  Biso   1.000  O
  O181     1.0000 0.71850  0.69210  0.54420  Biso   1.000  O
  O182     1.0000 0.28150  0.30790  0.54420  Biso   1.000  O
  O183     1.0000 0.96850  0.55790  0.79420  Biso   1.000  O
  O184     1.0000 0.53150  0.94210  0.79420  Biso   1.000  O
  O185     1.0000 0.21850  0.19210  0.54420  Biso   1.000  O
  O186     1.0000 0.78150  0.80790  0.54420  Biso   1.000  O
  O187     1.0000 0.46850  0.05790  0.79420  Biso   1.000  O
  O188     1.0000 0.03150  0.44210  0.79420  Biso   1.000  O
  O189     1.0000 0.21850  0.69210  0.04420  Biso   1.000  O
  O190     1.0000 0.78150  0.30790  0.04420  Biso   1.000  O
  O191     1.0000 0.46850  0.55790  0.29420  Biso   1.000  O
  O192     1.0000 0.03150  0.94210  0.29420  Biso   1.000  O
  S1       1.0000 0.05977  0.20460  0.28658  Biso   1.000  S
  S2       1.0000 0.94023  0.79540  0.28658  Biso   1.000  S
  S3       1.0000 0.30977  0.04540  0.53658  Biso   1.000  S
  S4       1.0000 0.19023  0.45460  0.53658  Biso   1.000  S
  S5       1.0000 0.05977  0.70460  0.78658  Biso   1.000  S
  S6       1.0000 0.94023  0.29540  0.78658  Biso   1.000  S
  S7       1.0000 0.30977  0.54540  0.03658  Biso   1.000  S
  S8       1.0000 0.19023  0.95460  0.03658  Biso   1.000  S
  S9       1.0000 0.55977  0.20460  0.78658  Biso   1.000  S
  S10      1.0000 0.44023  0.79540  0.78658  Biso   1.000  S
  S11      1.0000 0.80977  0.04540  0.03658  Biso   1.000  S
  S12      1.0000 0.69023  0.45460  0.03658  Biso   1.000  S
  S13      1.0000 0.55977  0.70460  0.28658  Biso   1.000  S
  S14      1.0000 0.44023  0.29540  0.28658  Biso   1.000  S
  S15      1.0000 0.80977  0.54540  0.53658  Biso   1.000  S
  S16      1.0000 0.69023  0.95460  0.53658  Biso   1.000  S
  C1       1.0000 0.91840  0.13906  0.50160  Biso   1.000  C
  C2       1.0000 0.08160  0.86094  0.50160  Biso   1.000  C
  C3       1.0000 0.16840  0.11094  0.75160  Biso   1.000  C
  C4       1.0000 0.33160  0.38906  0.75160  Biso   1.000  C
  C5       1.0000 0.91840  0.63906  0.00160  Biso   1.000  C
  C6       1.0000 0.08160  0.36094  0.00160  Biso   1.000  C
  C7       1.0000 0.16840  0.61094  0.25160  Biso   1.000  C
  C8       1.0000 0.33160  0.88906  0.25160  Biso   1.000  C
  C9       1.0000 0.41840  0.13906  0.00160  Biso   1.000  C
  C10      1.0000 0.58160  0.86094  0.00160  Biso   1.000  C
  C11      1.0000 0.66840  0.11094  0.25160  Biso   1.000  C
  C12      1.0000 0.83160  0.38906  0.25160  Biso   1.000  C
  C13      1.0000 0.41840  0.63906  0.50160  Biso   1.000  C
  C14      1.0000 0.58160  0.36094  0.50160  Biso   1.000  C
  C15      1.0000 0.66840  0.61094  0.75160  Biso   1.000  C
  C16      1.0000 0.83160  0.88906  0.75160  Biso   1.000  C
  C17      1.0000 0.92400  0.14895  0.40860  Biso   1.000  C
  C18      1.0000 0.07600  0.85105  0.40860  Biso   1.000  C
  C19      1.0000 0.17400  0.10105  0.65860  Biso   1.000  C
  C20      1.0000 0.32600  0.39895  0.65860  Biso   1.000  C
  C21      1.0000 0.92400  0.64895  0.90860  Biso   1.000  C
  C22      1.0000 0.07600  0.35105  0.90860  Biso   1.000  C
  C23      1.0000 0.17400  0.60105  0.15860  Biso   1.000  C
  C24      1.0000 0.32600  0.89895  0.15860  Biso   1.000  C
  C25      1.0000 0.42400  0.14895  0.90860  Biso   1.000  C
  C26      1.0000 0.57600  0.85105  0.90860  Biso   1.000  C
  C27      1.0000 0.67400  0.10105  0.15860  Biso   1.000  C
  C28      1.0000 0.82600  0.39895  0.15860  Biso   1.000  C
  C29      1.0000 0.42400  0.64895  0.40860  Biso   1.000  C
  C30      1.0000 0.57600  0.35105  0.40860  Biso   1.000  C
  C31      1.0000 0.67400  0.60105  0.65860  Biso   1.000  C
  C32      1.0000 0.82600  0.89895  0.65860  Biso   1.000  C
  C33      1.0000 0.97650  0.17055  0.39090  Biso   1.000  C
  C34      1.0000 0.02350  0.82945  0.39090  Biso   1.000  C
  C35      1.0000 0.22650  0.07945  0.64090  Biso   1.000  C
  C36      1.0000 0.27350  0.42055  0.64090  Biso   1.000  C
  C37      1.0000 0.97650  0.67055  0.89090  Biso   1.000  C
  C38      1.0000 0.02350  0.32945  0.89090  Biso   1.000  C
  C39      1.0000 0.22650  0.57945  0.14090  Biso   1.000  C
  C40      1.0000 0.27350  0.92055  0.14090  Biso   1.000  C
  C41      1.0000 0.47650  0.17055  0.89090  Biso   1.000  C
  C42      1.0000 0.52350  0.82945  0.89090  Biso   1.000  C
  C43      1.0000 0.72650  0.07945  0.14090  Biso   1.000  C
  C44      1.0000 0.77350  0.42055  0.14090  Biso   1.000  C
  C45      1.0000 0.47650  0.67055  0.39090  Biso   1.000  C
  C46      1.0000 0.52350  0.32945  0.39090  Biso   1.000  C
  C47      1.0000 0.72650  0.57945  0.64090  Biso   1.000  C
  C48      1.0000 0.77350  0.92055  0.64090  Biso   1.000  C
  H1       1.0000 0.00320  0.17850  0.43590  Biso   1.000  H
  H2       1.0000 0.99680  0.82150  0.43590  Biso   1.000  H
  H3       1.0000 0.25320  0.07150  0.68590  Biso   1.000  H
  H4       1.0000 0.24680  0.42850  0.68590  Biso   1.000  H
  H5       1.0000 0.00320  0.67850  0.93590  Biso   1.000  H
  H6       1.0000 0.99680  0.32150  0.93590  Biso   1.000  H
  H7       1.0000 0.25320  0.57150  0.18590  Biso   1.000  H
  H8       1.0000 0.24680  0.92850  0.18590  Biso   1.000  H
  H9       1.0000 0.50320  0.17850  0.93590  Biso   1.000  H
  H10      1.0000 0.49680  0.82150  0.93590  Biso   1.000  H
  H11      1.0000 0.75320  0.07150  0.18590  Biso   1.000  H
  H12      1.0000 0.74680  0.42850  0.18590  Biso   1.000  H
  H13      1.0000 0.50320  0.67850  0.43590  Biso   1.000  H
  H14      1.0000 0.49680  0.32150  0.43590  Biso   1.000  H
  H15      1.0000 0.75320  0.57150  0.68590  Biso   1.000  H
  H16      1.0000 0.74680  0.92850  0.68590  Biso   1.000  H
  C49      1.0000 0.98870  0.18001  0.30730  Biso   1.000  C
  C50      1.0000 0.01130  0.81999  0.30730  Biso   1.000  C
  C51      1.0000 0.23870  0.06999  0.55730  Biso   1.000  C
  C52      1.0000 0.26130  0.43001  0.55730  Biso   1.000  C
  C53      1.0000 0.98870  0.68001  0.80730  Biso   1.000  C
  C54      1.0000 0.01130  0.31999  0.80730  Biso   1.000  C
  C55      1.0000 0.23870  0.56999  0.05730  Biso   1.000  C
  C56      1.0000 0.26130  0.93001  0.05730  Biso   1.000  C
  C57      1.0000 0.48870  0.18001  0.80730  Biso   1.000  C
  C58      1.0000 0.51130  0.81999  0.80730  Biso   1.000  C
  C59      1.0000 0.73870  0.06999  0.05730  Biso   1.000  C
  C60      1.0000 0.76130  0.43001  0.05730  Biso   1.000  C
  C61      1.0000 0.48870  0.68001  0.30730  Biso   1.000  C
  C62      1.0000 0.51130  0.31999  0.30730  Biso   1.000  C
  C63      1.0000 0.73870  0.56999  0.55730  Biso   1.000  C
  C64      1.0000 0.76130  0.93001  0.55730  Biso   1.000  C
  C65      1.0000 0.94780  0.16947  0.23810  Biso   1.000  C
  C66      1.0000 0.05220  0.83053  0.23810  Biso   1.000  C
  C67      1.0000 0.19780  0.08053  0.48810  Biso   1.000  C
  C68      1.0000 0.30220  0.41947  0.48810  Biso   1.000  C
  C69      1.0000 0.94780  0.66947  0.73810  Biso   1.000  C
  C70      1.0000 0.05220  0.33053  0.73810  Biso   1.000  C
  C71      1.0000 0.19780  0.58053  0.98810  Biso   1.000  C
  C72      1.0000 0.30220  0.91947  0.98810  Biso   1.000  C
  C73      1.0000 0.44780  0.16947  0.73810  Biso   1.000  C
  C74      1.0000 0.55220  0.83053  0.73810  Biso   1.000  C
  C75      1.0000 0.69780  0.08053  0.98810  Biso   1.000  C
  C76      1.0000 0.80220  0.41947  0.98810  Biso   1.000  C
  C77      1.0000 0.44780  0.66947  0.23810  Biso   1.000  C
  C78      1.0000 0.55220  0.33053  0.23810  Biso   1.000  C
  C79      1.0000 0.69780  0.58053  0.48810  Biso   1.000  C
  C80      1.0000 0.80220  0.91947  0.48810  Biso   1.000  C
  H17      1.0000 0.95440  0.17690  0.18230  Biso   1.000  H
  H18      1.0000 0.04560  0.82310  0.18230  Biso   1.000  H
  H19      1.0000 0.20440  0.07310  0.43230  Biso   1.000  H
  H20      1.0000 0.29560  0.42690  0.43230  Biso   1.000  H
  H21      1.0000 0.95440  0.67690  0.68230  Biso   1.000  H
  H22      1.0000 0.04560  0.32310  0.68230  Biso   1.000  H
  H23      1.0000 0.20440  0.57310  0.93230  Biso   1.000  H
  H24      1.0000 0.29560  0.92690  0.93230  Biso   1.000  H
  H25      1.0000 0.45440  0.17690  0.68230  Biso   1.000  H
  H26      1.0000 0.54560  0.82310  0.68230  Biso   1.000  H
  H27      1.0000 0.70440  0.07310  0.93230  Biso   1.000  H
  H28      1.0000 0.79560  0.42690  0.93230  Biso   1.000  H
  H29      1.0000 0.45440  0.67690  0.18230  Biso   1.000  H
  H30      1.0000 0.54560  0.32310  0.18230  Biso   1.000  H
  H31      1.0000 0.70440  0.57310  0.43230  Biso   1.000  H
  H32      1.0000 0.79560  0.92690  0.43230  Biso   1.000  H
  C81      1.0000 0.89690  0.14739  0.25580  Biso   1.000  C
  C82      1.0000 0.10310  0.85261  0.25580  Biso   1.000  C
  C83      1.0000 0.14690  0.10261  0.50580  Biso   1.000  C
  C84      1.0000 0.35310  0.39739  0.50580  Biso   1.000  C
  C85      1.0000 0.89690  0.64739  0.75580  Biso   1.000  C
  C86      1.0000 0.10310  0.35261  0.75580  Biso   1.000  C
  C87      1.0000 0.14690  0.60261  0.00580  Biso   1.000  C
  C88      1.0000 0.35310  0.89739  0.00580  Biso   1.000  C
  C89      1.0000 0.39690  0.14739  0.75580  Biso   1.000  C
  C90      1.0000 0.60310  0.85261  0.75580  Biso   1.000  C
  C91      1.0000 0.64690  0.10261  0.00580  Biso   1.000  C
  C92      1.0000 0.85310  0.39739  0.00580  Biso   1.000  C
  C93      1.0000 0.39690  0.64739  0.25580  Biso   1.000  C
  C94      1.0000 0.60310  0.35261  0.25580  Biso   1.000  C
  C95      1.0000 0.64690  0.60261  0.50580  Biso   1.000  C
  C96      1.0000 0.85310  0.89739  0.50580  Biso   1.000  C
  H33      1.0000 0.87010  0.13960  0.21070  Biso   1.000  H
  H34      1.0000 0.12990  0.86040  0.21070  Biso   1.000  H
  H35      1.0000 0.12010  0.11040  0.46070  Biso   1.000  H
  H36      1.0000 0.37990  0.38960  0.46070  Biso   1.000  H
  H37      1.0000 0.87010  0.63960  0.71070  Biso   1.000  H
  H38      1.0000 0.12990  0.36040  0.71070  Biso   1.000  H
  H39      1.0000 0.12010  0.61040  0.96070  Biso   1.000  H
  H40      1.0000 0.37990  0.88960  0.96070  Biso   1.000  H
  H41      1.0000 0.37010  0.13960  0.71070  Biso   1.000  H
  H42      1.0000 0.62990  0.86040  0.71070  Biso   1.000  H
  H43      1.0000 0.62010  0.11040  0.96070  Biso   1.000  H
  H44      1.0000 0.87990  0.38960  0.96070  Biso   1.000  H
  H45      1.0000 0.37010  0.63960  0.21070  Biso   1.000  H
  H46      1.0000 0.62990  0.36040  0.21070  Biso   1.000  H
  H47      1.0000 0.62010  0.61040  0.46070  Biso   1.000  H
  H48      1.0000 0.87990  0.88960  0.46070  Biso   1.000  H
  C97      1.0000 0.88540  0.13669  0.34100  Biso   1.000  C
  C98      1.0000 0.11460  0.86331  0.34100  Biso   1.000  C
  C99      1.0000 0.13540  0.11331  0.59100  Biso   1.000  C
  C100     1.0000 0.36460  0.38669  0.59100  Biso   1.000  C
  C101     1.0000 0.88540  0.63669  0.84100  Biso   1.000  C
  C102     1.0000 0.11460  0.36331  0.84100  Biso   1.000  C
  C103     1.0000 0.13540  0.61331  0.09100  Biso   1.000  C
  C104     1.0000 0.36460  0.88669  0.09100  Biso   1.000  C
  C105     1.0000 0.38540  0.13669  0.84100  Biso   1.000  C
  C106     1.0000 0.61460  0.86331  0.84100  Biso   1.000  C
  C107     1.0000 0.63540  0.11331  0.09100  Biso   1.000  C
  C108     1.0000 0.86460  0.38669  0.09100  Biso   1.000  C
  C109     1.0000 0.38540  0.63669  0.34100  Biso   1.000  C
  C110     1.0000 0.61460  0.36331  0.34100  Biso   1.000  C
  C111     1.0000 0.63540  0.61331  0.59100  Biso   1.000  C
  C112     1.0000 0.86460  0.88669  0.59100  Biso   1.000  C
  C113     1.0000 0.83160  0.11159  0.35070  Biso   1.000  C
  C114     1.0000 0.16840  0.88841  0.35070  Biso   1.000  C
  C115     1.0000 0.08160  0.13841  0.60070  Biso   1.000  C
  C116     1.0000 0.41840  0.36159  0.60070  Biso   1.000  C
  C117     1.0000 0.83160  0.61159  0.85070  Biso   1.000  C
  C118     1.0000 0.16840  0.38841  0.85070  Biso   1.000  C
  C119     1.0000 0.08160  0.63841  0.10070  Biso   1.000  C
  C120     1.0000 0.41840  0.86159  0.10070  Biso   1.000  C
  C121     1.0000 0.33160  0.11159  0.85070  Biso   1.000  C
  C122     1.0000 0.66840  0.88841  0.85070  Biso   1.000  C
  C123     1.0000 0.58160  0.13841  0.10070  Biso   1.000  C
  C124     1.0000 0.91840  0.36159  0.10070  Biso   1.000  C
  C125     1.0000 0.33160  0.61159  0.35070  Biso   1.000  C
  C126     1.0000 0.66840  0.38841  0.35070  Biso   1.000  C
  C127     1.0000 0.58160  0.63841  0.60070  Biso   1.000  C
  C128     1.0000 0.91840  0.86159  0.60070  Biso   1.000  C
  C129     1.0000 0.18990  0.13659  0.06230  Biso   1.000  C
  C130     1.0000 0.81010  0.86341  0.06230  Biso   1.000  C
  C131     1.0000 0.43990  0.11341  0.31230  Biso   1.000  C
  C132     1.0000 0.06010  0.38659  0.31230  Biso   1.000  C
  C133     1.0000 0.18990  0.63659  0.56230  Biso   1.000  C
  C134     1.0000 0.81010  0.36341  0.56230  Biso   1.000  C
  C135     1.0000 0.43990  0.61341  0.81230  Biso   1.000  C
  C136     1.0000 0.06010  0.88659  0.81230  Biso   1.000  C
  C137     1.0000 0.68990  0.13659  0.56230  Biso   1.000  C
  C138     1.0000 0.31010  0.86341  0.56230  Biso   1.000  C
  C139     1.0000 0.93990  0.11341  0.81230  Biso   1.000  C
  C140     1.0000 0.56010  0.38659  0.81230  Biso   1.000  C
  C141     1.0000 0.68990  0.63659  0.06230  Biso   1.000  C
  C142     1.0000 0.31010  0.36341  0.06230  Biso   1.000  C
  C143     1.0000 0.93990  0.61341  0.31230  Biso   1.000  C
  C144     1.0000 0.56010  0.88659  0.31230  Biso   1.000  C
  C145     1.0000 0.18580  0.14660  0.15690  Biso   1.000  C
  C146     1.0000 0.81420  0.85340  0.15690  Biso   1.000  C
  C147     1.0000 0.43580  0.10340  0.40690  Biso   1.000  C
  C148     1.0000 0.06420  0.39660  0.40690  Biso   1.000  C
  C149     1.0000 0.18580  0.64660  0.65690  Biso   1.000  C
  C150     1.0000 0.81420  0.35340  0.65690  Biso   1.000  C
  C151     1.0000 0.43580  0.60340  0.90690  Biso   1.000  C
  C152     1.0000 0.06420  0.89660  0.90690  Biso   1.000  C
  C153     1.0000 0.68580  0.14660  0.65690  Biso   1.000  C
  C154     1.0000 0.31420  0.85340  0.65690  Biso   1.000  C
  C155     1.0000 0.93580  0.10340  0.90690  Biso   1.000  C
  C156     1.0000 0.56420  0.39660  0.90690  Biso   1.000  C
  C157     1.0000 0.68580  0.64660  0.15690  Biso   1.000  C
  C158     1.0000 0.31420  0.35340  0.15690  Biso   1.000  C
  C159     1.0000 0.93580  0.60340  0.40690  Biso   1.000  C
  C160     1.0000 0.56420  0.89660  0.40690  Biso   1.000  C
  C161     1.0000 0.13680  0.16942  0.17700  Biso   1.000  C
  C162     1.0000 0.86320  0.83058  0.17700  Biso   1.000  C
  C163     1.0000 0.38680  0.08058  0.42700  Biso   1.000  C
  C164     1.0000 0.11320  0.41942  0.42700  Biso   1.000  C
  C165     1.0000 0.13680  0.66942  0.67700  Biso   1.000  C
  C166     1.0000 0.86320  0.33058  0.67700  Biso   1.000  C
  C167     1.0000 0.38680  0.58058  0.92700  Biso   1.000  C
  C168     1.0000 0.11320  0.91942  0.92700  Biso   1.000  C
  C169     1.0000 0.63680  0.16942  0.67700  Biso   1.000  C
  C170     1.0000 0.36320  0.83058  0.67700  Biso   1.000  C
  C171     1.0000 0.88680  0.08058  0.92700  Biso   1.000  C
  C172     1.0000 0.61320  0.41942  0.92700  Biso   1.000  C
  C173     1.0000 0.63680  0.66942  0.17700  Biso   1.000  C
  C174     1.0000 0.36320  0.33058  0.17700  Biso   1.000  C
  C175     1.0000 0.88680  0.58058  0.42700  Biso   1.000  C
  C176     1.0000 0.61320  0.91942  0.42700  Biso   1.000  C
  H49      1.0000 0.11140  0.17890  0.13310  Biso   1.000  H
  H50      1.0000 0.88860  0.82110  0.13310  Biso   1.000  H
  H51      1.0000 0.36140  0.07110  0.38310  Biso   1.000  H
  H52      1.0000 0.13860  0.42890  0.38310  Biso   1.000  H
  H53      1.0000 0.11140  0.67890  0.63310  Biso   1.000  H
  H54      1.0000 0.88860  0.32110  0.63310  Biso   1.000  H
  H55      1.0000 0.36140  0.57110  0.88310  Biso   1.000  H
  H56      1.0000 0.13860  0.92890  0.88310  Biso   1.000  H
  H57      1.0000 0.61140  0.17890  0.63310  Biso   1.000  H
  H58      1.0000 0.38860  0.82110  0.63310  Biso   1.000  H
  H59      1.0000 0.86140  0.07110  0.88310  Biso   1.000  H
  H60      1.0000 0.63860  0.42890  0.88310  Biso   1.000  H
  H61      1.0000 0.61140  0.67890  0.13310  Biso   1.000  H
  H62      1.0000 0.38860  0.32110  0.13310  Biso   1.000  H
  H63      1.0000 0.86140  0.57110  0.38310  Biso   1.000  H
  H64      1.0000 0.63860  0.92890  0.38310  Biso   1.000  H
  C177     1.0000 0.12630  0.17778  0.26160  Biso   1.000  C
  C178     1.0000 0.87370  0.82222  0.26160  Biso   1.000  C
  C179     1.0000 0.37630  0.07222  0.51160  Biso   1.000  C
  C180     1.0000 0.12370  0.42778  0.51160  Biso   1.000  C
  C181     1.0000 0.12630  0.67778  0.76160  Biso   1.000  C
  C182     1.0000 0.87370  0.32222  0.76160  Biso   1.000  C
  C183     1.0000 0.37630  0.57222  0.01160  Biso   1.000  C
  C184     1.0000 0.12370  0.92778  0.01160  Biso   1.000  C
  C185     1.0000 0.62630  0.17778  0.76160  Biso   1.000  C
  C186     1.0000 0.37370  0.82222  0.76160  Biso   1.000  C
  C187     1.0000 0.87630  0.07222  0.01160  Biso   1.000  C
  C188     1.0000 0.62370  0.42778  0.01160  Biso   1.000  C
  C189     1.0000 0.62630  0.67778  0.26160  Biso   1.000  C
  C190     1.0000 0.37370  0.32222  0.26160  Biso   1.000  C
  C191     1.0000 0.87630  0.57222  0.51160  Biso   1.000  C
  C192     1.0000 0.62370  0.92778  0.51160  Biso   1.000  C
  C193     1.0000 0.16380  0.16443  0.32800  Biso   1.000  C
  C194     1.0000 0.83620  0.83557  0.32800  Biso   1.000  C
  C195     1.0000 0.41380  0.08557  0.57800  Biso   1.000  C
  C196     1.0000 0.08620  0.41443  0.57800  Biso   1.000  C
  C197     1.0000 0.16380  0.66443  0.82800  Biso   1.000  C
  C198     1.0000 0.83620  0.33557  0.82800  Biso   1.000  C
  C199     1.0000 0.41380  0.58557  0.07800  Biso   1.000  C
  C200     1.0000 0.08620  0.91443  0.07800  Biso   1.000  C
  C201     1.0000 0.66380  0.16443  0.82800  Biso   1.000  C
  C202     1.0000 0.33620  0.83557  0.82800  Biso   1.000  C
  C203     1.0000 0.91380  0.08557  0.07800  Biso   1.000  C
  C204     1.0000 0.58620  0.41443  0.07800  Biso   1.000  C
  C205     1.0000 0.66380  0.66443  0.32800  Biso   1.000  C
  C206     1.0000 0.33620  0.33557  0.32800  Biso   1.000  C
  C207     1.0000 0.91380  0.58557  0.57800  Biso   1.000  C
  C208     1.0000 0.58620  0.91443  0.57800  Biso   1.000  C
  H65      1.0000 0.15560  0.17000  0.38520  Biso   1.000  H
  H66      1.0000 0.84440  0.83000  0.38520  Biso   1.000  H
  H67      1.0000 0.40560  0.08000  0.63520  Biso   1.000  H
  H68      1.0000 0.09440  0.42000  0.63520  Biso   1.000  H
  H69      1.0000 0.15560  0.67000  0.88520  Biso   1.000  H
  H70      1.0000 0.84440  0.33000  0.88520  Biso   1.000  H
  H71      1.0000 0.40560  0.58000  0.13520  Biso   1.000  H
  H72      1.0000 0.09440  0.92000  0.13520  Biso   1.000  H
  H73      1.0000 0.65560  0.17000  0.88520  Biso   1.000  H
  H74      1.0000 0.34440  0.83000  0.88520  Biso   1.000  H
  H75      1.0000 0.90560  0.08000  0.13520  Biso   1.000  H
  H76      1.0000 0.59440  0.42000  0.13520  Biso   1.000  H
  H77      1.0000 0.65560  0.67000  0.38520  Biso   1.000  H
  H78      1.0000 0.34440  0.33000  0.38520  Biso   1.000  H
  H79      1.0000 0.90560  0.58000  0.63520  Biso   1.000  H
  H80      1.0000 0.59440  0.92000  0.63520  Biso   1.000  H
  C209     1.0000 0.21410  0.14256  0.30790  Biso   1.000  C
  C210     1.0000 0.78590  0.85744  0.30790  Biso   1.000  C
  C211     1.0000 0.46410  0.10744  0.55790  Biso   1.000  C
  C212     1.0000 0.03590  0.39256  0.55790  Biso   1.000  C
  C213     1.0000 0.21410  0.64256  0.80790  Biso   1.000  C
  C214     1.0000 0.78590  0.35744  0.80790  Biso   1.000  C
  C215     1.0000 0.46410  0.60744  0.05790  Biso   1.000  C
  C216     1.0000 0.03590  0.89256  0.05790  Biso   1.000  C
  C217     1.0000 0.71410  0.14256  0.80790  Biso   1.000  C
  C218     1.0000 0.28590  0.85744  0.80790  Biso   1.000  C
  C219     1.0000 0.96410  0.10744  0.05790  Biso   1.000  C
  C220     1.0000 0.53590  0.39256  0.05790  Biso   1.000  C
  C221     1.0000 0.71410  0.64256  0.30790  Biso   1.000  C
  C222     1.0000 0.28590  0.35744  0.30790  Biso   1.000  C
  C223     1.0000 0.96410  0.60744  0.55790  Biso   1.000  C
  C224     1.0000 0.53590  0.89256  0.55790  Biso   1.000  C
  H81      1.0000 0.24110  0.13400  0.35180  Biso   1.000  H
  H82      1.0000 0.75890  0.86600  0.35180  Biso   1.000  H
  H83      1.0000 0.49110  0.11600  0.60180  Biso   1.000  H
  H84      1.0000 0.00890  0.38400  0.60180  Biso   1.000  H
  H85      1.0000 0.24110  0.63400  0.85180  Biso   1.000  H
  H86      1.0000 0.75890  0.36600  0.85180  Biso   1.000  H
  H87      1.0000 0.49110  0.61600  0.10180  Biso   1.000  H
  H88      1.0000 0.00890  0.88400  0.10180  Biso   1.000  H
  H89      1.0000 0.74110  0.13400  0.85180  Biso   1.000  H
  H90      1.0000 0.25890  0.86600  0.85180  Biso   1.000  H
  H91      1.0000 0.99110  0.11600  0.10180  Biso   1.000  H
  H92      1.0000 0.50890  0.38400  0.10180  Biso   1.000  H
  H93      1.0000 0.74110  0.63400  0.35180  Biso   1.000  H
  H94      1.0000 0.25890  0.36600  0.35180  Biso   1.000  H
  H95      1.0000 0.99110  0.61600  0.60180  Biso   1.000  H
  H96      1.0000 0.50890  0.88400  0.60180  Biso   1.000  H
  C225     1.0000 0.22430  0.13342  0.22310  Biso   1.000  C
  C226     1.0000 0.77570  0.86658  0.22310  Biso   1.000  C
  C227     1.0000 0.47430  0.11658  0.47310  Biso   1.000  C
  C228     1.0000 0.02570  0.38342  0.47310  Biso   1.000  C
  C229     1.0000 0.22430  0.63342  0.72310  Biso   1.000  C
  C230     1.0000 0.77570  0.36658  0.72310  Biso   1.000  C
  C231     1.0000 0.47430  0.61658  0.97310  Biso   1.000  C
  C232     1.0000 0.02570  0.88342  0.97310  Biso   1.000  C
  C233     1.0000 0.72430  0.13342  0.72310  Biso   1.000  C
  C234     1.0000 0.27570  0.86658  0.72310  Biso   1.000  C
  C235     1.0000 0.97430  0.11658  0.97310  Biso   1.000  C
  C236     1.0000 0.52570  0.38342  0.97310  Biso   1.000  C
  C237     1.0000 0.72430  0.63342  0.22310  Biso   1.000  C
  C238     1.0000 0.27570  0.36658  0.22310  Biso   1.000  C
  C239     1.0000 0.97430  0.61658  0.47310  Biso   1.000  C
  C240     1.0000 0.52570  0.88342  0.47310  Biso   1.000  C
  C241     1.0000 0.28080  0.10944  0.20620  Biso   1.000  C
  C242     1.0000 0.71920  0.89056  0.20620  Biso   1.000  C
  C243     1.0000 0.53080  0.14056  0.45620  Biso   1.000  C
  C244     1.0000 0.96920  0.35944  0.45620  Biso   1.000  C
  C245     1.0000 0.28080  0.60944  0.70620  Biso   1.000  C
  C246     1.0000 0.71920  0.39056  0.70620  Biso   1.000  C
  C247     1.0000 0.53080  0.64056  0.95620  Biso   1.000  C
  C248     1.0000 0.96920  0.85944  0.95620  Biso   1.000  C
  C249     1.0000 0.78080  0.10944  0.70620  Biso   1.000  C
  C250     1.0000 0.21920  0.89056  0.70620  Biso   1.000  C
  C251     1.0000 0.03080  0.14056  0.95620  Biso   1.000  C
  C252     1.0000 0.46920  0.35944  0.95620  Biso   1.000  C
  C253     1.0000 0.78080  0.60944  0.20620  Biso   1.000  C
  C254     1.0000 0.21920  0.39056  0.20620  Biso   1.000  C
  C255     1.0000 0.03080  0.64056  0.45620  Biso   1.000  C
  C256     1.0000 0.46920  0.85944  0.45620  Biso   1.000  C
  C257     1.0000 0.99010  0.05651  0.51960  Biso   1.000  C
  C258     1.0000 0.00990  0.94349  0.51960  Biso   1.000  C
  C259     1.0000 0.24010  0.19349  0.76960  Biso   1.000  C
  C260     1.0000 0.25990  0.30651  0.76960  Biso   1.000  C
  C261     1.0000 0.99010  0.55651  0.01960  Biso   1.000  C
  C262     1.0000 0.00990  0.44349  0.01960  Biso   1.000  C
  C263     1.0000 0.24010  0.69349  0.26960  Biso   1.000  C
  C264     1.0000 0.25990  0.80651  0.26960  Biso   1.000  C
  C265     1.0000 0.49010  0.05651  0.01960  Biso   1.000  C
  C266     1.0000 0.50990  0.94349  0.01960  Biso   1.000  C
  C267     1.0000 0.74010  0.19349  0.26960  Biso   1.000  C
  C268     1.0000 0.75990  0.30651  0.26960  Biso   1.000  C
  C269     1.0000 0.49010  0.55651  0.51960  Biso   1.000  C
  C270     1.0000 0.50990  0.44349  0.51960  Biso   1.000  C
  C271     1.0000 0.74010  0.69349  0.76960  Biso   1.000  C
  C272     1.0000 0.75990  0.80651  0.76960  Biso   1.000  C
  H97      1.0000 0.96000  0.06540  0.47960  Biso   1.000  H
  H98      1.0000 0.04000  0.93460  0.47960  Biso   1.000  H
  H99      1.0000 0.21000  0.18460  0.72960  Biso   1.000  H
  H100     1.0000 0.29000  0.31540  0.72960  Biso   1.000  H
  H101     1.0000 0.96000  0.56540  0.97960  Biso   1.000  H
  H102     1.0000 0.04000  0.43460  0.97960  Biso   1.000  H
  H103     1.0000 0.21000  0.68460  0.22960  Biso   1.000  H
  H104     1.0000 0.29000  0.81540  0.22960  Biso   1.000  H
  H105     1.0000 0.46000  0.06540  0.97960  Biso   1.000  H
  H106     1.0000 0.54000  0.93460  0.97960  Biso   1.000  H
  H107     1.0000 0.71000  0.18460  0.22960  Biso   1.000  H
  H108     1.0000 0.79000  0.31540  0.22960  Biso   1.000  H
  H109     1.0000 0.46000  0.56540  0.47960  Biso   1.000  H
  H110     1.0000 0.54000  0.43460  0.47960  Biso   1.000  H
  H111     1.0000 0.71000  0.68460  0.72960  Biso   1.000  H
  H112     1.0000 0.79000  0.81540  0.72960  Biso   1.000  H
  C273     1.0000 0.03730  0.03435  0.49040  Biso   1.000  C
  C274     1.0000 0.96270  0.96565  0.49040  Biso   1.000  C
  C275     1.0000 0.28730  0.21565  0.74040  Biso   1.000  C
  C276     1.0000 0.21270  0.28435  0.74040  Biso   1.000  C
  C277     1.0000 0.03730  0.53435  0.99040  Biso   1.000  C
  C278     1.0000 0.96270  0.46565  0.99040  Biso   1.000  C
  C279     1.0000 0.28730  0.71565  0.24040  Biso   1.000  C
  C280     1.0000 0.21270  0.78435  0.24040  Biso   1.000  C
  C281     1.0000 0.53730  0.03435  0.99040  Biso   1.000  C
  C282     1.0000 0.46270  0.96565  0.99040  Biso   1.000  C
  C283     1.0000 0.78730  0.21565  0.24040  Biso   1.000  C
  C284     1.0000 0.71270  0.28435  0.24040  Biso   1.000  C
  C285     1.0000 0.53730  0.53435  0.49040  Biso   1.000  C
  C286     1.0000 0.46270  0.46565  0.49040  Biso   1.000  C
  C287     1.0000 0.78730  0.71565  0.74040  Biso   1.000  C
  C288     1.0000 0.71270  0.78435  0.74040  Biso   1.000  C
  H113     1.0000 0.03760  0.02850  0.43250  Biso   1.000  H
  H114     1.0000 0.96240  0.97150  0.43250  Biso   1.000  H
  H115     1.0000 0.28760  0.22150  0.68250  Biso   1.000  H
  H116     1.0000 0.21240  0.27850  0.68250  Biso   1.000  H
  H117     1.0000 0.03760  0.52850  0.93250  Biso   1.000  H
  H118     1.0000 0.96240  0.47150  0.93250  Biso   1.000  H
  H119     1.0000 0.28760  0.72150  0.18250  Biso   1.000  H
  H120     1.0000 0.21240  0.77850  0.18250  Biso   1.000  H
  H121     1.0000 0.53760  0.02850  0.93250  Biso   1.000  H
  H122     1.0000 0.46240  0.97150  0.93250  Biso   1.000  H
  H123     1.0000 0.78760  0.22150  0.18250  Biso   1.000  H
  H124     1.0000 0.71240  0.27850  0.18250  Biso   1.000  H
  H125     1.0000 0.53760  0.52850  0.43250  Biso   1.000  H
  H126     1.0000 0.46240  0.47150  0.43250  Biso   1.000  H
  H127     1.0000 0.78760  0.72150  0.68250  Biso   1.000  H
  H128     1.0000 0.71240  0.77850  0.68250  Biso   1.000  H
  C289     1.0000 0.08340  0.02117  0.54790  Biso   1.000  C
  C290     1.0000 0.91660  0.97883  0.54790  Biso   1.000  C
  C291     1.0000 0.33340  0.22883  0.79790  Biso   1.000  C
  C292     1.0000 0.16660  0.27117  0.79790  Biso   1.000  C
  C293     1.0000 0.08340  0.52117  0.04790  Biso   1.000  C
  C294     1.0000 0.91660  0.47883  0.04790  Biso   1.000  C
  C295     1.0000 0.33340  0.72883  0.29790  Biso   1.000  C
  C296     1.0000 0.16660  0.77117  0.29790  Biso   1.000  C
  C297     1.0000 0.58340  0.02117  0.04790  Biso   1.000  C
  C298     1.0000 0.41660  0.97883  0.04790  Biso   1.000  C
  C299     1.0000 0.83340  0.22883  0.29790  Biso   1.000  C
  C300     1.0000 0.66660  0.27117  0.29790  Biso   1.000  C
  C301     1.0000 0.58340  0.52117  0.54790  Biso   1.000  C
  C302     1.0000 0.41660  0.47883  0.54790  Biso   1.000  C
  C303     1.0000 0.83340  0.72883  0.79790  Biso   1.000  C
  C304     1.0000 0.66660  0.77117  0.79790  Biso   1.000  C
  C305     1.0000 0.07930  0.03047  0.63530  Biso   1.000  C
  C306     1.0000 0.92070  0.96953  0.63530  Biso   1.000  C
  C307     1.0000 0.32930  0.21953  0.88530  Biso   1.000  C
  C308     1.0000 0.17070  0.28047  0.88530  Biso   1.000  C
  C309     1.0000 0.07930  0.53047  0.13530  Biso   1.000  C
  C310     1.0000 0.92070  0.46953  0.13530  Biso   1.000  C
  C311     1.0000 0.32930  0.71953  0.38530  Biso   1.000  C
  C312     1.0000 0.17070  0.78047  0.38530  Biso   1.000  C
  C313     1.0000 0.57930  0.03047  0.13530  Biso   1.000  C
  C314     1.0000 0.42070  0.96953  0.13530  Biso   1.000  C
  C315     1.0000 0.82930  0.21953  0.38530  Biso   1.000  C
  C316     1.0000 0.67070  0.28047  0.38530  Biso   1.000  C
  C317     1.0000 0.57930  0.53047  0.63530  Biso   1.000  C
  C318     1.0000 0.42070  0.46953  0.63530  Biso   1.000  C
  C319     1.0000 0.82930  0.71953  0.88530  Biso   1.000  C
  C320     1.0000 0.67070  0.78047  0.88530  Biso   1.000  C
  H129     1.0000 0.10890  0.02200  0.67660  Biso   1.000  H
  H130     1.0000 0.89110  0.97800  0.67660  Biso   1.000  H
  H131     1.0000 0.35890  0.22800  0.92660  Biso   1.000  H
  H132     1.0000 0.14110  0.27200  0.92660  Biso   1.000  H
  H133     1.0000 0.10890  0.52200  0.17660  Biso   1.000  H
  H134     1.0000 0.89110  0.47800  0.17660  Biso   1.000  H
  H135     1.0000 0.35890  0.72800  0.42660  Biso   1.000  H
  H136     1.0000 0.14110  0.77200  0.42660  Biso   1.000  H
  H137     1.0000 0.60890  0.02200  0.17660  Biso   1.000  H
  H138     1.0000 0.39110  0.97800  0.17660  Biso   1.000  H
  H139     1.0000 0.85890  0.22800  0.42660  Biso   1.000  H
  H140     1.0000 0.64110  0.27200  0.42660  Biso   1.000  H
  H141     1.0000 0.60890  0.52200  0.67660  Biso   1.000  H
  H142     1.0000 0.39110  0.47800  0.67660  Biso   1.000  H
  H143     1.0000 0.85890  0.72800  0.92660  Biso   1.000  H
  H144     1.0000 0.64110  0.77200  0.92660  Biso   1.000  H
  C321     1.0000 0.03060  0.05244  0.65870  Biso   1.000  C
  C322     1.0000 0.96940  0.94756  0.65870  Biso   1.000  C
  C323     1.0000 0.28060  0.19756  0.90870  Biso   1.000  C
  C324     1.0000 0.21940  0.30244  0.90870  Biso   1.000  C
  C325     1.0000 0.03060  0.55244  0.15870  Biso   1.000  C
  C326     1.0000 0.96940  0.44756  0.15870  Biso   1.000  C
  C327     1.0000 0.28060  0.69756  0.40870  Biso   1.000  C
  C328     1.0000 0.21940  0.80244  0.40870  Biso   1.000  C
  C329     1.0000 0.53060  0.05244  0.15870  Biso   1.000  C
  C330     1.0000 0.46940  0.94756  0.15870  Biso   1.000  C
  C331     1.0000 0.78060  0.19756  0.40870  Biso   1.000  C
  C332     1.0000 0.71940  0.30244  0.40870  Biso   1.000  C
  C333     1.0000 0.53060  0.55244  0.65870  Biso   1.000  C
  C334     1.0000 0.46940  0.44756  0.65870  Biso   1.000  C
  C335     1.0000 0.78060  0.69756  0.90870  Biso   1.000  C
  C336     1.0000 0.71940  0.80244  0.90870  Biso   1.000  C
  H145     1.0000 0.02840  0.05850  0.71630  Biso   1.000  H
  H146     1.0000 0.97160  0.94150  0.71630  Biso   1.000  H
  H147     1.0000 0.27840  0.19150  0.96630  Biso   1.000  H
  H148     1.0000 0.22160  0.30850  0.96630  Biso   1.000  H
  H149     1.0000 0.02840  0.55850  0.21630  Biso   1.000  H
  H150     1.0000 0.97160  0.44150  0.21630  Biso   1.000  H
  H151     1.0000 0.27840  0.69150  0.46630  Biso   1.000  H
  H152     1.0000 0.22160  0.80850  0.46630  Biso   1.000  H
  H153     1.0000 0.52840  0.05850  0.21630  Biso   1.000  H
  H154     1.0000 0.47160  0.94150  0.21630  Biso   1.000  H
  H155     1.0000 0.77840  0.19150  0.46630  Biso   1.000  H
  H156     1.0000 0.72160  0.30850  0.46630  Biso   1.000  H
  H157     1.0000 0.52840  0.55850  0.71630  Biso   1.000  H
  H158     1.0000 0.47160  0.44150  0.71630  Biso   1.000  H
  H159     1.0000 0.77840  0.69150  0.96630  Biso   1.000  H
  H160     1.0000 0.72160  0.80850  0.96630  Biso   1.000  H
  C337     1.0000 0.13290  0.99706  0.51920  Biso   1.000  C
  C338     1.0000 0.86710  0.00294  0.51920  Biso   1.000  C
  C339     1.0000 0.38290  0.25294  0.76920  Biso   1.000  C
  C340     1.0000 0.11710  0.24706  0.76920  Biso   1.000  C
  C341     1.0000 0.13290  0.49706  0.01920  Biso   1.000  C
  C342     1.0000 0.86710  0.50294  0.01920  Biso   1.000  C
  C343     1.0000 0.38290  0.75294  0.26920  Biso   1.000  C
  C344     1.0000 0.11710  0.74706  0.26920  Biso   1.000  C
  C345     1.0000 0.63290  0.99706  0.01920  Biso   1.000  C
  C346     1.0000 0.36710  0.00294  0.01920  Biso   1.000  C
  C347     1.0000 0.88290  0.25294  0.26920  Biso   1.000  C
  C348     1.0000 0.61710  0.24706  0.26920  Biso   1.000  C
  C349     1.0000 0.63290  0.49706  0.51920  Biso   1.000  C
  C350     1.0000 0.36710  0.50294  0.51920  Biso   1.000  C
  C351     1.0000 0.88290  0.75294  0.76920  Biso   1.000  C
  C352     1.0000 0.61710  0.74706  0.76920  Biso   1.000  C
  C353     1.0000 0.14790  0.99256  0.43310  Biso   1.000  C
  C354     1.0000 0.85210  0.00744  0.43310  Biso   1.000  C
  C355     1.0000 0.39790  0.25744  0.68310  Biso   1.000  C
  C356     1.0000 0.10210  0.24256  0.68310  Biso   1.000  C
  C357     1.0000 0.14790  0.49256  0.93310  Biso   1.000  C
  C358     1.0000 0.85210  0.50744  0.93310  Biso   1.000  C
  C359     1.0000 0.39790  0.75744  0.18310  Biso   1.000  C
  C360     1.0000 0.10210  0.74256  0.18310  Biso   1.000  C
  C361     1.0000 0.64790  0.99256  0.93310  Biso   1.000  C
  C362     1.0000 0.35210  0.00744  0.93310  Biso   1.000  C
  C363     1.0000 0.89790  0.25744  0.18310  Biso   1.000  C
  C364     1.0000 0.60210  0.24256  0.18310  Biso   1.000  C
  C365     1.0000 0.64790  0.49256  0.43310  Biso   1.000  C
  C366     1.0000 0.35210  0.50744  0.43310  Biso   1.000  C
  C367     1.0000 0.89790  0.75744  0.68310  Biso   1.000  C
  C368     1.0000 0.60210  0.74256  0.68310  Biso   1.000  C
  H161     1.0000 0.12920  0.00550  0.39130  Biso   1.000  H
  H162     1.0000 0.87080  0.99450  0.39130  Biso   1.000  H
  H163     1.0000 0.37920  0.24450  0.64130  Biso   1.000  H
  H164     1.0000 0.12080  0.25550  0.64130  Biso   1.000  H
  H165     1.0000 0.12920  0.50550  0.89130  Biso   1.000  H
  H166     1.0000 0.87080  0.49450  0.89130  Biso   1.000  H
  H167     1.0000 0.37920  0.74450  0.14130  Biso   1.000  H
  H168     1.0000 0.12080  0.75550  0.14130  Biso   1.000  H
  H169     1.0000 0.62920  0.00550  0.89130  Biso   1.000  H
  H170     1.0000 0.37080  0.99450  0.89130  Biso   1.000  H
  H171     1.0000 0.87920  0.24450  0.14130  Biso   1.000  H
  H172     1.0000 0.62080  0.25550  0.14130  Biso   1.000  H
  H173     1.0000 0.62920  0.50550  0.39130  Biso   1.000  H
  H174     1.0000 0.37080  0.49450  0.39130  Biso   1.000  H
  H175     1.0000 0.87920  0.74450  0.64130  Biso   1.000  H
  H176     1.0000 0.62080  0.75550  0.64130  Biso   1.000  H
  C369     1.0000 0.19120  0.96844  0.40940  Biso   1.000  C
  C370     1.0000 0.80880  0.03156  0.40940  Biso   1.000  C
  C371     1.0000 0.44120  0.28156  0.65940  Biso   1.000  C
  C372     1.0000 0.05880  0.21844  0.65940  Biso   1.000  C
  C373     1.0000 0.19120  0.46844  0.90940  Biso   1.000  C
  C374     1.0000 0.80880  0.53156  0.90940  Biso   1.000  C
  C375     1.0000 0.44120  0.78156  0.15940  Biso   1.000  C
  C376     1.0000 0.05880  0.71844  0.15940  Biso   1.000  C
  C377     1.0000 0.69120  0.96844  0.90940  Biso   1.000  C
  C378     1.0000 0.30880  0.03156  0.90940  Biso   1.000  C
  C379     1.0000 0.94120  0.28156  0.15940  Biso   1.000  C
  C380     1.0000 0.55880  0.21844  0.15940  Biso   1.000  C
  C381     1.0000 0.69120  0.46844  0.40940  Biso   1.000  C
  C382     1.0000 0.30880  0.53156  0.40940  Biso   1.000  C
  C383     1.0000 0.94120  0.78156  0.65940  Biso   1.000  C
  C384     1.0000 0.55880  0.71844  0.65940  Biso   1.000  C
  H177     1.0000 0.20050  0.96570  0.35080  Biso   1.000  H
  H178     1.0000 0.79950  0.03430  0.35080  Biso   1.000  H
  H179     1.0000 0.45050  0.28430  0.60080  Biso   1.000  H
  H180     1.0000 0.04950  0.21570  0.60080  Biso   1.000  H
  H181     1.0000 0.20050  0.46570  0.85080  Biso   1.000  H
  H182     1.0000 0.79950  0.53430  0.85080  Biso   1.000  H
  H183     1.0000 0.45050  0.78430  0.10080  Biso   1.000  H
  H184     1.0000 0.04950  0.71570  0.10080  Biso   1.000  H
  H185     1.0000 0.70050  0.96570  0.85080  Biso   1.000  H
  H186     1.0000 0.29950  0.03430  0.85080  Biso   1.000  H
  H187     1.0000 0.95050  0.28430  0.10080  Biso   1.000  H
  H188     1.0000 0.54950  0.21570  0.10080  Biso   1.000  H
  H189     1.0000 0.70050  0.46570  0.35080  Biso   1.000  H
  H190     1.0000 0.29950  0.53430  0.35080  Biso   1.000  H
  H191     1.0000 0.95050  0.78430  0.60080  Biso   1.000  H
  H192     1.0000 0.54950  0.71570  0.60080  Biso   1.000  H
  C385     1.0000 0.20670  0.95378  0.54950  Biso   1.000  C
  C386     1.0000 0.79330  0.04622  0.54950  Biso   1.000  C
  C387     1.0000 0.45670  0.29622  0.79950  Biso   1.000  C
  C388     1.0000 0.04330  0.20378  0.79950  Biso   1.000  C
  C389     1.0000 0.20670  0.45378  0.04950  Biso   1.000  C
  C390     1.0000 0.79330  0.54622  0.04950  Biso   1.000  C
  C391     1.0000 0.45670  0.79622  0.29950  Biso   1.000  C
  C392     1.0000 0.04330  0.70378  0.29950  Biso   1.000  C
  C393     1.0000 0.70670  0.95378  0.04950  Biso   1.000  C
  C394     1.0000 0.29330  0.04622  0.04950  Biso   1.000  C
  C395     1.0000 0.95670  0.29622  0.29950  Biso   1.000  C
  C396     1.0000 0.54330  0.20378  0.29950  Biso   1.000  C
  C397     1.0000 0.70670  0.45378  0.54950  Biso   1.000  C
  C398     1.0000 0.29330  0.54622  0.54950  Biso   1.000  C
  C399     1.0000 0.95670  0.79622  0.79950  Biso   1.000  C
  C400     1.0000 0.54330  0.70378  0.79950  Biso   1.000  C
  H193     1.0000 0.22630  0.94040  0.58950  Biso   1.000  H
  H194     1.0000 0.77370  0.05960  0.58950  Biso   1.000  H
  H195     1.0000 0.47630  0.30960  0.83950  Biso   1.000  H
  H196     1.0000 0.02370  0.19040  0.83950  Biso   1.000  H
  H197     1.0000 0.22630  0.44040  0.08950  Biso   1.000  H
  H198     1.0000 0.77370  0.55960  0.08950  Biso   1.000  H
  H199     1.0000 0.47630  0.80960  0.33950  Biso   1.000  H
  H200     1.0000 0.02370  0.69040  0.33950  Biso   1.000  H
  H201     1.0000 0.72630  0.94040  0.08950  Biso   1.000  H
  H202     1.0000 0.27370  0.05960  0.08950  Biso   1.000  H
  H203     1.0000 0.97630  0.30960  0.33950  Biso   1.000  H
  H204     1.0000 0.52370  0.19040  0.33950  Biso   1.000  H
  H205     1.0000 0.72630  0.44040  0.58950  Biso   1.000  H
  H206     1.0000 0.27370  0.55960  0.58950  Biso   1.000  H
  H207     1.0000 0.97630  0.80960  0.83950  Biso   1.000  H
  H208     1.0000 0.52370  0.69040  0.83950  Biso   1.000  H
  C401     1.0000 0.16500  0.97760  0.58010  Biso   1.000  C
  C402     1.0000 0.83500  0.02240  0.58010  Biso   1.000  C
  C403     1.0000 0.41500  0.27240  0.83010  Biso   1.000  C
  C404     1.0000 0.08500  0.22760  0.83010  Biso   1.000  C
  C405     1.0000 0.16500  0.47760  0.08010  Biso   1.000  C
  C406     1.0000 0.83500  0.52240  0.08010  Biso   1.000  C
  C407     1.0000 0.41500  0.77240  0.33010  Biso   1.000  C
  C408     1.0000 0.08500  0.72760  0.33010  Biso   1.000  C
  C409     1.0000 0.66500  0.97760  0.08010  Biso   1.000  C
  C410     1.0000 0.33500  0.02240  0.08010  Biso   1.000  C
  C411     1.0000 0.91500  0.27240  0.33010  Biso   1.000  C
  C412     1.0000 0.58500  0.22760  0.33010  Biso   1.000  C
  C413     1.0000 0.66500  0.47760  0.58010  Biso   1.000  C
  C414     1.0000 0.33500  0.52240  0.58010  Biso   1.000  C
  C415     1.0000 0.91500  0.77240  0.83010  Biso   1.000  C
  C416     1.0000 0.58500  0.72760  0.83010  Biso   1.000  C
  H209     1.0000 0.15850  0.98060  0.63910  Biso   1.000  H
  H210     1.0000 0.84150  0.01940  0.63910  Biso   1.000  H
  H211     1.0000 0.40850  0.26940  0.88910  Biso   1.000  H
  H212     1.0000 0.09150  0.23060  0.88910  Biso   1.000  H
  H213     1.0000 0.15850  0.48060  0.13910  Biso   1.000  H
  H214     1.0000 0.84150  0.51940  0.13910  Biso   1.000  H
  H215     1.0000 0.40850  0.76940  0.38910  Biso   1.000  H
  H216     1.0000 0.09150  0.73060  0.38910  Biso   1.000  H
  H217     1.0000 0.65850  0.98060  0.13910  Biso   1.000  H
  H218     1.0000 0.34150  0.01940  0.13910  Biso   1.000  H
  H219     1.0000 0.90850  0.26940  0.38910  Biso   1.000  H
  H220     1.0000 0.59150  0.23060  0.38910  Biso   1.000  H
  H221     1.0000 0.65850  0.48060  0.63910  Biso   1.000  H
  H222     1.0000 0.34150  0.51940  0.63910  Biso   1.000  H
  H223     1.0000 0.90850  0.76940  0.88910  Biso   1.000  H
  H224     1.0000 0.59150  0.73060  0.88910  Biso   1.000  H
  C417     1.0000 0.37780  0.96380  0.38290  Biso   1.000  C
  C418     1.0000 0.62220  0.03620  0.38290  Biso   1.000  C
  C419     1.0000 0.62780  0.28620  0.63290  Biso   1.000  C
  C420     1.0000 0.87220  0.21380  0.63290  Biso   1.000  C
  C421     1.0000 0.37780  0.46380  0.88290  Biso   1.000  C
  C422     1.0000 0.62220  0.53620  0.88290  Biso   1.000  C
  C423     1.0000 0.62780  0.78620  0.13290  Biso   1.000  C
  C424     1.0000 0.87220  0.71380  0.13290  Biso   1.000  C
  C425     1.0000 0.87780  0.96380  0.88290  Biso   1.000  C
  C426     1.0000 0.12220  0.03620  0.88290  Biso   1.000  C
  C427     1.0000 0.12780  0.28620  0.13290  Biso   1.000  C
  C428     1.0000 0.37220  0.21380  0.13290  Biso   1.000  C
  C429     1.0000 0.87780  0.46380  0.38290  Biso   1.000  C
  C430     1.0000 0.12220  0.53620  0.38290  Biso   1.000  C
  C431     1.0000 0.12780  0.78620  0.63290  Biso   1.000  C
  C432     1.0000 0.37220  0.71380  0.63290  Biso   1.000  C
  H225     1.0000 0.35050  0.96260  0.33330  Biso   1.000  H
  H226     1.0000 0.64950  0.03740  0.33330  Biso   1.000  H
  H227     1.0000 0.60050  0.28740  0.58330  Biso   1.000  H
  H228     1.0000 0.89950  0.21260  0.58330  Biso   1.000  H
  H229     1.0000 0.35050  0.46260  0.83330  Biso   1.000  H
  H230     1.0000 0.64950  0.53740  0.83330  Biso   1.000  H
  H231     1.0000 0.60050  0.78740  0.08330  Biso   1.000  H
  H232     1.0000 0.89950  0.71260  0.08330  Biso   1.000  H
  H233     1.0000 0.85050  0.96260  0.83330  Biso   1.000  H
  H234     1.0000 0.14950  0.03740  0.83330  Biso   1.000  H
  H235     1.0000 0.10050  0.28740  0.08330  Biso   1.000  H
  H236     1.0000 0.39950  0.21260  0.08330  Biso   1.000  H
  H237     1.0000 0.85050  0.46260  0.33330  Biso   1.000  H
  H238     1.0000 0.14950  0.53740  0.33330  Biso   1.000  H
  H239     1.0000 0.10050  0.78740  0.58330  Biso   1.000  H
  H240     1.0000 0.39950  0.71260  0.58330  Biso   1.000  H
  C433     1.0000 0.43060  0.98618  0.38670  Biso   1.000  C
  C434     1.0000 0.56940  0.01382  0.38670  Biso   1.000  C
  C435     1.0000 0.68060  0.26382  0.63670  Biso   1.000  C
  C436     1.0000 0.81940  0.23618  0.63670  Biso   1.000  C
  C437     1.0000 0.43060  0.48618  0.88670  Biso   1.000  C
  C438     1.0000 0.56940  0.51382  0.88670  Biso   1.000  C
  C439     1.0000 0.68060  0.76382  0.13670  Biso   1.000  C
  C440     1.0000 0.81940  0.73618  0.13670  Biso   1.000  C
  C441     1.0000 0.93060  0.98618  0.88670  Biso   1.000  C
  C442     1.0000 0.06940  0.01382  0.88670  Biso   1.000  C
  C443     1.0000 0.18060  0.26382  0.13670  Biso   1.000  C
  C444     1.0000 0.31940  0.23618  0.13670  Biso   1.000  C
  C445     1.0000 0.93060  0.48618  0.38670  Biso   1.000  C
  C446     1.0000 0.06940  0.51382  0.38670  Biso   1.000  C
  C447     1.0000 0.18060  0.76382  0.63670  Biso   1.000  C
  C448     1.0000 0.31940  0.73618  0.63670  Biso   1.000  C
  H241     1.0000 0.43790  0.99950  0.34030  Biso   1.000  H
  H242     1.0000 0.56210  0.00050  0.34030  Biso   1.000  H
  H243     1.0000 0.68790  0.25050  0.59030  Biso   1.000  H
  H244     1.0000 0.81210  0.24950  0.59030  Biso   1.000  H
  H245     1.0000 0.43790  0.49950  0.84030  Biso   1.000  H
  H246     1.0000 0.56210  0.50050  0.84030  Biso   1.000  H
  H247     1.0000 0.68790  0.75050  0.09030  Biso   1.000  H
  H248     1.0000 0.81210  0.74950  0.09030  Biso   1.000  H
  H249     1.0000 0.93790  0.99950  0.84030  Biso   1.000  H
  H250     1.0000 0.06210  0.00050  0.84030  Biso   1.000  H
  H251     1.0000 0.18790  0.25050  0.09030  Biso   1.000  H
  H252     1.0000 0.31210  0.24950  0.09030  Biso   1.000  H
  H253     1.0000 0.93790  0.49950  0.34030  Biso   1.000  H
  H254     1.0000 0.06210  0.50050  0.34030  Biso   1.000  H
  H255     1.0000 0.18790  0.75050  0.59030  Biso   1.000  H
  H256     1.0000 0.31210  0.74950  0.59030  Biso   1.000  H
  C449     1.0000 0.47140  0.98825  0.46010  Biso   1.000  C
  C450     1.0000 0.52860  0.01175  0.46010  Biso   1.000  C
  C451     1.0000 0.72140  0.26175  0.71010  Biso   1.000  C
  C452     1.0000 0.77860  0.23825  0.71010  Biso   1.000  C
  C453     1.0000 0.47140  0.48825  0.96010  Biso   1.000  C
  C454     1.0000 0.52860  0.51175  0.96010  Biso   1.000  C
  C455     1.0000 0.72140  0.76175  0.21010  Biso   1.000  C
  C456     1.0000 0.77860  0.73825  0.21010  Biso   1.000  C
  C457     1.0000 0.97140  0.98825  0.96010  Biso   1.000  C
  C458     1.0000 0.02860  0.01175  0.96010  Biso   1.000  C
  C459     1.0000 0.22140  0.26175  0.21010  Biso   1.000  C
  C460     1.0000 0.27860  0.23825  0.21010  Biso   1.000  C
  C461     1.0000 0.97140  0.48825  0.46010  Biso   1.000  C
  C462     1.0000 0.02860  0.51175  0.46010  Biso   1.000  C
  C463     1.0000 0.22140  0.76175  0.71010  Biso   1.000  C
  C464     1.0000 0.27860  0.73825  0.71010  Biso   1.000  C
  C465     1.0000 0.45550  0.97025  0.52820  Biso   1.000  C
  C466     1.0000 0.54450  0.02975  0.52820  Biso   1.000  C
  C467     1.0000 0.70550  0.27975  0.77820  Biso   1.000  C
  C468     1.0000 0.79450  0.22025  0.77820  Biso   1.000  C
  C469     1.0000 0.45550  0.47025  0.02820  Biso   1.000  C
  C470     1.0000 0.54450  0.52975  0.02820  Biso   1.000  C
  C471     1.0000 0.70550  0.77975  0.27820  Biso   1.000  C
  C472     1.0000 0.79450  0.72025  0.27820  Biso   1.000  C
  C473     1.0000 0.95550  0.97025  0.02820  Biso   1.000  C
  C474     1.0000 0.04450  0.02975  0.02820  Biso   1.000  C
  C475     1.0000 0.20550  0.27975  0.27820  Biso   1.000  C
  C476     1.0000 0.29450  0.22025  0.27820  Biso   1.000  C
  C477     1.0000 0.95550  0.47025  0.52820  Biso   1.000  C
  C478     1.0000 0.04450  0.52975  0.52820  Biso   1.000  C
  C479     1.0000 0.20550  0.77975  0.77820  Biso   1.000  C
  C480     1.0000 0.29450  0.72025  0.77820  Biso   1.000  C
  H257     1.0000 0.47930  0.97260  0.58020  Biso   1.000  H
  H258     1.0000 0.52070  0.02740  0.58020  Biso   1.000  H
  H259     1.0000 0.72930  0.27740  0.83020  Biso   1.000  H
  H260     1.0000 0.77070  0.22260  0.83020  Biso   1.000  H
  H261     1.0000 0.47930  0.47260  0.08020  Biso   1.000  H
  H262     1.0000 0.52070  0.52740  0.08020  Biso   1.000  H
  H263     1.0000 0.72930  0.77740  0.33020  Biso   1.000  H
  H264     1.0000 0.77070  0.72260  0.33020  Biso   1.000  H
  H265     1.0000 0.97930  0.97260  0.08020  Biso   1.000  H
  H266     1.0000 0.02070  0.02740  0.08020  Biso   1.000  H
  H267     1.0000 0.22930  0.27740  0.33020  Biso   1.000  H
  H268     1.0000 0.27070  0.22260  0.33020  Biso   1.000  H
  H269     1.0000 0.97930  0.47260  0.58020  Biso   1.000  H
  H270     1.0000 0.02070  0.52740  0.58020  Biso   1.000  H
  H271     1.0000 0.22930  0.77740  0.83020  Biso   1.000  H
  H272     1.0000 0.27070  0.72260  0.83020  Biso   1.000  H
  C481     1.0000 0.40260  0.94784  0.52020  Biso   1.000  C
  C482     1.0000 0.59740  0.05216  0.52020  Biso   1.000  C
  C483     1.0000 0.65260  0.30216  0.77020  Biso   1.000  C
  C484     1.0000 0.84740  0.19784  0.77020  Biso   1.000  C
  C485     1.0000 0.40260  0.44784  0.02020  Biso   1.000  C
  C486     1.0000 0.59740  0.55216  0.02020  Biso   1.000  C
  C487     1.0000 0.65260  0.80216  0.27020  Biso   1.000  C
  C488     1.0000 0.84740  0.69784  0.27020  Biso   1.000  C
  C489     1.0000 0.90260  0.94784  0.02020  Biso   1.000  C
  C490     1.0000 0.09740  0.05216  0.02020  Biso   1.000  C
  C491     1.0000 0.15260  0.30216  0.27020  Biso   1.000  C
  C492     1.0000 0.34740  0.19784  0.27020  Biso   1.000  C
  C493     1.0000 0.90260  0.44784  0.52020  Biso   1.000  C
  C494     1.0000 0.09740  0.55216  0.52020  Biso   1.000  C
  C495     1.0000 0.15260  0.80216  0.77020  Biso   1.000  C
  C496     1.0000 0.34740  0.69784  0.77020  Biso   1.000  C
  H273     1.0000 0.39310  0.93510  0.56710  Biso   1.000  H
  H274     1.0000 0.60690  0.06490  0.56710  Biso   1.000  H
  H275     1.0000 0.64310  0.31490  0.81710  Biso   1.000  H
  H276     1.0000 0.85690  0.18510  0.81710  Biso   1.000  H
  H277     1.0000 0.39310  0.43510  0.06710  Biso   1.000  H
  H278     1.0000 0.60690  0.56490  0.06710  Biso   1.000  H
  H279     1.0000 0.64310  0.81490  0.31710  Biso   1.000  H
  H280     1.0000 0.85690  0.68510  0.31710  Biso   1.000  H
  H281     1.0000 0.89310  0.93510  0.06710  Biso   1.000  H
  H282     1.0000 0.10690  0.06490  0.06710  Biso   1.000  H
  H283     1.0000 0.14310  0.31490  0.31710  Biso   1.000  H
  H284     1.0000 0.35690  0.18510  0.31710  Biso   1.000  H
  H285     1.0000 0.89310  0.43510  0.56710  Biso   1.000  H
  H286     1.0000 0.10690  0.56490  0.56710  Biso   1.000  H
  H287     1.0000 0.14310  0.81490  0.81710  Biso   1.000  H
  H288     1.0000 0.35690  0.68510  0.81710  Biso   1.000  H
  O193     1.0000 0.08670  0.00899  0.23350  Biso   1.000  O
  O194     1.0000 0.91330  0.99101  0.23350  Biso   1.000  O
  O195     1.0000 0.33670  0.24101  0.48350  Biso   1.000  O
  O196     1.0000 0.16330  0.25899  0.48350  Biso   1.000  O
  O197     1.0000 0.08670  0.50899  0.73350  Biso   1.000  O
  O198     1.0000 0.91330  0.49101  0.73350  Biso   1.000  O
  O199     1.0000 0.33670  0.74101  0.98350  Biso   1.000  O
  O200     1.0000 0.16330  0.75899  0.98350  Biso   1.000  O
  O201     1.0000 0.58670  0.00899  0.73350  Biso   1.000  O
  O202     1.0000 0.41330  0.99101  0.73350  Biso   1.000  O
  O203     1.0000 0.83670  0.24101  0.98350  Biso   1.000  O
  O204     1.0000 0.66330  0.25899  0.98350  Biso   1.000  O
  O205     1.0000 0.58670  0.50899  0.23350  Biso   1.000  O
  O206     1.0000 0.41330  0.49101  0.23350  Biso   1.000  O
  O207     1.0000 0.83670  0.74101  0.48350  Biso   1.000  O
  O208     1.0000 0.66330  0.75899  0.48350  Biso   1.000  O
  O209     1.0000 0.11910  0.06754  0.26820  Biso   1.000  O
  O210     1.0000 0.88090  0.93246  0.26820  Biso   1.000  O
  O211     1.0000 0.36910  0.18246  0.51820  Biso   1.000  O
  O212     1.0000 0.13090  0.31754  0.51820  Biso   1.000  O
  O213     1.0000 0.11910  0.56754  0.76820  Biso   1.000  O
  O214     1.0000 0.88090  0.43246  0.76820  Biso   1.000  O
  O215     1.0000 0.36910  0.68246  0.01820  Biso   1.000  O
  O216     1.0000 0.13090  0.81754  0.01820  Biso   1.000  O
  O217     1.0000 0.61910  0.06754  0.76820  Biso   1.000  O
  O218     1.0000 0.38090  0.93246  0.76820  Biso   1.000  O
  O219     1.0000 0.86910  0.18246  0.01820  Biso   1.000  O
  O220     1.0000 0.63090  0.31754  0.01820  Biso   1.000  O
  O221     1.0000 0.61910  0.56754  0.26820  Biso   1.000  O
  O222     1.0000 0.38090  0.43246  0.26820  Biso   1.000  O
  O223     1.0000 0.86910  0.68246  0.51820  Biso   1.000  O
  O224     1.0000 0.63090  0.81754  0.51820  Biso   1.000  O
