data_image0
_cell_length_a       23.337
_cell_length_b       13.429
_cell_length_c       29.654
_cell_angle_alpha    90
_cell_angle_beta     108.503
_cell_angle_gamma    90

_symmetry_space_group_name_H-M    "P 1"
_symmetry_int_tables_number       1

loop_
  _symmetry_equiv_pos_as_xyz
  'x, y, z'

loop_
  _atom_site_label
  _atom_site_occupancy
  _atom_site_fract_x
  _atom_site_fract_y
  _atom_site_fract_z
  _atom_site_thermal_displace_type
  _atom_site_B_iso_or_equiv
  _atom_site_type_symbol
  Cu1      1.0000 0.78758  0.24164  0.01123  Biso   1.000  Cu
  Cu2      1.0000 0.71242  0.74164  0.48877  Biso   1.000  Cu
  Cu3      1.0000 0.21242  0.75836  0.98877  Biso   1.000  Cu
  Cu4      1.0000 0.28758  0.25836  0.51123  Biso   1.000  Cu
  Cu5      1.0000 0.95524  0.26121  0.55762  Biso   1.000  Cu
  Cu6      1.0000 0.54476  0.76121  0.94238  Biso   1.000  Cu
  Cu7      1.0000 0.04476  0.73879  0.44238  Biso   1.000  Cu
  Cu8      1.0000 0.45524  0.23879  0.05762  Biso   1.000  Cu
  Cu9      1.0000 0.62917  0.29111  0.53530  Biso   1.000  Cu
  Cu10     1.0000 0.87083  0.79111  0.96470  Biso   1.000  Cu
  Cu11     1.0000 0.37083  0.70889  0.46470  Biso   1.000  Cu
  Cu12     1.0000 0.12917  0.20889  0.03530  Biso   1.000  Cu
  N1       1.0000 0.59941  0.15660  0.51020  Biso   1.000  N
  N2       1.0000 0.90059  0.65660  0.98980  Biso   1.000  N
  N3       1.0000 0.40059  0.84340  0.48980  Biso   1.000  N
  N4       1.0000 0.09941  0.34340  0.01020  Biso   1.000  N
  N5       1.0000 0.56956  0.33470  0.47338  Biso   1.000  N
  N6       1.0000 0.93044  0.83470  0.02662  Biso   1.000  N
  N7       1.0000 0.43044  0.66530  0.52662  Biso   1.000  N
  N8       1.0000 0.06956  0.16530  0.97338  Biso   1.000  N
  N9       1.0000 0.90488  0.31443  0.49447  Biso   1.000  N
  N10      1.0000 0.59512  0.81443  0.00553  Biso   1.000  N
  N11      1.0000 0.09512  0.68557  0.50553  Biso   1.000  N
  N12      1.0000 0.40488  0.18557  0.99447  Biso   1.000  N
  N13      1.0000 0.93401  0.13052  0.52338  Biso   1.000  N
  N14      1.0000 0.56599  0.63052  0.97662  Biso   1.000  N
  N15      1.0000 0.06599  0.86948  0.47662  Biso   1.000  N
  N16      1.0000 0.43401  0.36948  0.02338  Biso   1.000  N
  N17      1.0000 0.75213  0.37670  0.99290  Biso   1.000  N
  N18      1.0000 0.74787  0.87670  0.50710  Biso   1.000  N
  N19      1.0000 0.24787  0.62330  0.00710  Biso   1.000  N
  N20      1.0000 0.25213  0.12330  0.49290  Biso   1.000  N
  N21      1.0000 0.72266  0.20208  0.95121  Biso   1.000  N
  N22      1.0000 0.77734  0.70208  0.54879  Biso   1.000  N
  N23      1.0000 0.27734  0.79792  0.04879  Biso   1.000  N
  N24      1.0000 0.22266  0.29792  0.45121  Biso   1.000  N
  O1       1.0000 0.69229  0.23660  0.58829  Biso   1.000  O
  O2       1.0000 0.80771  0.73660  0.91171  Biso   1.000  O
  O3       1.0000 0.30771  0.76340  0.41171  Biso   1.000  O
  O4       1.0000 0.19229  0.26340  0.08829  Biso   1.000  O
  O5       1.0000 0.76791  0.33890  0.58742  Biso   1.000  O
  O6       1.0000 0.73209  0.83890  0.91258  Biso   1.000  O
  O7       1.0000 0.23209  0.66110  0.41258  Biso   1.000  O
  O8       1.0000 0.26791  0.16110  0.08742  Biso   1.000  O
  O9       1.0000 0.88021  0.24277  0.59456  Biso   1.000  O
  O10      1.0000 0.61979  0.74277  0.90544  Biso   1.000  O
  O11      1.0000 0.11979  0.75723  0.40544  Biso   1.000  O
  O12      1.0000 0.38021  0.25723  0.09456  Biso   1.000  O
  O13      1.0000 0.90840  0.36387  0.64822  Biso   1.000  O
  O14      1.0000 0.59160  0.86387  0.85178  Biso   1.000  O
  O15      1.0000 0.09160  0.63613  0.35178  Biso   1.000  O
  O16      1.0000 0.40840  0.13613  0.14822  Biso   1.000  O
  H1       1.0000 0.93030  0.37950  0.63250  Biso   1.000  H
  H2       1.0000 0.56970  0.87950  0.86750  Biso   1.000  H
  H3       1.0000 0.06970  0.62050  0.36750  Biso   1.000  H
  H4       1.0000 0.43030  0.12050  0.13250  Biso   1.000  H
  O17      1.0000 0.83599  0.96640  0.95496  Biso   1.000  O
  O18      1.0000 0.66401  0.46640  0.54504  Biso   1.000  O
  O19      1.0000 0.16401  0.03360  0.04504  Biso   1.000  O
  O20      1.0000 0.33599  0.53360  0.45496  Biso   1.000  O
  O21      1.0000 0.89570  0.90310  0.92181  Biso   1.000  O
  O22      1.0000 0.60430  0.40310  0.57819  Biso   1.000  O
  O23      1.0000 0.10430  0.09690  0.07819  Biso   1.000  O
  O24      1.0000 0.39570  0.59690  0.42181  Biso   1.000  O
  O25      1.0000 0.84411  0.26787  0.95692  Biso   1.000  O
  O26      1.0000 0.65589  0.76787  0.54308  Biso   1.000  O
  O27      1.0000 0.15589  0.73213  0.04308  Biso   1.000  O
  O28      1.0000 0.34411  0.23213  0.45692  Biso   1.000  O
  O29      1.0000 0.91212  0.14689  0.97823  Biso   1.000  O
  O30      1.0000 0.58788  0.64689  0.52177  Biso   1.000  O
  O31      1.0000 0.08788  0.85311  0.02177  Biso   1.000  O
  O32      1.0000 0.41212  0.35311  0.47823  Biso   1.000  O
  H5       1.0000 0.91780  0.17080  0.00470  Biso   1.000  H
  H6       1.0000 0.58220  0.67080  0.49530  Biso   1.000  H
  H7       1.0000 0.08220  0.82920  0.99530  Biso   1.000  H
  H8       1.0000 0.41780  0.32920  0.50470  Biso   1.000  H
  O33      1.0000 0.99300  0.80180  0.38426  Biso   1.000  O
  O34      1.0000 0.50700  0.30180  0.11574  Biso   1.000  O
  O35      1.0000 0.00700  0.19820  0.61574  Biso   1.000  O
  O36      1.0000 0.49300  0.69820  0.88426  Biso   1.000  O
  O37      1.0000 0.91993  0.76450  0.41265  Biso   1.000  O
  O38      1.0000 0.58007  0.26450  0.08735  Biso   1.000  O
  O39      1.0000 0.08007  0.23550  0.58735  Biso   1.000  O
  O40      1.0000 0.41993  0.73550  0.91265  Biso   1.000  O
  O41      1.0000 0.82862  0.61580  0.35056  Biso   1.000  O
  O42      1.0000 0.67138  0.11580  0.14944  Biso   1.000  O
  O43      1.0000 0.17138  0.38420  0.64944  Biso   1.000  O
  O44      1.0000 0.32862  0.88420  0.85056  Biso   1.000  O
  O45      1.0000 0.77819  0.74300  0.36752  Biso   1.000  O
  O46      1.0000 0.72181  0.24300  0.13248  Biso   1.000  O
  O47      1.0000 0.22181  0.25700  0.63248  Biso   1.000  O
  O48      1.0000 0.27819  0.75700  0.86752  Biso   1.000  O
  H9       1.0000 0.76840  0.70300  0.38470  Biso   1.000  H
  H10      1.0000 0.73160  0.20300  0.11530  Biso   1.000  H
  H11      1.0000 0.23160  0.29700  0.61530  Biso   1.000  H
  H12      1.0000 0.26840  0.79700  0.88470  Biso   1.000  H
  O49      1.0000 0.80504  0.77535  0.01823  Biso   1.000  O
  O50      1.0000 0.69496  0.27535  0.48177  Biso   1.000  O
  O51      1.0000 0.19496  0.22465  0.98177  Biso   1.000  O
  O52      1.0000 0.30504  0.72465  0.51823  Biso   1.000  O
  O53      1.0000 0.74467  0.90659  0.99877  Biso   1.000  O
  O54      1.0000 0.75533  0.40659  0.50123  Biso   1.000  O
  O55      1.0000 0.25533  0.09341  0.00123  Biso   1.000  O
  O56      1.0000 0.24467  0.59341  0.49877  Biso   1.000  O
  H13      1.0000 0.74010  0.88700  0.97170  Biso   1.000  H
  H14      1.0000 0.75990  0.38700  0.52830  Biso   1.000  H
  H15      1.0000 0.25990  0.11300  0.02830  Biso   1.000  H
  H16      1.0000 0.24010  0.61300  0.47170  Biso   1.000  H
  O57      1.0000 0.81144  0.10386  0.02995  Biso   1.000  O
  O58      1.0000 0.68856  0.60386  0.47005  Biso   1.000  O
  O59      1.0000 0.18856  0.89614  0.97005  Biso   1.000  O
  O60      1.0000 0.31144  0.39614  0.52995  Biso   1.000  O
  O61      1.0000 0.74025  0.12754  0.06305  Biso   1.000  O
  O62      1.0000 0.75975  0.62754  0.43695  Biso   1.000  O
  O63      1.0000 0.25975  0.87246  0.93695  Biso   1.000  O
  O64      1.0000 0.24025  0.37246  0.56305  Biso   1.000  O
  O65      1.0000 0.03174  0.61186  0.40819  Biso   1.000  O
  O66      1.0000 0.46826  0.11186  0.09181  Biso   1.000  O
  O67      1.0000 0.96826  0.38814  0.59181  Biso   1.000  O
  O68      1.0000 0.53174  0.88814  0.90819  Biso   1.000  O
  O69      1.0000 0.96911  0.54200  0.44065  Biso   1.000  O
  O70      1.0000 0.53089  0.04200  0.05935  Biso   1.000  O
  O71      1.0000 0.03089  0.45800  0.55935  Biso   1.000  O
  O72      1.0000 0.46911  0.95800  0.94065  Biso   1.000  O
  O73      1.0000 0.05855  0.37660  0.44750  Biso   1.000  O
  O74      1.0000 0.44145  0.87660  0.05250  Biso   1.000  O
  O75      1.0000 0.94145  0.62340  0.55250  Biso   1.000  O
  O76      1.0000 0.55855  0.12340  0.94750  Biso   1.000  O
  O77      1.0000 0.99707  0.24560  0.43482  Biso   1.000  O
  O78      1.0000 0.50293  0.74560  0.06518  Biso   1.000  O
  O79      1.0000 0.00293  0.75440  0.56518  Biso   1.000  O
  O80      1.0000 0.49707  0.25440  0.93482  Biso   1.000  O
  O81      1.0000 0.05537  0.30010  0.09417  Biso   1.000  O
  O82      1.0000 0.44463  0.80010  0.40583  Biso   1.000  O
  O83      1.0000 0.94463  0.69990  0.90583  Biso   1.000  O
  O84      1.0000 0.55537  0.19990  0.59417  Biso   1.000  O
  O85      1.0000 0.04957  0.16390  0.13480  Biso   1.000  O
  O86      1.0000 0.45043  0.66390  0.36520  Biso   1.000  O
  O87      1.0000 0.95043  0.83610  0.86520  Biso   1.000  O
  O88      1.0000 0.54957  0.33610  0.63480  Biso   1.000  O
  H17      1.0000 0.07020  0.14010  0.11970  Biso   1.000  H
  H18      1.0000 0.42980  0.64010  0.38030  Biso   1.000  H
  H19      1.0000 0.92980  0.85990  0.88030  Biso   1.000  H
  H20      1.0000 0.57020  0.35990  0.61970  Biso   1.000  H
  O89      1.0000 0.92982  0.22350  0.06277  Biso   1.000  O
  O90      1.0000 0.57018  0.72350  0.43723  Biso   1.000  O
  O91      1.0000 0.07018  0.77650  0.93723  Biso   1.000  O
  O92      1.0000 0.42982  0.27650  0.56277  Biso   1.000  O
  O93      1.0000 0.84583  0.29422  0.06868  Biso   1.000  O
  O94      1.0000 0.65417  0.79422  0.43132  Biso   1.000  O
  O95      1.0000 0.15417  0.70578  0.93132  Biso   1.000  O
  O96      1.0000 0.34583  0.20578  0.56868  Biso   1.000  O
  O97      1.0000 0.12777  0.28610  0.51945  Biso   1.000  O
  O98      1.0000 0.37223  0.78610  0.98055  Biso   1.000  O
  O99      1.0000 0.87223  0.71390  0.48055  Biso   1.000  O
  O100     1.0000 0.62777  0.21390  0.01945  Biso   1.000  O
  C1       1.0000 0.74568  0.27030  0.60413  Biso   1.000  C
  C2       1.0000 0.75432  0.77030  0.89587  Biso   1.000  C
  C3       1.0000 0.25432  0.72970  0.39587  Biso   1.000  C
  C4       1.0000 0.24568  0.22970  0.10413  Biso   1.000  C
  C5       1.0000 0.78603  0.21960  0.64858  Biso   1.000  C
  C6       1.0000 0.71397  0.71960  0.85142  Biso   1.000  C
  C7       1.0000 0.21397  0.78040  0.35142  Biso   1.000  C
  C8       1.0000 0.28603  0.28040  0.14858  Biso   1.000  C
  C9       1.0000 0.76154  0.16180  0.67677  Biso   1.000  C
  C10      1.0000 0.73846  0.66180  0.82323  Biso   1.000  C
  C11      1.0000 0.23846  0.83820  0.32323  Biso   1.000  C
  C12      1.0000 0.26154  0.33820  0.17677  Biso   1.000  C
  H21      1.0000 0.72010  0.15050  0.66710  Biso   1.000  H
  H22      1.0000 0.77990  0.65050  0.83290  Biso   1.000  H
  H23      1.0000 0.27990  0.84950  0.33290  Biso   1.000  H
  H24      1.0000 0.22010  0.34950  0.16710  Biso   1.000  H
  C13      1.0000 0.79778  0.12070  0.71909  Biso   1.000  C
  C14      1.0000 0.70222  0.62070  0.78091  Biso   1.000  C
  C15      1.0000 0.20222  0.87930  0.28091  Biso   1.000  C
  C16      1.0000 0.29778  0.37930  0.21909  Biso   1.000  C
  C17      1.0000 0.85973  0.13800  0.73258  Biso   1.000  C
  C18      1.0000 0.64027  0.63800  0.76742  Biso   1.000  C
  C19      1.0000 0.14027  0.86200  0.26742  Biso   1.000  C
  C20      1.0000 0.35973  0.36200  0.23258  Biso   1.000  C
  H25      1.0000 0.88470  0.11120  0.76090  Biso   1.000  H
  H26      1.0000 0.61530  0.61120  0.73910  Biso   1.000  H
  H27      1.0000 0.11530  0.88880  0.23910  Biso   1.000  H
  H28      1.0000 0.38470  0.38880  0.26090  Biso   1.000  H
  C21      1.0000 0.88464  0.19410  0.70482  Biso   1.000  C
  C22      1.0000 0.61536  0.69410  0.79518  Biso   1.000  C
  C23      1.0000 0.11536  0.80590  0.29518  Biso   1.000  C
  C24      1.0000 0.38464  0.30590  0.20482  Biso   1.000  C
  H29      1.0000 0.92610  0.20480  0.71450  Biso   1.000  H
  H30      1.0000 0.57390  0.70480  0.78550  Biso   1.000  H
  H31      1.0000 0.07390  0.79520  0.28550  Biso   1.000  H
  H32      1.0000 0.42610  0.29520  0.21450  Biso   1.000  H
  C25      1.0000 0.84825  0.23500  0.66230  Biso   1.000  C
  C26      1.0000 0.65175  0.73500  0.83770  Biso   1.000  C
  C27      1.0000 0.15175  0.76500  0.33770  Biso   1.000  C
  C28      1.0000 0.34825  0.26500  0.16230  Biso   1.000  C
  C29      1.0000 0.87912  0.28310  0.63088  Biso   1.000  C
  C30      1.0000 0.62088  0.78310  0.86912  Biso   1.000  C
  C31      1.0000 0.12088  0.71690  0.36912  Biso   1.000  C
  C32      1.0000 0.37912  0.21690  0.13088  Biso   1.000  C
  C33      1.0000 0.86108  0.96950  0.92558  Biso   1.000  C
  C34      1.0000 0.63892  0.46950  0.57442  Biso   1.000  C
  C35      1.0000 0.13892  0.03050  0.07442  Biso   1.000  C
  C36      1.0000 0.36108  0.53050  0.42558  Biso   1.000  C
  C37      1.0000 0.84535  0.04910  0.88811  Biso   1.000  C
  C38      1.0000 0.65465  0.54910  0.61189  Biso   1.000  C
  C39      1.0000 0.15465  0.95090  0.11189  Biso   1.000  C
  C40      1.0000 0.34535  0.45090  0.38811  Biso   1.000  C
  C41      1.0000 0.82335  0.01730  0.84111  Biso   1.000  C
  C42      1.0000 0.67665  0.51730  0.65889  Biso   1.000  C
  C43      1.0000 0.17665  0.98270  0.15889  Biso   1.000  C
  C44      1.0000 0.32335  0.48270  0.34111  Biso   1.000  C
  H33      1.0000 0.82240  0.94950  0.83450  Biso   1.000  H
  H34      1.0000 0.67760  0.44950  0.66550  Biso   1.000  H
  H35      1.0000 0.17760  0.05050  0.16550  Biso   1.000  H
  H36      1.0000 0.32240  0.55050  0.33450  Biso   1.000  H
  C45      1.0000 0.80278  0.08430  0.80397  Biso   1.000  C
  C46      1.0000 0.69722  0.58430  0.69603  Biso   1.000  C
  C47      1.0000 0.19722  0.91570  0.19603  Biso   1.000  C
  C48      1.0000 0.30278  0.41570  0.30397  Biso   1.000  C
  C49      1.0000 0.80435  0.18520  0.81457  Biso   1.000  C
  C50      1.0000 0.69565  0.68520  0.68543  Biso   1.000  C
  C51      1.0000 0.19565  0.81480  0.18543  Biso   1.000  C
  C52      1.0000 0.30435  0.31480  0.31457  Biso   1.000  C
  H37      1.0000 0.79090  0.23140  0.79010  Biso   1.000  H
  H38      1.0000 0.70910  0.73140  0.70990  Biso   1.000  H
  H39      1.0000 0.20910  0.76860  0.20990  Biso   1.000  H
  H40      1.0000 0.29090  0.26860  0.29010  Biso   1.000  H
  C53      1.0000 0.82560  0.21720  0.86103  Biso   1.000  C
  C54      1.0000 0.67440  0.71720  0.63897  Biso   1.000  C
  C55      1.0000 0.17440  0.78280  0.13897  Biso   1.000  C
  C56      1.0000 0.32560  0.28280  0.36103  Biso   1.000  C
  H41      1.0000 0.82580  0.28500  0.86750  Biso   1.000  H
  H42      1.0000 0.67420  0.78500  0.63250  Biso   1.000  H
  H43      1.0000 0.17420  0.71500  0.13250  Biso   1.000  H
  H44      1.0000 0.32580  0.21500  0.36750  Biso   1.000  H
  C57      1.0000 0.84664  0.15080  0.89836  Biso   1.000  C
  C58      1.0000 0.65336  0.65080  0.60164  Biso   1.000  C
  C59      1.0000 0.15336  0.84920  0.10164  Biso   1.000  C
  C60      1.0000 0.34664  0.34920  0.39836  Biso   1.000  C
  C61      1.0000 0.86769  0.19340  0.94750  Biso   1.000  C
  C62      1.0000 0.63231  0.69340  0.55250  Biso   1.000  C
  C63      1.0000 0.13231  0.80660  0.05250  Biso   1.000  C
  C64      1.0000 0.36769  0.30660  0.44750  Biso   1.000  C
  C65      1.0000 0.70520  0.06090  0.74038  Biso   1.000  C
  C66      1.0000 0.79480  0.56090  0.75962  Biso   1.000  C
  C67      1.0000 0.29480  0.93910  0.25962  Biso   1.000  C
  C68      1.0000 0.20520  0.43910  0.24038  Biso   1.000  C
  C69      1.0000 0.77447  0.05290  0.75129  Biso   1.000  C
  C70      1.0000 0.72553  0.55290  0.74871  Biso   1.000  C
  C71      1.0000 0.22553  0.94710  0.24871  Biso   1.000  C
  C72      1.0000 0.27447  0.44710  0.25129  Biso   1.000  C
  C73      1.0000 0.79070  0.94500  0.74226  Biso   1.000  C
  C74      1.0000 0.70930  0.44500  0.75774  Biso   1.000  C
  C75      1.0000 0.20930  0.05500  0.25774  Biso   1.000  C
  C76      1.0000 0.29070  0.55500  0.24226  Biso   1.000  C
  C77      1.0000 0.93811  0.79130  0.38027  Biso   1.000  C
  C78      1.0000 0.56189  0.29130  0.11973  Biso   1.000  C
  C79      1.0000 0.06189  0.20870  0.61973  Biso   1.000  C
  C80      1.0000 0.43811  0.70870  0.88027  Biso   1.000  C
  C81      1.0000 0.89376  0.81640  0.33264  Biso   1.000  C
  C82      1.0000 0.60624  0.31640  0.16736  Biso   1.000  C
  C83      1.0000 0.10624  0.18360  0.66736  Biso   1.000  C
  C84      1.0000 0.39376  0.68360  0.83264  Biso   1.000  C
  C85      1.0000 0.91136  0.87870  0.30244  Biso   1.000  C
  C86      1.0000 0.58864  0.37870  0.19756  Biso   1.000  C
  C87      1.0000 0.08864  0.12130  0.69756  Biso   1.000  C
  C88      1.0000 0.41136  0.62130  0.80244  Biso   1.000  C
  H45      1.0000 0.95090  0.90200  0.31160  Biso   1.000  H
  H46      1.0000 0.54910  0.40200  0.18840  Biso   1.000  H
  H47      1.0000 0.04910  0.09800  0.68840  Biso   1.000  H
  H48      1.0000 0.45090  0.59800  0.81160  Biso   1.000  H
  C89      1.0000 0.87174  0.90760  0.25891  Biso   1.000  C
  C90      1.0000 0.62826  0.40760  0.24109  Biso   1.000  C
  C91      1.0000 0.12826  0.09240  0.74109  Biso   1.000  C
  C92      1.0000 0.37174  0.59240  0.75891  Biso   1.000  C
  C93      1.0000 0.81298  0.87120  0.24561  Biso   1.000  C
  C94      1.0000 0.68702  0.37120  0.25439  Biso   1.000  C
  C95      1.0000 0.18702  0.12880  0.75439  Biso   1.000  C
  C96      1.0000 0.31298  0.62880  0.74561  Biso   1.000  C
  H49      1.0000 0.78540  0.89070  0.21680  Biso   1.000  H
  H50      1.0000 0.71460  0.39070  0.28320  Biso   1.000  H
  H51      1.0000 0.21460  0.10930  0.78320  Biso   1.000  H
  H52      1.0000 0.28540  0.60930  0.71680  Biso   1.000  H
  C97      1.0000 0.79502  0.80640  0.27467  Biso   1.000  C
  C98      1.0000 0.70498  0.30640  0.22533  Biso   1.000  C
  C99      1.0000 0.20498  0.19360  0.72533  Biso   1.000  C
  C100     1.0000 0.29502  0.69360  0.77467  Biso   1.000  C
  H53      1.0000 0.75590  0.78100  0.26480  Biso   1.000  H
  H54      1.0000 0.74410  0.28100  0.23520  Biso   1.000  H
  H55      1.0000 0.24410  0.21900  0.73520  Biso   1.000  H
  H56      1.0000 0.25590  0.71900  0.76480  Biso   1.000  H
  C101     1.0000 0.83506  0.77910  0.31852  Biso   1.000  C
  C102     1.0000 0.66494  0.27910  0.18148  Biso   1.000  C
  C103     1.0000 0.16494  0.22090  0.68148  Biso   1.000  C
  C104     1.0000 0.33506  0.72090  0.81852  Biso   1.000  C
  C105     1.0000 0.81409  0.70050  0.34833  Biso   1.000  C
  C106     1.0000 0.68591  0.20050  0.15167  Biso   1.000  C
  C107     1.0000 0.18591  0.29950  0.65167  Biso   1.000  C
  C108     1.0000 0.31409  0.79950  0.84833  Biso   1.000  C
  C109     1.0000 0.78607  0.85310  0.02890  Biso   1.000  C
  C110     1.0000 0.71393  0.35310  0.47110  Biso   1.000  C
  C111     1.0000 0.21393  0.14690  0.97110  Biso   1.000  C
  C112     1.0000 0.28607  0.64690  0.52890  Biso   1.000  C
  C113     1.0000 0.81016  0.89310  0.07816  Biso   1.000  C
  C114     1.0000 0.68984  0.39310  0.42184  Biso   1.000  C
  C115     1.0000 0.18984  0.10690  0.92184  Biso   1.000  C
  C116     1.0000 0.31016  0.60690  0.57816  Biso   1.000  C
  C117     1.0000 0.83814  0.82570  0.11391  Biso   1.000  C
  C118     1.0000 0.66186  0.32570  0.38609  Biso   1.000  C
  C119     1.0000 0.16186  0.17430  0.88609  Biso   1.000  C
  C120     1.0000 0.33814  0.67430  0.61391  Biso   1.000  C
  H57      1.0000 0.84060  0.75920  0.10600  Biso   1.000  H
  H58      1.0000 0.65940  0.25920  0.39400  Biso   1.000  H
  H59      1.0000 0.15940  0.24080  0.89400  Biso   1.000  H
  H60      1.0000 0.34060  0.74080  0.60600  Biso   1.000  H
  C121     1.0000 0.86224  0.85420  0.16054  Biso   1.000  C
  C122     1.0000 0.63776  0.35420  0.33946  Biso   1.000  C
  C123     1.0000 0.13776  0.14580  0.83946  Biso   1.000  C
  C124     1.0000 0.36224  0.64580  0.66054  Biso   1.000  C
  H61      1.0000 0.88070  0.80730  0.18360  Biso   1.000  H
  H62      1.0000 0.61930  0.30730  0.31640  Biso   1.000  H
  H63      1.0000 0.11930  0.19270  0.81640  Biso   1.000  H
  H64      1.0000 0.38070  0.69270  0.68360  Biso   1.000  H
  C125     1.0000 0.85911  0.95360  0.17338  Biso   1.000  C
  C126     1.0000 0.64089  0.45360  0.32662  Biso   1.000  C
  C127     1.0000 0.14089  0.04640  0.82662  Biso   1.000  C
  C128     1.0000 0.35911  0.54640  0.67338  Biso   1.000  C
  C129     1.0000 0.83204  0.02130  0.13809  Biso   1.000  C
  C130     1.0000 0.66796  0.52130  0.36191  Biso   1.000  C
  C131     1.0000 0.16796  0.97870  0.86191  Biso   1.000  C
  C132     1.0000 0.33204  0.47870  0.63809  Biso   1.000  C
  H65      1.0000 0.83010  0.08780  0.14620  Biso   1.000  H
  H66      1.0000 0.66990  0.58780  0.35380  Biso   1.000  H
  H67      1.0000 0.16990  0.91220  0.85380  Biso   1.000  H
  H68      1.0000 0.33010  0.41220  0.64620  Biso   1.000  H
  C133     1.0000 0.80750  0.99280  0.09064  Biso   1.000  C
  C134     1.0000 0.69250  0.49280  0.40936  Biso   1.000  C
  C135     1.0000 0.19250  0.00720  0.90936  Biso   1.000  C
  C136     1.0000 0.30750  0.50720  0.59064  Biso   1.000  C
  C137     1.0000 0.78307  0.07880  0.05775  Biso   1.000  C
  C138     1.0000 0.71693  0.57880  0.44225  Biso   1.000  C
  C139     1.0000 0.21693  0.92120  0.94225  Biso   1.000  C
  C140     1.0000 0.28307  0.42120  0.55775  Biso   1.000  C
  C141     1.0000 0.95700  0.98790  0.23411  Biso   1.000  C
  C142     1.0000 0.54300  0.48790  0.26589  Biso   1.000  C
  C143     1.0000 0.04300  0.01210  0.76589  Biso   1.000  C
  C144     1.0000 0.45700  0.51210  0.73411  Biso   1.000  C
  C145     1.0000 0.88839  0.98320  0.22612  Biso   1.000  C
  C146     1.0000 0.61161  0.48320  0.27388  Biso   1.000  C
  C147     1.0000 0.11161  0.01680  0.77388  Biso   1.000  C
  C148     1.0000 0.38839  0.51680  0.72612  Biso   1.000  C
  C149     1.0000 0.86510  0.08530  0.23707  Biso   1.000  C
  C150     1.0000 0.63490  0.58530  0.26293  Biso   1.000  C
  C151     1.0000 0.13490  0.91470  0.76293  Biso   1.000  C
  C152     1.0000 0.36510  0.41470  0.73707  Biso   1.000  C
  C153     1.0000 0.99169  0.54640  0.40976  Biso   1.000  C
  C154     1.0000 0.50831  0.04640  0.09024  Biso   1.000  C
  C155     1.0000 0.00831  0.45360  0.59024  Biso   1.000  C
  C156     1.0000 0.49169  0.95360  0.90976  Biso   1.000  C
  C157     1.0000 0.97539  0.47410  0.36847  Biso   1.000  C
  C158     1.0000 0.52461  0.97410  0.13153  Biso   1.000  C
  C159     1.0000 0.02461  0.52590  0.63153  Biso   1.000  C
  C160     1.0000 0.47539  0.02590  0.86847  Biso   1.000  C
  C161     1.0000 0.95263  0.51130  0.32241  Biso   1.000  C
  C162     1.0000 0.54737  0.01130  0.17759  Biso   1.000  C
  C163     1.0000 0.04737  0.48870  0.67759  Biso   1.000  C
  C164     1.0000 0.45263  0.98870  0.82241  Biso   1.000  C
  H69      1.0000 0.94920  0.57980  0.31760  Biso   1.000  H
  H70      1.0000 0.55080  0.07980  0.18240  Biso   1.000  H
  H71      1.0000 0.05080  0.42020  0.68240  Biso   1.000  H
  H72      1.0000 0.44920  0.92020  0.81760  Biso   1.000  H
  C165     1.0000 0.93485  0.44740  0.28318  Biso   1.000  C
  C166     1.0000 0.56515  0.94740  0.21682  Biso   1.000  C
  C167     1.0000 0.06515  0.55260  0.71682  Biso   1.000  C
  C168     1.0000 0.43485  0.05260  0.78318  Biso   1.000  C
  C169     1.0000 0.93779  0.34580  0.29139  Biso   1.000  C
  C170     1.0000 0.56221  0.84580  0.20861  Biso   1.000  C
  C171     1.0000 0.06221  0.65420  0.70861  Biso   1.000  C
  C172     1.0000 0.43779  0.15420  0.79139  Biso   1.000  C
  H73      1.0000 0.92500  0.30220  0.26580  Biso   1.000  H
  H74      1.0000 0.57500  0.80220  0.23420  Biso   1.000  H
  H75      1.0000 0.07500  0.69780  0.73420  Biso   1.000  H
  H76      1.0000 0.42500  0.19780  0.76580  Biso   1.000  H
  C173     1.0000 0.95929  0.30830  0.33677  Biso   1.000  C
  C174     1.0000 0.54071  0.80830  0.16323  Biso   1.000  C
  C175     1.0000 0.04071  0.69170  0.66323  Biso   1.000  C
  C176     1.0000 0.45929  0.19170  0.83677  Biso   1.000  C
  H77      1.0000 0.96000  0.23980  0.34150  Biso   1.000  H
  H78      1.0000 0.54000  0.73980  0.15850  Biso   1.000  H
  H79      1.0000 0.04000  0.76020  0.65850  Biso   1.000  H
  H80      1.0000 0.46000  0.26020  0.84150  Biso   1.000  H
  C177     1.0000 0.98004  0.37150  0.37582  Biso   1.000  C
  C178     1.0000 0.51996  0.87150  0.12418  Biso   1.000  C
  C179     1.0000 0.01996  0.62850  0.62418  Biso   1.000  C
  C180     1.0000 0.48004  0.12850  0.87582  Biso   1.000  C
  C181     1.0000 0.01136  0.32460  0.42273  Biso   1.000  C
  C182     1.0000 0.48864  0.82460  0.07727  Biso   1.000  C
  C183     1.0000 0.98864  0.67540  0.57727  Biso   1.000  C
  C184     1.0000 0.51136  0.17540  0.92273  Biso   1.000  C
  C185     1.0000 0.03638  0.25620  0.12180  Biso   1.000  C
  C186     1.0000 0.46362  0.75620  0.37820  Biso   1.000  C
  C187     1.0000 0.96362  0.74380  0.87820  Biso   1.000  C
  C188     1.0000 0.53638  0.24380  0.62180  Biso   1.000  C
  C189     1.0000 0.99970  0.30710  0.14870  Biso   1.000  C
  C190     1.0000 0.50030  0.80710  0.35130  Biso   1.000  C
  C191     1.0000 0.00030  0.69290  0.85130  Biso   1.000  C
  C192     1.0000 0.49970  0.19290  0.64870  Biso   1.000  C
  C193     1.0000 0.03148  0.34940  0.19229  Biso   1.000  C
  C194     1.0000 0.46852  0.84940  0.30771  Biso   1.000  C
  C195     1.0000 0.96852  0.65060  0.80771  Biso   1.000  C
  C196     1.0000 0.53148  0.15060  0.69229  Biso   1.000  C
  H81      1.0000 0.07310  0.34100  0.20450  Biso   1.000  H
  H82      1.0000 0.42690  0.84100  0.29550  Biso   1.000  H
  H83      1.0000 0.92690  0.65900  0.79550  Biso   1.000  H
  H84      1.0000 0.57310  0.15900  0.70450  Biso   1.000  H
  C197     1.0000 0.00193  0.40350  0.21746  Biso   1.000  C
  C198     1.0000 0.49807  0.90350  0.28254  Biso   1.000  C
  C199     1.0000 0.99807  0.59650  0.78254  Biso   1.000  C
  C200     1.0000 0.50193  0.09650  0.71746  Biso   1.000  C
  H85      1.0000 0.02390  0.43060  0.24670  Biso   1.000  H
  H86      1.0000 0.47610  0.93060  0.25330  Biso   1.000  H
  H87      1.0000 0.97610  0.56940  0.75330  Biso   1.000  H
  H88      1.0000 0.52390  0.06940  0.74670  Biso   1.000  H
  C201     1.0000 0.94002  0.41850  0.20020  Biso   1.000  C
  C202     1.0000 0.55998  0.91850  0.29980  Biso   1.000  C
  C203     1.0000 0.05998  0.58150  0.79980  Biso   1.000  C
  C204     1.0000 0.44002  0.08150  0.70020  Biso   1.000  C
  C205     1.0000 0.90834  0.37700  0.15658  Biso   1.000  C
  C206     1.0000 0.59166  0.87700  0.34342  Biso   1.000  C
  C207     1.0000 0.09166  0.62300  0.84342  Biso   1.000  C
  C208     1.0000 0.40834  0.12300  0.65658  Biso   1.000  C
  H89      1.0000 0.86680  0.38690  0.14430  Biso   1.000  H
  H90      1.0000 0.63320  0.88690  0.35570  Biso   1.000  H
  H91      1.0000 0.13320  0.61310  0.85570  Biso   1.000  H
  H92      1.0000 0.36680  0.11310  0.64430  Biso   1.000  H
  C209     1.0000 0.93746  0.32070  0.13073  Biso   1.000  C
  C210     1.0000 0.56254  0.82070  0.36927  Biso   1.000  C
  C211     1.0000 0.06254  0.67930  0.86927  Biso   1.000  C
  C212     1.0000 0.43746  0.17930  0.63073  Biso   1.000  C
  C213     1.0000 0.90202  0.27460  0.08339  Biso   1.000  C
  C214     1.0000 0.59798  0.77460  0.41661  Biso   1.000  C
  C215     1.0000 0.09798  0.72540  0.91661  Biso   1.000  C
  C216     1.0000 0.40202  0.22540  0.58339  Biso   1.000  C
  C217     1.0000 0.92910  0.59240  0.22491  Biso   1.000  C
  C218     1.0000 0.57090  0.09240  0.27509  Biso   1.000  C
  C219     1.0000 0.07090  0.40760  0.77509  Biso   1.000  C
  C220     1.0000 0.42910  0.90760  0.72491  Biso   1.000  C
  C221     1.0000 0.91159  0.48270  0.23083  Biso   1.000  C
  C222     1.0000 0.58841  0.98270  0.26917  Biso   1.000  C
  C223     1.0000 0.08841  0.51730  0.76917  Biso   1.000  C
  C224     1.0000 0.41159  0.01730  0.73083  Biso   1.000  C
  C225     1.0000 0.84213  0.47350  0.21458  Biso   1.000  C
  C226     1.0000 0.65787  0.97350  0.28542  Biso   1.000  C
  C227     1.0000 0.15787  0.52650  0.78542  Biso   1.000  C
  C228     1.0000 0.34213  0.02650  0.71458  Biso   1.000  C
  C229     1.0000 0.61476  0.06800  0.53002  Biso   1.000  C
  C230     1.0000 0.88524  0.56800  0.96998  Biso   1.000  C
  C231     1.0000 0.38524  0.93200  0.46998  Biso   1.000  C
  C232     1.0000 0.11476  0.43200  0.03002  Biso   1.000  C
  H93      1.0000 0.64370  0.06460  0.55990  Biso   1.000  H
  H94      1.0000 0.85630  0.56460  0.94010  Biso   1.000  H
  H95      1.0000 0.35630  0.93540  0.44010  Biso   1.000  H
  H96      1.0000 0.14370  0.43540  0.05990  Biso   1.000  H
  C233     1.0000 0.58920  0.97970  0.50776  Biso   1.000  C
  C234     1.0000 0.91080  0.47970  0.99224  Biso   1.000  C
  C235     1.0000 0.41080  0.02030  0.49224  Biso   1.000  C
  C236     1.0000 0.08920  0.52030  0.00776  Biso   1.000  C
  H97      1.0000 0.60100  0.91870  0.52270  Biso   1.000  H
  H98      1.0000 0.89900  0.41870  0.97730  Biso   1.000  H
  H99      1.0000 0.39900  0.08130  0.47730  Biso   1.000  H
  H100     1.0000 0.10100  0.58130  0.02270  Biso   1.000  H
  C237     1.0000 0.54669  0.98390  0.46405  Biso   1.000  C
  C238     1.0000 0.95331  0.48390  0.03595  Biso   1.000  C
  C239     1.0000 0.45331  0.01610  0.53595  Biso   1.000  C
  C240     1.0000 0.04669  0.51610  0.96405  Biso   1.000  C
  H101     1.0000 0.52880  0.92560  0.44920  Biso   1.000  H
  H102     1.0000 0.97120  0.42560  0.05080  Biso   1.000  H
  H103     1.0000 0.47120  0.07440  0.55080  Biso   1.000  H
  H104     1.0000 0.02880  0.57440  0.94920  Biso   1.000  H
  C241     1.0000 0.52976  0.07610  0.44131  Biso   1.000  C
  C242     1.0000 0.97024  0.57610  0.05869  Biso   1.000  C
  C243     1.0000 0.47024  0.92390  0.55869  Biso   1.000  C
  C244     1.0000 0.02976  0.42390  0.94131  Biso   1.000  C
  C245     1.0000 0.48702  0.08890  0.39494  Biso   1.000  C
  C246     1.0000 0.01298  0.58890  0.10506  Biso   1.000  C
  C247     1.0000 0.51298  0.91110  0.60506  Biso   1.000  C
  C248     1.0000 0.98702  0.41110  0.89494  Biso   1.000  C
  H105     1.0000 0.46790  0.03340  0.37800  Biso   1.000  H
  H106     1.0000 0.03210  0.53340  0.12200  Biso   1.000  H
  H107     1.0000 0.53210  0.96660  0.62200  Biso   1.000  H
  H108     1.0000 0.96790  0.46660  0.87800  Biso   1.000  H
  C249     1.0000 0.47411  0.17930  0.37555  Biso   1.000  C
  C250     1.0000 0.02589  0.67930  0.12445  Biso   1.000  C
  C251     1.0000 0.52589  0.82070  0.62445  Biso   1.000  C
  C252     1.0000 0.97411  0.32070  0.87555  Biso   1.000  C
  H109     1.0000 0.44670  0.18510  0.34510  Biso   1.000  H
  H110     1.0000 0.05330  0.68510  0.15490  Biso   1.000  H
  H111     1.0000 0.55330  0.81490  0.65490  Biso   1.000  H
  H112     1.0000 0.94670  0.31490  0.84510  Biso   1.000  H
  C253     1.0000 0.50127  0.26760  0.40042  Biso   1.000  C
  C254     1.0000 0.99873  0.76760  0.09958  Biso   1.000  C
  C255     1.0000 0.49873  0.73240  0.59958  Biso   1.000  C
  C256     1.0000 0.00127  0.23240  0.90042  Biso   1.000  C
  C257     1.0000 0.49112  0.36530  0.38263  Biso   1.000  C
  C258     1.0000 0.00888  0.86530  0.11737  Biso   1.000  C
  C259     1.0000 0.50888  0.63470  0.61737  Biso   1.000  C
  C260     1.0000 0.99112  0.13470  0.88263  Biso   1.000  C
  H113     1.0000 0.46440  0.37660  0.35230  Biso   1.000  H
  H114     1.0000 0.03560  0.87660  0.14770  Biso   1.000  H
  H115     1.0000 0.53560  0.62340  0.64770  Biso   1.000  H
  H116     1.0000 0.96440  0.12340  0.85230  Biso   1.000  H
  C261     1.0000 0.51957  0.44190  0.40894  Biso   1.000  C
  C262     1.0000 0.98043  0.94190  0.09106  Biso   1.000  C
  C263     1.0000 0.48043  0.55810  0.59106  Biso   1.000  C
  C264     1.0000 0.01957  0.05810  0.90894  Biso   1.000  C
  H117     1.0000 0.51350  0.50620  0.39670  Biso   1.000  H
  H118     1.0000 0.98650  0.00620  0.10330  Biso   1.000  H
  H119     1.0000 0.48650  0.49380  0.60330  Biso   1.000  H
  H120     1.0000 0.01350  0.99380  0.89670  Biso   1.000  H
  C265     1.0000 0.55839  0.42540  0.45469  Biso   1.000  C
  C266     1.0000 0.94161  0.92540  0.04531  Biso   1.000  C
  C267     1.0000 0.44161  0.57460  0.54531  Biso   1.000  C
  C268     1.0000 0.05839  0.07460  0.95469  Biso   1.000  C
  H121     1.0000 0.57720  0.47970  0.47290  Biso   1.000  H
  H122     1.0000 0.92280  0.97970  0.02710  Biso   1.000  H
  H123     1.0000 0.42280  0.52030  0.52710  Biso   1.000  H
  H124     1.0000 0.07720  0.02030  0.97290  Biso   1.000  H
  C269     1.0000 0.54212  0.25660  0.44630  Biso   1.000  C
  C270     1.0000 0.95788  0.75660  0.05370  Biso   1.000  C
  C271     1.0000 0.45788  0.74340  0.55370  Biso   1.000  C
  C272     1.0000 0.04212  0.24340  0.94630  Biso   1.000  C
  C273     1.0000 0.55739  0.16020  0.46656  Biso   1.000  C
  C274     1.0000 0.94261  0.66020  0.03344  Biso   1.000  C
  C275     1.0000 0.44261  0.83980  0.53344  Biso   1.000  C
  C276     1.0000 0.05739  0.33980  0.96656  Biso   1.000  C
  C277     1.0000 0.89352  0.40750  0.48009  Biso   1.000  C
  C278     1.0000 0.60648  0.90750  0.01991  Biso   1.000  C
  C279     1.0000 0.10648  0.59250  0.51991  Biso   1.000  C
  C280     1.0000 0.39352  0.09250  0.98009  Biso   1.000  C
  H125     1.0000 0.91060  0.45850  0.50130  Biso   1.000  H
  H126     1.0000 0.58940  0.95850  0.99870  Biso   1.000  H
  H127     1.0000 0.08940  0.54150  0.49870  Biso   1.000  H
  H128     1.0000 0.41060  0.04150  0.00130  Biso   1.000  H
  C281     1.0000 0.85686  0.43270  0.43426  Biso   1.000  C
  C282     1.0000 0.64314  0.93270  0.06574  Biso   1.000  C
  C283     1.0000 0.14314  0.56730  0.56574  Biso   1.000  C
  C284     1.0000 0.35686  0.06730  0.93426  Biso   1.000  C
  H129     1.0000 0.85060  0.49920  0.42530  Biso   1.000  H
  H130     1.0000 0.64940  0.99920  0.07470  Biso   1.000  H
  H131     1.0000 0.14940  0.50080  0.57470  Biso   1.000  H
  H132     1.0000 0.35060  0.00080  0.92530  Biso   1.000  H
  C285     1.0000 0.83078  0.36020  0.40329  Biso   1.000  C
  C286     1.0000 0.66922  0.86020  0.09671  Biso   1.000  C
  C287     1.0000 0.16922  0.63980  0.59671  Biso   1.000  C
  C288     1.0000 0.33078  0.13980  0.90329  Biso   1.000  C
  H133     1.0000 0.80530  0.37660  0.37310  Biso   1.000  H
  H134     1.0000 0.69470  0.87660  0.12690  Biso   1.000  H
  H135     1.0000 0.19470  0.62340  0.62690  Biso   1.000  H
  H136     1.0000 0.30530  0.12340  0.87310  Biso   1.000  H
  C289     1.0000 0.84186  0.25980  0.41641  Biso   1.000  C
  C290     1.0000 0.65814  0.75980  0.08359  Biso   1.000  C
  C291     1.0000 0.15814  0.74020  0.58359  Biso   1.000  C
  C292     1.0000 0.34186  0.24020  0.91641  Biso   1.000  C
  C293     1.0000 0.81820  0.17610  0.38649  Biso   1.000  C
  C294     1.0000 0.68180  0.67610  0.11351  Biso   1.000  C
  C295     1.0000 0.18180  0.82390  0.61351  Biso   1.000  C
  C296     1.0000 0.31820  0.32390  0.88649  Biso   1.000  C
  H137     1.0000 0.79220  0.18720  0.35590  Biso   1.000  H
  H138     1.0000 0.70780  0.68720  0.14410  Biso   1.000  H
  H139     1.0000 0.20780  0.81280  0.64410  Biso   1.000  H
  H140     1.0000 0.29220  0.31280  0.85590  Biso   1.000  H
  C297     1.0000 0.83240  0.08220  0.40110  Biso   1.000  C
  C298     1.0000 0.66760  0.58220  0.09890  Biso   1.000  C
  C299     1.0000 0.16760  0.91780  0.59890  Biso   1.000  C
  C300     1.0000 0.33240  0.41780  0.90110  Biso   1.000  C
  H141     1.0000 0.81630  0.02990  0.38040  Biso   1.000  H
  H142     1.0000 0.68370  0.52990  0.11960  Biso   1.000  H
  H143     1.0000 0.18370  0.97010  0.61960  Biso   1.000  H
  H144     1.0000 0.31630  0.47010  0.88040  Biso   1.000  H
  C301     1.0000 0.87214  0.06090  0.44802  Biso   1.000  C
  C302     1.0000 0.62786  0.56090  0.05198  Biso   1.000  C
  C303     1.0000 0.12786  0.93910  0.55198  Biso   1.000  C
  C304     1.0000 0.37214  0.43910  0.94802  Biso   1.000  C
  C305     1.0000 0.88950  0.96630  0.46587  Biso   1.000  C
  C306     1.0000 0.61050  0.46630  0.03413  Biso   1.000  C
  C307     1.0000 0.11050  0.03370  0.53413  Biso   1.000  C
  C308     1.0000 0.38950  0.53370  0.96587  Biso   1.000  C
  H145     1.0000 0.87460  0.91070  0.44710  Biso   1.000  H
  H146     1.0000 0.62540  0.41070  0.05290  Biso   1.000  H
  H147     1.0000 0.12540  0.08930  0.55290  Biso   1.000  H
  H148     1.0000 0.37460  0.58930  0.94710  Biso   1.000  H
  C309     1.0000 0.92820  0.95440  0.51065  Biso   1.000  C
  C310     1.0000 0.57180  0.45440  0.98935  Biso   1.000  C
  C311     1.0000 0.07180  0.04560  0.48935  Biso   1.000  C
  C312     1.0000 0.42820  0.54560  0.01065  Biso   1.000  C
  H149     1.0000 0.94020  0.89110  0.52270  Biso   1.000  H
  H150     1.0000 0.55980  0.39110  0.97730  Biso   1.000  H
  H151     1.0000 0.05980  0.10890  0.47730  Biso   1.000  H
  H152     1.0000 0.44020  0.60890  0.02270  Biso   1.000  H
  C313     1.0000 0.94970  0.03870  0.53833  Biso   1.000  C
  C314     1.0000 0.55030  0.53870  0.96167  Biso   1.000  C
  C315     1.0000 0.05030  0.96130  0.46167  Biso   1.000  C
  C316     1.0000 0.44970  0.46130  0.03833  Biso   1.000  C
  H153     1.0000 0.97640  0.02980  0.56890  Biso   1.000  H
  H154     1.0000 0.52360  0.52980  0.93110  Biso   1.000  H
  H155     1.0000 0.02360  0.97020  0.43110  Biso   1.000  H
  H156     1.0000 0.47640  0.47020  0.06890  Biso   1.000  H
  C317     1.0000 0.89577  0.14150  0.47858  Biso   1.000  C
  C318     1.0000 0.60423  0.64150  0.02142  Biso   1.000  C
  C319     1.0000 0.10423  0.85850  0.52142  Biso   1.000  C
  C320     1.0000 0.39577  0.35850  0.97858  Biso   1.000  C
  C321     1.0000 0.88009  0.24050  0.46288  Biso   1.000  C
  C322     1.0000 0.61991  0.74050  0.03712  Biso   1.000  C
  C323     1.0000 0.11991  0.75950  0.53712  Biso   1.000  C
  C324     1.0000 0.38009  0.25950  0.96288  Biso   1.000  C
  C325     1.0000 0.76874  0.46250  0.01516  Biso   1.000  C
  C326     1.0000 0.73126  0.96250  0.48484  Biso   1.000  C
  C327     1.0000 0.23126  0.53750  0.98484  Biso   1.000  C
  C328     1.0000 0.26874  0.03750  0.51516  Biso   1.000  C
  H157     1.0000 0.79830  0.46270  0.04480  Biso   1.000  H
  H158     1.0000 0.70170  0.96270  0.45520  Biso   1.000  H
  H159     1.0000 0.20170  0.53730  0.95520  Biso   1.000  H
  H160     1.0000 0.29830  0.03730  0.54480  Biso   1.000  H
  C329     1.0000 0.74300  0.55290  0.99519  Biso   1.000  C
  C330     1.0000 0.75700  0.05290  0.50481  Biso   1.000  C
  C331     1.0000 0.25700  0.44710  0.00481  Biso   1.000  C
  C332     1.0000 0.24300  0.94710  0.49519  Biso   1.000  C
  H161     1.0000 0.75580  0.61250  0.01130  Biso   1.000  H
  H162     1.0000 0.74420  0.11250  0.48870  Biso   1.000  H
  H163     1.0000 0.24420  0.38750  0.98870  Biso   1.000  H
  H164     1.0000 0.25580  0.88750  0.51130  Biso   1.000  H
  C333     1.0000 0.69920  0.55300  0.95201  Biso   1.000  C
  C334     1.0000 0.80080  0.05300  0.54799  Biso   1.000  C
  C335     1.0000 0.30080  0.44700  0.04799  Biso   1.000  C
  C336     1.0000 0.19920  0.94700  0.45201  Biso   1.000  C
  H165     1.0000 0.68200  0.61280  0.93850  Biso   1.000  H
  H166     1.0000 0.81800  0.11280  0.56150  Biso   1.000  H
  H167     1.0000 0.31800  0.38720  0.06150  Biso   1.000  H
  H168     1.0000 0.18200  0.88720  0.43850  Biso   1.000  H
  C337     1.0000 0.67993  0.46380  0.92815  Biso   1.000  C
  C338     1.0000 0.82007  0.96380  0.57185  Biso   1.000  C
  C339     1.0000 0.32007  0.53620  0.07185  Biso   1.000  C
  C340     1.0000 0.17993  0.03620  0.42815  Biso   1.000  C
  C341     1.0000 0.63400  0.45380  0.88247  Biso   1.000  C
  C342     1.0000 0.86600  0.95380  0.61753  Biso   1.000  C
  C343     1.0000 0.36600  0.54620  0.11753  Biso   1.000  C
  C344     1.0000 0.13400  0.04620  0.38247  Biso   1.000  C
  H169     1.0000 0.61450  0.51070  0.86720  Biso   1.000  H
  H170     1.0000 0.88550  0.01070  0.63280  Biso   1.000  H
  H171     1.0000 0.38550  0.48930  0.13280  Biso   1.000  H
  H172     1.0000 0.11450  0.98930  0.36720  Biso   1.000  H
  C345     1.0000 0.61890  0.36600  0.86156  Biso   1.000  C
  C346     1.0000 0.88110  0.86600  0.63844  Biso   1.000  C
  C347     1.0000 0.38110  0.63400  0.13844  Biso   1.000  C
  C348     1.0000 0.11890  0.13400  0.36156  Biso   1.000  C
  H173     1.0000 0.58890  0.36310  0.83220  Biso   1.000  H
  H174     1.0000 0.91110  0.86310  0.66780  Biso   1.000  H
  H175     1.0000 0.41110  0.63690  0.16780  Biso   1.000  H
  H176     1.0000 0.08890  0.13690  0.33220  Biso   1.000  H
  C349     1.0000 0.64763  0.27510  0.88305  Biso   1.000  C
  C350     1.0000 0.85237  0.77510  0.61695  Biso   1.000  C
  C351     1.0000 0.35237  0.72490  0.11695  Biso   1.000  C
  C352     1.0000 0.14763  0.22490  0.38305  Biso   1.000  C
  C353     1.0000 0.63594  0.18000  0.86308  Biso   1.000  C
  C354     1.0000 0.86406  0.68000  0.63692  Biso   1.000  C
  C355     1.0000 0.36406  0.82000  0.13692  Biso   1.000  C
  C356     1.0000 0.13594  0.32000  0.36308  Biso   1.000  C
  H177     1.0000 0.60660  0.17160  0.83360  Biso   1.000  H
  H178     1.0000 0.89340  0.67160  0.66640  Biso   1.000  H
  H179     1.0000 0.39340  0.82840  0.16640  Biso   1.000  H
  H180     1.0000 0.10660  0.32840  0.33360  Biso   1.000  H
  C357     1.0000 0.66706  0.09980  0.88630  Biso   1.000  C
  C358     1.0000 0.83294  0.59980  0.61370  Biso   1.000  C
  C359     1.0000 0.33294  0.90020  0.11370  Biso   1.000  C
  C360     1.0000 0.16706  0.40020  0.38630  Biso   1.000  C
  H181     1.0000 0.65950  0.03660  0.87280  Biso   1.000  H
  H182     1.0000 0.84050  0.53660  0.62720  Biso   1.000  H
  H183     1.0000 0.34050  0.96340  0.12720  Biso   1.000  H
  H184     1.0000 0.15950  0.46340  0.37280  Biso   1.000  H
  C361     1.0000 0.71067  0.11370  0.93087  Biso   1.000  C
  C362     1.0000 0.78933  0.61370  0.56913  Biso   1.000  C
  C363     1.0000 0.28933  0.88630  0.06913  Biso   1.000  C
  C364     1.0000 0.21067  0.38630  0.43087  Biso   1.000  C
  H185     1.0000 0.73190  0.05870  0.94670  Biso   1.000  H
  H186     1.0000 0.76810  0.55870  0.55330  Biso   1.000  H
  H187     1.0000 0.26810  0.94130  0.05330  Biso   1.000  H
  H188     1.0000 0.23190  0.44130  0.44670  Biso   1.000  H
  C365     1.0000 0.69211  0.28220  0.92761  Biso   1.000  C
  C366     1.0000 0.80789  0.78220  0.57239  Biso   1.000  C
  C367     1.0000 0.30789  0.71780  0.07239  Biso   1.000  C
  C368     1.0000 0.19211  0.21780  0.42761  Biso   1.000  C
  C369     1.0000 0.70803  0.37580  0.94995  Biso   1.000  C
  C370     1.0000 0.79197  0.87580  0.55005  Biso   1.000  C
  C371     1.0000 0.29197  0.62420  0.05005  Biso   1.000  C
  C372     1.0000 0.20803  0.12420  0.44995  Biso   1.000  C
  F1       1.0000 0.68718  0.01290  0.77312  Biso   1.000  F
  F2       1.0000 0.81282  0.51290  0.72688  Biso   1.000  F
  F3       1.0000 0.31282  0.98710  0.22688  Biso   1.000  F
  F4       1.0000 0.18718  0.48710  0.27312  Biso   1.000  F
  F5       1.0000 0.67410  0.02050  0.69840  Biso   1.000  F
  F6       1.0000 0.82590  0.52050  0.80160  Biso   1.000  F
  F7       1.0000 0.32590  0.97950  0.30160  Biso   1.000  F
  F8       1.0000 0.17410  0.47950  0.19840  Biso   1.000  F
  F9       1.0000 0.68729  0.15440  0.73996  Biso   1.000  F
  F10      1.0000 0.81271  0.65440  0.76004  Biso   1.000  F
  F11      1.0000 0.31271  0.84560  0.26004  Biso   1.000  F
  F12      1.0000 0.18729  0.34560  0.23996  Biso   1.000  F
  F13      1.0000 0.77281  0.92401  0.69574  Biso   1.000  F
  F14      1.0000 0.72719  0.42401  0.80426  Biso   1.000  F
  F15      1.0000 0.22719  0.07599  0.30426  Biso   1.000  F
  F16      1.0000 0.27281  0.57599  0.19574  Biso   1.000  F
  F17      1.0000 0.76473  0.87640  0.76240  Biso   1.000  F
  F18      1.0000 0.73527  0.37640  0.73760  Biso   1.000  F
  F19      1.0000 0.23527  0.12360  0.23760  Biso   1.000  F
  F20      1.0000 0.26473  0.62360  0.26240  Biso   1.000  F
  F21      1.0000 0.84947  0.92860  0.75857  Biso   1.000  F
  F22      1.0000 0.65053  0.42860  0.74143  Biso   1.000  F
  F23      1.0000 0.15053  0.07140  0.24143  Biso   1.000  F
  F24      1.0000 0.34947  0.57140  0.25857  Biso   1.000  F
  F25      1.0000 0.98028  0.89740  0.23360  Biso   1.000  F
  F26      1.0000 0.51972  0.39740  0.26640  Biso   1.000  F
  F27      1.0000 0.01972  0.10260  0.76640  Biso   1.000  F
  F28      1.0000 0.48028  0.60260  0.73360  Biso   1.000  F
  F29      1.0000 0.98788  0.03050  0.27552  Biso   1.000  F
  F30      1.0000 0.51212  0.53050  0.22448  Biso   1.000  F
  F31      1.0000 0.01212  0.96950  0.72448  Biso   1.000  F
  F32      1.0000 0.48788  0.46950  0.77552  Biso   1.000  F
  F33      1.0000 0.96930  0.04120  0.20036  Biso   1.000  F
  F34      1.0000 0.53070  0.54120  0.29964  Biso   1.000  F
  F35      1.0000 0.03070  0.95880  0.79964  Biso   1.000  F
  F36      1.0000 0.46930  0.45880  0.70036  Biso   1.000  F
  F37      1.0000 0.88570  0.10366  0.28397  Biso   1.000  F
  F38      1.0000 0.61430  0.60366  0.21603  Biso   1.000  F
  F39      1.0000 0.11430  0.89634  0.71603  Biso   1.000  F
  F40      1.0000 0.38570  0.39634  0.78397  Biso   1.000  F
  F41      1.0000 0.88522  0.16058  0.21660  Biso   1.000  F
  F42      1.0000 0.61478  0.66058  0.28340  Biso   1.000  F
  F43      1.0000 0.11478  0.83942  0.78340  Biso   1.000  F
  F44      1.0000 0.38522  0.33942  0.71660  Biso   1.000  F
  F45      1.0000 0.80598  0.08931  0.22347  Biso   1.000  F
  F46      1.0000 0.69402  0.58931  0.27653  Biso   1.000  F
  F47      1.0000 0.19402  0.91069  0.77653  Biso   1.000  F
  F48      1.0000 0.30598  0.41069  0.72347  Biso   1.000  F
  F49      1.0000 0.98740  0.60879  0.24564  Biso   1.000  F
  F50      1.0000 0.51260  0.10879  0.25436  Biso   1.000  F
  F51      1.0000 0.01260  0.39121  0.75436  Biso   1.000  F
  F52      1.0000 0.48740  0.89121  0.74564  Biso   1.000  F
  F53      1.0000 0.89890  0.65763  0.24278  Biso   1.000  F
  F54      1.0000 0.60110  0.15763  0.25722  Biso   1.000  F
  F55      1.0000 0.10110  0.34237  0.75722  Biso   1.000  F
  F56      1.0000 0.39890  0.84237  0.74278  Biso   1.000  F
  F57      1.0000 0.91685  0.61538  0.17881  Biso   1.000  F
  F58      1.0000 0.58315  0.11538  0.32119  Biso   1.000  F
  F59      1.0000 0.08315  0.38462  0.82119  Biso   1.000  F
  F60      1.0000 0.41685  0.88462  0.67881  Biso   1.000  F
  F61      1.0000 0.81923  0.51740  0.24543  Biso   1.000  F
  F62      1.0000 0.68077  0.01740  0.25457  Biso   1.000  F
  F63      1.0000 0.18077  0.48260  0.75457  Biso   1.000  F
  F64      1.0000 0.31923  0.98260  0.74543  Biso   1.000  F
  F65      1.0000 0.81555  0.51650  0.17232  Biso   1.000  F
  F66      1.0000 0.68445  0.01650  0.32768  Biso   1.000  F
  F67      1.0000 0.18445  0.48350  0.82768  Biso   1.000  F
  F68      1.0000 0.31555  0.98350  0.67232  Biso   1.000  F
  F69      1.0000 0.82486  0.37920  0.21098  Biso   1.000  F
  F70      1.0000 0.67514  0.87920  0.28902  Biso   1.000  F
  F71      1.0000 0.17514  0.62080  0.78902  Biso   1.000  F
  F72      1.0000 0.32486  0.12080  0.71098  Biso   1.000  F
  H189     1.0000 0.10970  0.28800  0.54020  Biso   1.000  H
  H190     1.0000 0.39030  0.78800  0.95980  Biso   1.000  H
  H191     1.0000 0.89030  0.71200  0.45980  Biso   1.000  H
  H192     1.0000 0.60970  0.21200  0.04020  Biso   1.000  H
  H193     1.0000 0.16300  0.31400  0.53050  Biso   1.000  H
  H194     1.0000 0.33700  0.81400  0.96950  Biso   1.000  H
  H195     1.0000 0.83700  0.68600  0.46950  Biso   1.000  H
  H196     1.0000 0.66300  0.18600  0.03050  Biso   1.000  H
  H197     1.0000 0.07800  0.34700  0.47210  Biso   1.000  H
  H198     1.0000 0.42200  0.84700  0.02790  Biso   1.000  H
  H199     1.0000 0.92200  0.65300  0.52790  Biso   1.000  H
  H200     1.0000 0.57800  0.15300  0.97210  Biso   1.000  H
