data_image0
_cell_length_a       27
_cell_length_b       56.855
_cell_length_c       10.756
_cell_angle_alpha    90
_cell_angle_beta     90
_cell_angle_gamma    90

_symmetry_space_group_name_H-M    "P 1"
_symmetry_int_tables_number       1

loop_
  _symmetry_equiv_pos_as_xyz
  'x, y, z'

loop_
  _atom_site_label
  _atom_site_occupancy
  _atom_site_fract_x
  _atom_site_fract_y
  _atom_site_fract_z
  _atom_site_thermal_displace_type
  _atom_site_B_iso_or_equiv
  _atom_site_type_symbol
  Cu1      1.0000 0.36791  0.19590  0.92168  Biso   1.000  Cu
  Cu2      1.0000 0.63209  0.80410  0.92168  Biso   1.000  Cu
  Cu3      1.0000 0.61791  0.05410  0.17168  Biso   1.000  Cu
  Cu4      1.0000 0.88209  0.44590  0.17168  Biso   1.000  Cu
  Cu5      1.0000 0.36791  0.69590  0.42168  Biso   1.000  Cu
  Cu6      1.0000 0.63209  0.30410  0.42168  Biso   1.000  Cu
  Cu7      1.0000 0.61791  0.55410  0.67168  Biso   1.000  Cu
  Cu8      1.0000 0.88209  0.94590  0.67168  Biso   1.000  Cu
  Cu9      1.0000 0.86791  0.19590  0.42168  Biso   1.000  Cu
  Cu10     1.0000 0.13209  0.80410  0.42168  Biso   1.000  Cu
  Cu11     1.0000 0.11791  0.05410  0.67168  Biso   1.000  Cu
  Cu12     1.0000 0.38209  0.44590  0.67168  Biso   1.000  Cu
  Cu13     1.0000 0.86791  0.69590  0.92168  Biso   1.000  Cu
  Cu14     1.0000 0.13209  0.30410  0.92168  Biso   1.000  Cu
  Cu15     1.0000 0.11791  0.55410  0.17168  Biso   1.000  Cu
  Cu16     1.0000 0.38209  0.94590  0.17168  Biso   1.000  Cu
  O1       1.0000 0.37261  0.19809  0.74120  Biso   1.000  O
  O2       1.0000 0.62739  0.80191  0.74120  Biso   1.000  O
  O3       1.0000 0.62261  0.05191  0.99120  Biso   1.000  O
  O4       1.0000 0.87739  0.44809  0.99120  Biso   1.000  O
  O5       1.0000 0.37261  0.69809  0.24120  Biso   1.000  O
  O6       1.0000 0.62739  0.30191  0.24120  Biso   1.000  O
  O7       1.0000 0.62261  0.55191  0.49120  Biso   1.000  O
  O8       1.0000 0.87739  0.94809  0.49120  Biso   1.000  O
  O9       1.0000 0.87261  0.19809  0.24120  Biso   1.000  O
  O10      1.0000 0.12739  0.80191  0.24120  Biso   1.000  O
  O11      1.0000 0.12261  0.05191  0.49120  Biso   1.000  O
  O12      1.0000 0.37739  0.44809  0.49120  Biso   1.000  O
  O13      1.0000 0.87261  0.69809  0.74120  Biso   1.000  O
  O14      1.0000 0.12739  0.30191  0.74120  Biso   1.000  O
  O15      1.0000 0.12261  0.55191  0.99120  Biso   1.000  O
  O16      1.0000 0.37739  0.94809  0.99120  Biso   1.000  O
  O17      1.0000 0.30846  0.22259  0.75010  Biso   1.000  O
  O18      1.0000 0.69154  0.77741  0.75010  Biso   1.000  O
  O19      1.0000 0.55846  0.02741  0.00010  Biso   1.000  O
  O20      1.0000 0.94154  0.47259  0.00010  Biso   1.000  O
  O21      1.0000 0.30846  0.72259  0.25010  Biso   1.000  O
  O22      1.0000 0.69154  0.27741  0.25010  Biso   1.000  O
  O23      1.0000 0.55846  0.52741  0.50010  Biso   1.000  O
  O24      1.0000 0.94154  0.97259  0.50010  Biso   1.000  O
  O25      1.0000 0.80846  0.22259  0.25010  Biso   1.000  O
  O26      1.0000 0.19154  0.77741  0.25010  Biso   1.000  O
  O27      1.0000 0.05846  0.02741  0.50010  Biso   1.000  O
  O28      1.0000 0.44154  0.47259  0.50010  Biso   1.000  O
  O29      1.0000 0.80846  0.72259  0.75010  Biso   1.000  O
  O30      1.0000 0.19154  0.27741  0.75010  Biso   1.000  O
  O31      1.0000 0.05846  0.52741  0.00010  Biso   1.000  O
  O32      1.0000 0.44154  0.97259  0.00010  Biso   1.000  O
  O33      1.0000 0.36300  0.19313  0.10190  Biso   1.000  O
  O34      1.0000 0.63700  0.80687  0.10190  Biso   1.000  O
  O35      1.0000 0.61300  0.05687  0.35190  Biso   1.000  O
  O36      1.0000 0.88700  0.44313  0.35190  Biso   1.000  O
  O37      1.0000 0.36300  0.69313  0.60190  Biso   1.000  O
  O38      1.0000 0.63700  0.30687  0.60190  Biso   1.000  O
  O39      1.0000 0.61300  0.55687  0.85190  Biso   1.000  O
  O40      1.0000 0.88700  0.94313  0.85190  Biso   1.000  O
  O41      1.0000 0.86300  0.19313  0.60190  Biso   1.000  O
  O42      1.0000 0.13700  0.80687  0.60190  Biso   1.000  O
  O43      1.0000 0.11300  0.05687  0.85190  Biso   1.000  O
  O44      1.0000 0.38700  0.44313  0.85190  Biso   1.000  O
  O45      1.0000 0.86300  0.69313  0.10190  Biso   1.000  O
  O46      1.0000 0.13700  0.30687  0.10190  Biso   1.000  O
  O47      1.0000 0.11300  0.55687  0.35190  Biso   1.000  O
  O48      1.0000 0.38700  0.94313  0.35190  Biso   1.000  O
  O49      1.0000 0.30998  0.22318  0.09480  Biso   1.000  O
  O50      1.0000 0.69002  0.77682  0.09480  Biso   1.000  O
  O51      1.0000 0.55998  0.02682  0.34480  Biso   1.000  O
  O52      1.0000 0.94002  0.47318  0.34480  Biso   1.000  O
  O53      1.0000 0.30998  0.72318  0.59480  Biso   1.000  O
  O54      1.0000 0.69002  0.27682  0.59480  Biso   1.000  O
  O55      1.0000 0.55998  0.52682  0.84480  Biso   1.000  O
  O56      1.0000 0.94002  0.97318  0.84480  Biso   1.000  O
  O57      1.0000 0.80998  0.22318  0.59480  Biso   1.000  O
  O58      1.0000 0.19002  0.77682  0.59480  Biso   1.000  O
  O59      1.0000 0.05998  0.02682  0.84480  Biso   1.000  O
  O60      1.0000 0.44002  0.47318  0.84480  Biso   1.000  O
  O61      1.0000 0.80998  0.72318  0.09480  Biso   1.000  O
  O62      1.0000 0.19002  0.27682  0.09480  Biso   1.000  O
  O63      1.0000 0.05998  0.52682  0.34480  Biso   1.000  O
  O64      1.0000 0.44002  0.97318  0.34480  Biso   1.000  O
  O65      1.0000 0.43396  0.17007  0.92040  Biso   1.000  O
  O66      1.0000 0.56604  0.82993  0.92040  Biso   1.000  O
  O67      1.0000 0.68396  0.07993  0.17040  Biso   1.000  O
  O68      1.0000 0.81604  0.42007  0.17040  Biso   1.000  O
  O69      1.0000 0.43396  0.67007  0.42040  Biso   1.000  O
  O70      1.0000 0.56604  0.32993  0.42040  Biso   1.000  O
  O71      1.0000 0.68396  0.57993  0.67040  Biso   1.000  O
  O72      1.0000 0.81604  0.92007  0.67040  Biso   1.000  O
  O73      1.0000 0.93396  0.17007  0.42040  Biso   1.000  O
  O74      1.0000 0.06604  0.82993  0.42040  Biso   1.000  O
  O75      1.0000 0.18396  0.07993  0.67040  Biso   1.000  O
  O76      1.0000 0.31604  0.42007  0.67040  Biso   1.000  O
  O77      1.0000 0.93396  0.67007  0.92040  Biso   1.000  O
  O78      1.0000 0.06604  0.32993  0.92040  Biso   1.000  O
  O79      1.0000 0.18396  0.57993  0.17040  Biso   1.000  O
  O80      1.0000 0.31604  0.92007  0.17040  Biso   1.000  O
  H1       1.0000 0.43550  0.15730  0.88300  Biso   1.000  H
  H2       1.0000 0.56450  0.84270  0.88300  Biso   1.000  H
  H3       1.0000 0.68550  0.09270  0.13300  Biso   1.000  H
  H4       1.0000 0.81450  0.40730  0.13300  Biso   1.000  H
  H5       1.0000 0.43550  0.65730  0.38300  Biso   1.000  H
  H6       1.0000 0.56450  0.34270  0.38300  Biso   1.000  H
  H7       1.0000 0.68550  0.59270  0.63300  Biso   1.000  H
  H8       1.0000 0.81450  0.90730  0.63300  Biso   1.000  H
  H9       1.0000 0.93550  0.15730  0.38300  Biso   1.000  H
  H10      1.0000 0.06450  0.84270  0.38300  Biso   1.000  H
  H11      1.0000 0.18550  0.09270  0.63300  Biso   1.000  H
  H12      1.0000 0.31450  0.40730  0.63300  Biso   1.000  H
  H13      1.0000 0.93550  0.65730  0.88300  Biso   1.000  H
  H14      1.0000 0.06450  0.34270  0.88300  Biso   1.000  H
  H15      1.0000 0.18550  0.59270  0.13300  Biso   1.000  H
  H16      1.0000 0.31450  0.90730  0.13300  Biso   1.000  H
  H17      1.0000 0.46240  0.17360  0.94400  Biso   1.000  H
  H18      1.0000 0.53760  0.82640  0.94400  Biso   1.000  H
  H19      1.0000 0.71240  0.07640  0.19400  Biso   1.000  H
  H20      1.0000 0.78760  0.42360  0.19400  Biso   1.000  H
  H21      1.0000 0.46240  0.67360  0.44400  Biso   1.000  H
  H22      1.0000 0.53760  0.32640  0.44400  Biso   1.000  H
  H23      1.0000 0.71240  0.57640  0.69400  Biso   1.000  H
  H24      1.0000 0.78760  0.92360  0.69400  Biso   1.000  H
  H25      1.0000 0.96240  0.17360  0.44400  Biso   1.000  H
  H26      1.0000 0.03760  0.82640  0.44400  Biso   1.000  H
  H27      1.0000 0.21240  0.07640  0.69400  Biso   1.000  H
  H28      1.0000 0.28760  0.42360  0.69400  Biso   1.000  H
  H29      1.0000 0.96240  0.67360  0.94400  Biso   1.000  H
  H30      1.0000 0.03760  0.32640  0.94400  Biso   1.000  H
  H31      1.0000 0.21240  0.57640  0.19400  Biso   1.000  H
  H32      1.0000 0.28760  0.92360  0.19400  Biso   1.000  H
  C1       1.0000 0.33612  0.20868  0.15320  Biso   1.000  C
  C2       1.0000 0.66388  0.79132  0.15320  Biso   1.000  C
  C3       1.0000 0.58612  0.04132  0.40320  Biso   1.000  C
  C4       1.0000 0.91388  0.45868  0.40320  Biso   1.000  C
  C5       1.0000 0.33612  0.70868  0.65320  Biso   1.000  C
  C6       1.0000 0.66388  0.29132  0.65320  Biso   1.000  C
  C7       1.0000 0.58612  0.54132  0.90320  Biso   1.000  C
  C8       1.0000 0.91388  0.95868  0.90320  Biso   1.000  C
  C9       1.0000 0.83612  0.20868  0.65320  Biso   1.000  C
  C10      1.0000 0.16388  0.79132  0.65320  Biso   1.000  C
  C11      1.0000 0.08612  0.04132  0.90320  Biso   1.000  C
  C12      1.0000 0.41388  0.45868  0.90320  Biso   1.000  C
  C13      1.0000 0.83612  0.70868  0.15320  Biso   1.000  C
  C14      1.0000 0.16388  0.29132  0.15320  Biso   1.000  C
  C15      1.0000 0.08612  0.54132  0.40320  Biso   1.000  C
  C16      1.0000 0.41388  0.95868  0.40320  Biso   1.000  C
  C17      1.0000 0.33657  0.20894  0.29240  Biso   1.000  C
  C18      1.0000 0.66343  0.79106  0.29240  Biso   1.000  C
  C19      1.0000 0.58657  0.04106  0.54240  Biso   1.000  C
  C20      1.0000 0.91343  0.45894  0.54240  Biso   1.000  C
  C21      1.0000 0.33657  0.70894  0.79240  Biso   1.000  C
  C22      1.0000 0.66343  0.29106  0.79240  Biso   1.000  C
  C23      1.0000 0.58657  0.54106  0.04240  Biso   1.000  C
  C24      1.0000 0.91343  0.95894  0.04240  Biso   1.000  C
  C25      1.0000 0.83657  0.20894  0.79240  Biso   1.000  C
  C26      1.0000 0.16343  0.79106  0.79240  Biso   1.000  C
  C27      1.0000 0.08657  0.04106  0.04240  Biso   1.000  C
  C28      1.0000 0.41343  0.45894  0.04240  Biso   1.000  C
  C29      1.0000 0.83657  0.70894  0.29240  Biso   1.000  C
  C30      1.0000 0.16343  0.29106  0.29240  Biso   1.000  C
  C31      1.0000 0.08657  0.54106  0.54240  Biso   1.000  C
  C32      1.0000 0.41343  0.95894  0.54240  Biso   1.000  C
  C33      1.0000 0.36394  0.19231  0.35830  Biso   1.000  C
  C34      1.0000 0.63606  0.80769  0.35830  Biso   1.000  C
  C35      1.0000 0.61394  0.05769  0.60830  Biso   1.000  C
  C36      1.0000 0.88606  0.44231  0.60830  Biso   1.000  C
  C37      1.0000 0.36394  0.69231  0.85830  Biso   1.000  C
  C38      1.0000 0.63606  0.30769  0.85830  Biso   1.000  C
  C39      1.0000 0.61394  0.55769  0.10830  Biso   1.000  C
  C40      1.0000 0.88606  0.94231  0.10830  Biso   1.000  C
  C41      1.0000 0.86394  0.19231  0.85830  Biso   1.000  C
  C42      1.0000 0.13606  0.80769  0.85830  Biso   1.000  C
  C43      1.0000 0.11394  0.05769  0.10830  Biso   1.000  C
  C44      1.0000 0.38606  0.44231  0.10830  Biso   1.000  C
  C45      1.0000 0.86394  0.69231  0.35830  Biso   1.000  C
  C46      1.0000 0.13606  0.30769  0.35830  Biso   1.000  C
  C47      1.0000 0.11394  0.55769  0.60830  Biso   1.000  C
  C48      1.0000 0.38606  0.94231  0.60830  Biso   1.000  C
  H33      1.0000 0.38250  0.18080  0.31470  Biso   1.000  H
  H34      1.0000 0.61750  0.81920  0.31470  Biso   1.000  H
  H35      1.0000 0.63250  0.06920  0.56470  Biso   1.000  H
  H36      1.0000 0.86750  0.43080  0.56470  Biso   1.000  H
  H37      1.0000 0.38250  0.68080  0.81470  Biso   1.000  H
  H38      1.0000 0.61750  0.31920  0.81470  Biso   1.000  H
  H39      1.0000 0.63250  0.56920  0.06470  Biso   1.000  H
  H40      1.0000 0.86750  0.93080  0.06470  Biso   1.000  H
  H41      1.0000 0.88250  0.18080  0.81470  Biso   1.000  H
  H42      1.0000 0.11750  0.81920  0.81470  Biso   1.000  H
  H43      1.0000 0.13250  0.06920  0.06470  Biso   1.000  H
  H44      1.0000 0.36750  0.43080  0.06470  Biso   1.000  H
  H45      1.0000 0.88250  0.68080  0.31470  Biso   1.000  H
  H46      1.0000 0.11750  0.31920  0.31470  Biso   1.000  H
  H47      1.0000 0.13250  0.56920  0.56470  Biso   1.000  H
  H48      1.0000 0.36750  0.93080  0.56470  Biso   1.000  H
  C49      1.0000 0.36417  0.19256  0.48770  Biso   1.000  C
  C50      1.0000 0.63583  0.80744  0.48770  Biso   1.000  C
  C51      1.0000 0.61417  0.05744  0.73770  Biso   1.000  C
  C52      1.0000 0.88583  0.44256  0.73770  Biso   1.000  C
  C53      1.0000 0.36417  0.69256  0.98770  Biso   1.000  C
  C54      1.0000 0.63583  0.30744  0.98770  Biso   1.000  C
  C55      1.0000 0.61417  0.55744  0.23770  Biso   1.000  C
  C56      1.0000 0.88583  0.94256  0.23770  Biso   1.000  C
  C57      1.0000 0.86417  0.19256  0.98770  Biso   1.000  C
  C58      1.0000 0.13583  0.80744  0.98770  Biso   1.000  C
  C59      1.0000 0.11417  0.05744  0.23770  Biso   1.000  C
  C60      1.0000 0.38583  0.44256  0.23770  Biso   1.000  C
  C61      1.0000 0.86417  0.69256  0.48770  Biso   1.000  C
  C62      1.0000 0.13583  0.30744  0.48770  Biso   1.000  C
  C63      1.0000 0.11417  0.55744  0.73770  Biso   1.000  C
  C64      1.0000 0.38583  0.94256  0.73770  Biso   1.000  C
  H49      1.0000 0.38290  0.18120  0.53220  Biso   1.000  H
  H50      1.0000 0.61710  0.81880  0.53220  Biso   1.000  H
  H51      1.0000 0.63290  0.06880  0.78220  Biso   1.000  H
  H52      1.0000 0.86710  0.43120  0.78220  Biso   1.000  H
  H53      1.0000 0.38290  0.68120  0.03220  Biso   1.000  H
  H54      1.0000 0.61710  0.31880  0.03220  Biso   1.000  H
  H55      1.0000 0.63290  0.56880  0.28220  Biso   1.000  H
  H56      1.0000 0.86710  0.93120  0.28220  Biso   1.000  H
  H57      1.0000 0.88290  0.18120  0.03220  Biso   1.000  H
  H58      1.0000 0.11710  0.81880  0.03220  Biso   1.000  H
  H59      1.0000 0.13290  0.06880  0.28220  Biso   1.000  H
  H60      1.0000 0.36710  0.43120  0.28220  Biso   1.000  H
  H61      1.0000 0.88290  0.68120  0.53220  Biso   1.000  H
  H62      1.0000 0.11710  0.31880  0.53220  Biso   1.000  H
  H63      1.0000 0.13290  0.56880  0.78220  Biso   1.000  H
  H64      1.0000 0.36710  0.93120  0.78220  Biso   1.000  H
  C65      1.0000 0.30947  0.22589  0.35740  Biso   1.000  C
  C66      1.0000 0.69053  0.77411  0.35740  Biso   1.000  C
  C67      1.0000 0.55947  0.02411  0.60740  Biso   1.000  C
  C68      1.0000 0.94053  0.47589  0.60740  Biso   1.000  C
  C69      1.0000 0.30947  0.72589  0.85740  Biso   1.000  C
  C70      1.0000 0.69053  0.27411  0.85740  Biso   1.000  C
  C71      1.0000 0.55947  0.52411  0.10740  Biso   1.000  C
  C72      1.0000 0.94053  0.97589  0.10740  Biso   1.000  C
  C73      1.0000 0.80947  0.22589  0.85740  Biso   1.000  C
  C74      1.0000 0.19053  0.77411  0.85740  Biso   1.000  C
  C75      1.0000 0.05947  0.02411  0.10740  Biso   1.000  C
  C76      1.0000 0.44053  0.47589  0.10740  Biso   1.000  C
  C77      1.0000 0.80947  0.72589  0.35740  Biso   1.000  C
  C78      1.0000 0.19053  0.27411  0.35740  Biso   1.000  C
  C79      1.0000 0.05947  0.52411  0.60740  Biso   1.000  C
  C80      1.0000 0.44053  0.97589  0.60740  Biso   1.000  C
  H65      1.0000 0.29080  0.23730  0.31310  Biso   1.000  H
  H66      1.0000 0.70920  0.76270  0.31310  Biso   1.000  H
  H67      1.0000 0.54080  0.01270  0.56310  Biso   1.000  H
  H68      1.0000 0.95920  0.48730  0.56310  Biso   1.000  H
  H69      1.0000 0.29080  0.73730  0.81310  Biso   1.000  H
  H70      1.0000 0.70920  0.26270  0.81310  Biso   1.000  H
  H71      1.0000 0.54080  0.51270  0.06310  Biso   1.000  H
  H72      1.0000 0.95920  0.98730  0.06310  Biso   1.000  H
  H73      1.0000 0.79080  0.23730  0.81310  Biso   1.000  H
  H74      1.0000 0.20920  0.76270  0.81310  Biso   1.000  H
  H75      1.0000 0.04080  0.01270  0.06310  Biso   1.000  H
  H76      1.0000 0.45920  0.48730  0.06310  Biso   1.000  H
  H77      1.0000 0.79080  0.73730  0.31310  Biso   1.000  H
  H78      1.0000 0.20920  0.26270  0.31310  Biso   1.000  H
  H79      1.0000 0.04080  0.51270  0.56310  Biso   1.000  H
  H80      1.0000 0.45920  0.98730  0.56310  Biso   1.000  H
  C81      1.0000 0.33850  0.21030  0.69120  Biso   1.000  C
  C82      1.0000 0.66150  0.78970  0.69120  Biso   1.000  C
  C83      1.0000 0.58850  0.03970  0.94120  Biso   1.000  C
  C84      1.0000 0.91150  0.46030  0.94120  Biso   1.000  C
  C85      1.0000 0.33850  0.71030  0.19120  Biso   1.000  C
  C86      1.0000 0.66150  0.28970  0.19120  Biso   1.000  C
  C87      1.0000 0.58850  0.53970  0.44120  Biso   1.000  C
  C88      1.0000 0.91150  0.96030  0.44120  Biso   1.000  C
  C89      1.0000 0.83850  0.21030  0.19120  Biso   1.000  C
  C90      1.0000 0.16150  0.78970  0.19120  Biso   1.000  C
  C91      1.0000 0.08850  0.03970  0.44120  Biso   1.000  C
  C92      1.0000 0.41150  0.46030  0.44120  Biso   1.000  C
  C93      1.0000 0.83850  0.71030  0.69120  Biso   1.000  C
  C94      1.0000 0.16150  0.28970  0.69120  Biso   1.000  C
  C95      1.0000 0.08850  0.53970  0.94120  Biso   1.000  C
  C96      1.0000 0.41150  0.96030  0.94120  Biso   1.000  C
  C97      1.0000 0.33702  0.20940  0.55180  Biso   1.000  C
  C98      1.0000 0.66298  0.79060  0.55180  Biso   1.000  C
  C99      1.0000 0.58702  0.04060  0.80180  Biso   1.000  C
  C100     1.0000 0.91298  0.45940  0.80180  Biso   1.000  C
  C101     1.0000 0.33702  0.70940  0.05180  Biso   1.000  C
  C102     1.0000 0.66298  0.29060  0.05180  Biso   1.000  C
  C103     1.0000 0.58702  0.54060  0.30180  Biso   1.000  C
  C104     1.0000 0.91298  0.95940  0.30180  Biso   1.000  C
  C105     1.0000 0.83702  0.20940  0.05180  Biso   1.000  C
  C106     1.0000 0.16298  0.79060  0.05180  Biso   1.000  C
  C107     1.0000 0.08702  0.04060  0.30180  Biso   1.000  C
  C108     1.0000 0.41298  0.45940  0.30180  Biso   1.000  C
  C109     1.0000 0.83702  0.70940  0.55180  Biso   1.000  C
  C110     1.0000 0.16298  0.29060  0.55180  Biso   1.000  C
  C111     1.0000 0.08702  0.54060  0.80180  Biso   1.000  C
  C112     1.0000 0.41298  0.95940  0.80180  Biso   1.000  C
  C113     1.0000 0.30972  0.22609  0.48540  Biso   1.000  C
  C114     1.0000 0.69028  0.77391  0.48540  Biso   1.000  C
  C115     1.0000 0.55972  0.02391  0.73540  Biso   1.000  C
  C116     1.0000 0.94028  0.47609  0.73540  Biso   1.000  C
  C117     1.0000 0.30972  0.72609  0.98540  Biso   1.000  C
  C118     1.0000 0.69028  0.27391  0.98540  Biso   1.000  C
  C119     1.0000 0.55972  0.52391  0.23540  Biso   1.000  C
  C120     1.0000 0.94028  0.97609  0.23540  Biso   1.000  C
  C121     1.0000 0.80972  0.22609  0.98540  Biso   1.000  C
  C122     1.0000 0.19028  0.77391  0.98540  Biso   1.000  C
  C123     1.0000 0.05972  0.02391  0.23540  Biso   1.000  C
  C124     1.0000 0.44028  0.47609  0.23540  Biso   1.000  C
  C125     1.0000 0.80972  0.72609  0.48540  Biso   1.000  C
  C126     1.0000 0.19028  0.27391  0.48540  Biso   1.000  C
  C127     1.0000 0.05972  0.52391  0.73540  Biso   1.000  C
  C128     1.0000 0.44028  0.97609  0.73540  Biso   1.000  C
  H81      1.0000 0.29120  0.23770  0.52890  Biso   1.000  H
  H82      1.0000 0.70880  0.76230  0.52890  Biso   1.000  H
  H83      1.0000 0.54120  0.01230  0.77890  Biso   1.000  H
  H84      1.0000 0.95880  0.48770  0.77890  Biso   1.000  H
  H85      1.0000 0.29120  0.73770  0.02890  Biso   1.000  H
  H86      1.0000 0.70880  0.26230  0.02890  Biso   1.000  H
  H87      1.0000 0.54120  0.51230  0.27890  Biso   1.000  H
  H88      1.0000 0.95880  0.98770  0.27890  Biso   1.000  H
  H89      1.0000 0.79120  0.23770  0.02890  Biso   1.000  H
  H90      1.0000 0.20880  0.76230  0.02890  Biso   1.000  H
  H91      1.0000 0.04120  0.01230  0.27890  Biso   1.000  H
  H92      1.0000 0.45880  0.48770  0.27890  Biso   1.000  H
  H93      1.0000 0.79120  0.73770  0.52890  Biso   1.000  H
  H94      1.0000 0.20880  0.26230  0.52890  Biso   1.000  H
  H95      1.0000 0.04120  0.51230  0.77890  Biso   1.000  H
  H96      1.0000 0.45880  0.98770  0.77890  Biso   1.000  H
  O81      1.0000 0.50157  0.31556  0.87700  Biso   1.000  O
  O82      1.0000 0.49843  0.68444  0.87700  Biso   1.000  O
  O83      1.0000 0.75157  0.93444  0.12700  Biso   1.000  O
  O84      1.0000 0.74843  0.56556  0.12700  Biso   1.000  O
  O85      1.0000 0.50157  0.81556  0.37700  Biso   1.000  O
  O86      1.0000 0.49843  0.18444  0.37700  Biso   1.000  O
  O87      1.0000 0.75157  0.43444  0.62700  Biso   1.000  O
  O88      1.0000 0.74843  0.06556  0.62700  Biso   1.000  O
  O89      1.0000 0.00157  0.31556  0.37700  Biso   1.000  O
  O90      1.0000 0.99843  0.68444  0.37700  Biso   1.000  O
  O91      1.0000 0.25157  0.93444  0.62700  Biso   1.000  O
  O92      1.0000 0.24843  0.56556  0.62700  Biso   1.000  O
  O93      1.0000 0.00157  0.81556  0.87700  Biso   1.000  O
  O94      1.0000 0.99843  0.18444  0.87700  Biso   1.000  O
  O95      1.0000 0.25157  0.43444  0.12700  Biso   1.000  O
  O96      1.0000 0.24843  0.06556  0.12700  Biso   1.000  O
  O97      1.0000 0.33608  0.37009  0.20000  Biso   1.000  O
  O98      1.0000 0.66392  0.62991  0.20000  Biso   1.000  O
  O99      1.0000 0.58608  0.87991  0.45000  Biso   1.000  O
  O100     1.0000 0.91392  0.62009  0.45000  Biso   1.000  O
  O101     1.0000 0.33608  0.87009  0.70000  Biso   1.000  O
  O102     1.0000 0.66392  0.12991  0.70000  Biso   1.000  O
  O103     1.0000 0.58608  0.37991  0.95000  Biso   1.000  O
  O104     1.0000 0.91392  0.12009  0.95000  Biso   1.000  O
  O105     1.0000 0.83608  0.37009  0.70000  Biso   1.000  O
  O106     1.0000 0.16392  0.62991  0.70000  Biso   1.000  O
  O107     1.0000 0.08608  0.87991  0.95000  Biso   1.000  O
  O108     1.0000 0.41392  0.62009  0.95000  Biso   1.000  O
  O109     1.0000 0.83608  0.87009  0.20000  Biso   1.000  O
  O110     1.0000 0.16392  0.12991  0.20000  Biso   1.000  O
  O111     1.0000 0.08608  0.37991  0.45000  Biso   1.000  O
  O112     1.0000 0.41392  0.12009  0.45000  Biso   1.000  O
  O113     1.0000 0.55878  0.37535  0.33700  Biso   1.000  O
  O114     1.0000 0.44122  0.62465  0.33700  Biso   1.000  O
  O115     1.0000 0.80878  0.87465  0.58700  Biso   1.000  O
  O116     1.0000 0.69122  0.62535  0.58700  Biso   1.000  O
  O117     1.0000 0.55878  0.87535  0.83700  Biso   1.000  O
  O118     1.0000 0.44122  0.12465  0.83700  Biso   1.000  O
  O119     1.0000 0.80878  0.37465  0.08700  Biso   1.000  O
  O120     1.0000 0.69122  0.12535  0.08700  Biso   1.000  O
  O121     1.0000 0.05878  0.37535  0.83700  Biso   1.000  O
  O122     1.0000 0.94122  0.62465  0.83700  Biso   1.000  O
  O123     1.0000 0.30878  0.87465  0.08700  Biso   1.000  O
  O124     1.0000 0.19122  0.62535  0.08700  Biso   1.000  O
  O125     1.0000 0.05878  0.87535  0.33700  Biso   1.000  O
  O126     1.0000 0.94122  0.12465  0.33700  Biso   1.000  O
  O127     1.0000 0.30878  0.37465  0.58700  Biso   1.000  O
  O128     1.0000 0.19122  0.12535  0.58700  Biso   1.000  O
  N1       1.0000 0.51032  0.29601  0.05940  Biso   1.000  N
  N2       1.0000 0.48968  0.70399  0.05940  Biso   1.000  N
  N3       1.0000 0.76032  0.95399  0.30940  Biso   1.000  N
  N4       1.0000 0.73968  0.54601  0.30940  Biso   1.000  N
  N5       1.0000 0.51032  0.79601  0.55940  Biso   1.000  N
  N6       1.0000 0.48968  0.20399  0.55940  Biso   1.000  N
  N7       1.0000 0.76032  0.45399  0.80940  Biso   1.000  N
  N8       1.0000 0.73968  0.04601  0.80940  Biso   1.000  N
  N9       1.0000 0.01032  0.29601  0.55940  Biso   1.000  N
  N10      1.0000 0.98968  0.70399  0.55940  Biso   1.000  N
  N11      1.0000 0.26032  0.95399  0.80940  Biso   1.000  N
  N12      1.0000 0.23968  0.54601  0.80940  Biso   1.000  N
  N13      1.0000 0.01032  0.79601  0.05940  Biso   1.000  N
  N14      1.0000 0.98968  0.20399  0.05940  Biso   1.000  N
  N15      1.0000 0.26032  0.45399  0.30940  Biso   1.000  N
  N16      1.0000 0.23968  0.04601  0.30940  Biso   1.000  N
  N17      1.0000 0.41584  0.22296  0.94785  Biso   1.000  N
  N18      1.0000 0.58416  0.77704  0.94785  Biso   1.000  N
  N19      1.0000 0.66584  0.02704  0.19785  Biso   1.000  N
  N20      1.0000 0.83416  0.47296  0.19785  Biso   1.000  N
  N21      1.0000 0.41584  0.72296  0.44785  Biso   1.000  N
  N22      1.0000 0.58416  0.27704  0.44785  Biso   1.000  N
  N23      1.0000 0.66584  0.52704  0.69785  Biso   1.000  N
  N24      1.0000 0.83416  0.97296  0.69785  Biso   1.000  N
  N25      1.0000 0.91584  0.22296  0.44785  Biso   1.000  N
  N26      1.0000 0.08416  0.77704  0.44785  Biso   1.000  N
  N27      1.0000 0.16584  0.02704  0.69785  Biso   1.000  N
  N28      1.0000 0.33416  0.47296  0.69785  Biso   1.000  N
  N29      1.0000 0.91584  0.72296  0.94785  Biso   1.000  N
  N30      1.0000 0.08416  0.27704  0.94785  Biso   1.000  N
  N31      1.0000 0.16584  0.52704  0.19785  Biso   1.000  N
  N32      1.0000 0.33416  0.97296  0.19785  Biso   1.000  N
  N33      1.0000 0.34167  0.37725  0.99290  Biso   1.000  N
  N34      1.0000 0.65833  0.62275  0.99290  Biso   1.000  N
  N35      1.0000 0.59167  0.87275  0.24290  Biso   1.000  N
  N36      1.0000 0.90833  0.62725  0.24290  Biso   1.000  N
  N37      1.0000 0.34167  0.87725  0.49290  Biso   1.000  N
  N38      1.0000 0.65833  0.12275  0.49290  Biso   1.000  N
  N39      1.0000 0.59167  0.37275  0.74290  Biso   1.000  N
  N40      1.0000 0.90833  0.12725  0.74290  Biso   1.000  N
  N41      1.0000 0.84167  0.37725  0.49290  Biso   1.000  N
  N42      1.0000 0.15833  0.62275  0.49290  Biso   1.000  N
  N43      1.0000 0.09167  0.87275  0.74290  Biso   1.000  N
  N44      1.0000 0.40833  0.62725  0.74290  Biso   1.000  N
  N45      1.0000 0.84167  0.87725  0.99290  Biso   1.000  N
  N46      1.0000 0.15833  0.12275  0.99290  Biso   1.000  N
  N47      1.0000 0.09167  0.37275  0.24290  Biso   1.000  N
  N48      1.0000 0.40833  0.12725  0.24290  Biso   1.000  N
  N49      1.0000 0.18657  0.32829  0.90710  Biso   1.000  N
  N50      1.0000 0.81343  0.67171  0.90710  Biso   1.000  N
  N51      1.0000 0.43657  0.92171  0.15710  Biso   1.000  N
  N52      1.0000 0.06343  0.57829  0.15710  Biso   1.000  N
  N53      1.0000 0.18657  0.82829  0.40710  Biso   1.000  N
  N54      1.0000 0.81343  0.17171  0.40710  Biso   1.000  N
  N55      1.0000 0.43657  0.42171  0.65710  Biso   1.000  N
  N56      1.0000 0.06343  0.07829  0.65710  Biso   1.000  N
  N57      1.0000 0.68657  0.32829  0.40710  Biso   1.000  N
  N58      1.0000 0.31343  0.67171  0.40710  Biso   1.000  N
  N59      1.0000 0.93657  0.92171  0.65710  Biso   1.000  N
  N60      1.0000 0.56343  0.57829  0.65710  Biso   1.000  N
  N61      1.0000 0.68657  0.82829  0.90710  Biso   1.000  N
  N62      1.0000 0.31343  0.17171  0.90710  Biso   1.000  N
  N63      1.0000 0.93657  0.42171  0.15710  Biso   1.000  N
  N64      1.0000 0.56343  0.07829  0.15710  Biso   1.000  N
  N65      1.0000 0.53332  0.40872  0.24350  Biso   1.000  N
  N66      1.0000 0.46668  0.59128  0.24350  Biso   1.000  N
  N67      1.0000 0.78332  0.84128  0.49350  Biso   1.000  N
  N68      1.0000 0.71668  0.65872  0.49350  Biso   1.000  N
  N69      1.0000 0.53332  0.90872  0.74350  Biso   1.000  N
  N70      1.0000 0.46668  0.09128  0.74350  Biso   1.000  N
  N71      1.0000 0.78332  0.34128  0.99350  Biso   1.000  N
  N72      1.0000 0.71668  0.15872  0.99350  Biso   1.000  N
  N73      1.0000 0.03332  0.40872  0.74350  Biso   1.000  N
  N74      1.0000 0.96668  0.59128  0.74350  Biso   1.000  N
  N75      1.0000 0.28332  0.84128  0.99350  Biso   1.000  N
  N76      1.0000 0.21668  0.65872  0.99350  Biso   1.000  N
  N77      1.0000 0.03332  0.90872  0.24350  Biso   1.000  N
  N78      1.0000 0.96668  0.09128  0.24350  Biso   1.000  N
  N79      1.0000 0.28332  0.34128  0.49350  Biso   1.000  N
  N80      1.0000 0.21668  0.15872  0.49350  Biso   1.000  N
  N81      1.0000 0.71891  0.42544  0.25680  Biso   1.000  N
  N82      1.0000 0.28109  0.57456  0.25680  Biso   1.000  N
  N83      1.0000 0.96891  0.82456  0.50680  Biso   1.000  N
  N84      1.0000 0.53109  0.67544  0.50680  Biso   1.000  N
  N85      1.0000 0.71891  0.92544  0.75680  Biso   1.000  N
  N86      1.0000 0.28109  0.07456  0.75680  Biso   1.000  N
  N87      1.0000 0.96891  0.32456  0.00680  Biso   1.000  N
  N88      1.0000 0.53109  0.17544  0.00680  Biso   1.000  N
  N89      1.0000 0.21891  0.42544  0.75680  Biso   1.000  N
  N90      1.0000 0.78109  0.57456  0.75680  Biso   1.000  N
  N91      1.0000 0.46891  0.82456  0.00680  Biso   1.000  N
  N92      1.0000 0.03109  0.67544  0.00680  Biso   1.000  N
  N93      1.0000 0.21891  0.92544  0.25680  Biso   1.000  N
  N94      1.0000 0.78109  0.07456  0.25680  Biso   1.000  N
  N95      1.0000 0.46891  0.32456  0.50680  Biso   1.000  N
  N96      1.0000 0.03109  0.17544  0.50680  Biso   1.000  N
  C129     1.0000 0.41421  0.24320  0.88540  Biso   1.000  C
  C130     1.0000 0.58579  0.75680  0.88540  Biso   1.000  C
  C131     1.0000 0.66421  0.00680  0.13540  Biso   1.000  C
  C132     1.0000 0.83579  0.49320  0.13540  Biso   1.000  C
  C133     1.0000 0.41421  0.74320  0.38540  Biso   1.000  C
  C134     1.0000 0.58579  0.25680  0.38540  Biso   1.000  C
  C135     1.0000 0.66421  0.50680  0.63540  Biso   1.000  C
  C136     1.0000 0.83579  0.99320  0.63540  Biso   1.000  C
  C137     1.0000 0.91421  0.24320  0.38540  Biso   1.000  C
  C138     1.0000 0.08579  0.75680  0.38540  Biso   1.000  C
  C139     1.0000 0.16421  0.00680  0.63540  Biso   1.000  C
  C140     1.0000 0.33579  0.49320  0.63540  Biso   1.000  C
  C141     1.0000 0.91421  0.74320  0.88540  Biso   1.000  C
  C142     1.0000 0.08579  0.25680  0.88540  Biso   1.000  C
  C143     1.0000 0.16421  0.50680  0.13540  Biso   1.000  C
  C144     1.0000 0.33579  0.99320  0.13540  Biso   1.000  C
  H97      1.0000 0.38750  0.24580  0.82950  Biso   1.000  H
  H98      1.0000 0.61250  0.75420  0.82950  Biso   1.000  H
  H99      1.0000 0.63750  0.00420  0.07950  Biso   1.000  H
  H100     1.0000 0.86250  0.49580  0.07950  Biso   1.000  H
  H101     1.0000 0.38750  0.74580  0.32950  Biso   1.000  H
  H102     1.0000 0.61250  0.25420  0.32950  Biso   1.000  H
  H103     1.0000 0.63750  0.50420  0.57950  Biso   1.000  H
  H104     1.0000 0.86250  0.99580  0.57950  Biso   1.000  H
  H105     1.0000 0.88750  0.24580  0.32950  Biso   1.000  H
  H106     1.0000 0.11250  0.75420  0.32950  Biso   1.000  H
  H107     1.0000 0.13750  0.00420  0.57950  Biso   1.000  H
  H108     1.0000 0.36250  0.49580  0.57950  Biso   1.000  H
  H109     1.0000 0.88750  0.74580  0.82950  Biso   1.000  H
  H110     1.0000 0.11250  0.25420  0.82950  Biso   1.000  H
  H111     1.0000 0.13750  0.50420  0.07950  Biso   1.000  H
  H112     1.0000 0.36250  0.99580  0.07950  Biso   1.000  H
  C145     1.0000 0.44985  0.26067  0.89840  Biso   1.000  C
  C146     1.0000 0.55015  0.73933  0.89840  Biso   1.000  C
  C147     1.0000 0.69985  0.98933  0.14840  Biso   1.000  C
  C148     1.0000 0.80015  0.51067  0.14840  Biso   1.000  C
  C149     1.0000 0.44985  0.76067  0.39840  Biso   1.000  C
  C150     1.0000 0.55015  0.23933  0.39840  Biso   1.000  C
  C151     1.0000 0.69985  0.48933  0.64840  Biso   1.000  C
  C152     1.0000 0.80015  0.01067  0.64840  Biso   1.000  C
  C153     1.0000 0.94985  0.26067  0.39840  Biso   1.000  C
  C154     1.0000 0.05015  0.73933  0.39840  Biso   1.000  C
  C155     1.0000 0.19985  0.98933  0.64840  Biso   1.000  C
  C156     1.0000 0.30015  0.51067  0.64840  Biso   1.000  C
  C157     1.0000 0.94985  0.76067  0.89840  Biso   1.000  C
  C158     1.0000 0.05015  0.23933  0.89840  Biso   1.000  C
  C159     1.0000 0.19985  0.48933  0.14840  Biso   1.000  C
  C160     1.0000 0.30015  0.01067  0.14840  Biso   1.000  C
  H113     1.0000 0.44710  0.27500  0.85340  Biso   1.000  H
  H114     1.0000 0.55290  0.72500  0.85340  Biso   1.000  H
  H115     1.0000 0.69710  0.97500  0.10340  Biso   1.000  H
  H116     1.0000 0.80290  0.52500  0.10340  Biso   1.000  H
  H117     1.0000 0.44710  0.77500  0.35340  Biso   1.000  H
  H118     1.0000 0.55290  0.22500  0.35340  Biso   1.000  H
  H119     1.0000 0.69710  0.47500  0.60340  Biso   1.000  H
  H120     1.0000 0.80290  0.02500  0.60340  Biso   1.000  H
  H121     1.0000 0.94710  0.27500  0.35340  Biso   1.000  H
  H122     1.0000 0.05290  0.72500  0.35340  Biso   1.000  H
  H123     1.0000 0.19710  0.97500  0.60340  Biso   1.000  H
  H124     1.0000 0.30290  0.52500  0.60340  Biso   1.000  H
  H125     1.0000 0.94710  0.77500  0.85340  Biso   1.000  H
  H126     1.0000 0.05290  0.22500  0.85340  Biso   1.000  H
  H127     1.0000 0.19710  0.47500  0.10340  Biso   1.000  H
  H128     1.0000 0.30290  0.02500  0.10340  Biso   1.000  H
  C161     1.0000 0.48967  0.25690  0.97820  Biso   1.000  C
  C162     1.0000 0.51033  0.74310  0.97820  Biso   1.000  C
  C163     1.0000 0.73967  0.99310  0.22820  Biso   1.000  C
  C164     1.0000 0.76033  0.50690  0.22820  Biso   1.000  C
  C165     1.0000 0.48967  0.75690  0.47820  Biso   1.000  C
  C166     1.0000 0.51033  0.24310  0.47820  Biso   1.000  C
  C167     1.0000 0.73967  0.49310  0.72820  Biso   1.000  C
  C168     1.0000 0.76033  0.00690  0.72820  Biso   1.000  C
  C169     1.0000 0.98967  0.25690  0.47820  Biso   1.000  C
  C170     1.0000 0.01033  0.74310  0.47820  Biso   1.000  C
  C171     1.0000 0.23967  0.99310  0.72820  Biso   1.000  C
  C172     1.0000 0.26033  0.50690  0.72820  Biso   1.000  C
  C173     1.0000 0.98967  0.75690  0.97820  Biso   1.000  C
  C174     1.0000 0.01033  0.24310  0.97820  Biso   1.000  C
  C175     1.0000 0.23967  0.49310  0.22820  Biso   1.000  C
  C176     1.0000 0.26033  0.00690  0.22820  Biso   1.000  C
  C177     1.0000 0.49068  0.23612  0.04430  Biso   1.000  C
  C178     1.0000 0.50932  0.76388  0.04430  Biso   1.000  C
  C179     1.0000 0.74068  0.01388  0.29430  Biso   1.000  C
  C180     1.0000 0.75932  0.48612  0.29430  Biso   1.000  C
  C181     1.0000 0.49068  0.73612  0.54430  Biso   1.000  C
  C182     1.0000 0.50932  0.26388  0.54430  Biso   1.000  C
  C183     1.0000 0.74068  0.51388  0.79430  Biso   1.000  C
  C184     1.0000 0.75932  0.98612  0.79430  Biso   1.000  C
  C185     1.0000 0.99068  0.23612  0.54430  Biso   1.000  C
  C186     1.0000 0.00932  0.76388  0.54430  Biso   1.000  C
  C187     1.0000 0.24068  0.01388  0.79430  Biso   1.000  C
  C188     1.0000 0.25932  0.48612  0.79430  Biso   1.000  C
  C189     1.0000 0.99068  0.73612  0.04430  Biso   1.000  C
  C190     1.0000 0.00932  0.26388  0.04430  Biso   1.000  C
  C191     1.0000 0.24068  0.51388  0.29430  Biso   1.000  C
  C192     1.0000 0.25932  0.98612  0.29430  Biso   1.000  C
  H129     1.0000 0.51700  0.23300  0.10060  Biso   1.000  H
  H130     1.0000 0.48300  0.76700  0.10060  Biso   1.000  H
  H131     1.0000 0.76700  0.01700  0.35060  Biso   1.000  H
  H132     1.0000 0.73300  0.48300  0.35060  Biso   1.000  H
  H133     1.0000 0.51700  0.73300  0.60060  Biso   1.000  H
  H134     1.0000 0.48300  0.26700  0.60060  Biso   1.000  H
  H135     1.0000 0.76700  0.51700  0.85060  Biso   1.000  H
  H136     1.0000 0.73300  0.98300  0.85060  Biso   1.000  H
  H137     1.0000 0.01700  0.23300  0.60060  Biso   1.000  H
  H138     1.0000 0.98300  0.76700  0.60060  Biso   1.000  H
  H139     1.0000 0.26700  0.01700  0.85060  Biso   1.000  H
  H140     1.0000 0.23300  0.48300  0.85060  Biso   1.000  H
  H141     1.0000 0.01700  0.73300  0.10060  Biso   1.000  H
  H142     1.0000 0.98300  0.26700  0.10060  Biso   1.000  H
  H143     1.0000 0.26700  0.51700  0.35060  Biso   1.000  H
  H144     1.0000 0.23300  0.98300  0.35060  Biso   1.000  H
  C193     1.0000 0.45306  0.21969  0.02820  Biso   1.000  C
  C194     1.0000 0.54694  0.78031  0.02820  Biso   1.000  C
  C195     1.0000 0.70306  0.03031  0.27820  Biso   1.000  C
  C196     1.0000 0.79694  0.46969  0.27820  Biso   1.000  C
  C197     1.0000 0.45306  0.71969  0.52820  Biso   1.000  C
  C198     1.0000 0.54694  0.28031  0.52820  Biso   1.000  C
  C199     1.0000 0.70306  0.53031  0.77820  Biso   1.000  C
  C200     1.0000 0.79694  0.96969  0.77820  Biso   1.000  C
  C201     1.0000 0.95306  0.21969  0.52820  Biso   1.000  C
  C202     1.0000 0.04694  0.78031  0.52820  Biso   1.000  C
  C203     1.0000 0.20306  0.03031  0.77820  Biso   1.000  C
  C204     1.0000 0.29694  0.46969  0.77820  Biso   1.000  C
  C205     1.0000 0.95306  0.71969  0.02820  Biso   1.000  C
  C206     1.0000 0.04694  0.28031  0.02820  Biso   1.000  C
  C207     1.0000 0.20306  0.53031  0.27820  Biso   1.000  C
  C208     1.0000 0.29694  0.96969  0.27820  Biso   1.000  C
  H145     1.0000 0.45380  0.20560  0.07590  Biso   1.000  H
  H146     1.0000 0.54620  0.79440  0.07590  Biso   1.000  H
  H147     1.0000 0.70380  0.04440  0.32590  Biso   1.000  H
  H148     1.0000 0.79620  0.45560  0.32590  Biso   1.000  H
  H149     1.0000 0.45380  0.70560  0.57590  Biso   1.000  H
  H150     1.0000 0.54620  0.29440  0.57590  Biso   1.000  H
  H151     1.0000 0.70380  0.54440  0.82590  Biso   1.000  H
  H152     1.0000 0.79620  0.95560  0.82590  Biso   1.000  H
  H153     1.0000 0.95380  0.20560  0.57590  Biso   1.000  H
  H154     1.0000 0.04620  0.79440  0.57590  Biso   1.000  H
  H155     1.0000 0.20380  0.04440  0.82590  Biso   1.000  H
  H156     1.0000 0.29620  0.45560  0.82590  Biso   1.000  H
  H157     1.0000 0.95380  0.70560  0.07590  Biso   1.000  H
  H158     1.0000 0.04620  0.29440  0.07590  Biso   1.000  H
  H159     1.0000 0.20380  0.54440  0.32590  Biso   1.000  H
  H160     1.0000 0.29620  0.95560  0.32590  Biso   1.000  H
  C209     1.0000 0.52969  0.27525  0.99530  Biso   1.000  C
  C210     1.0000 0.47031  0.72475  0.99530  Biso   1.000  C
  C211     1.0000 0.77969  0.97475  0.24530  Biso   1.000  C
  C212     1.0000 0.72031  0.52525  0.24530  Biso   1.000  C
  C213     1.0000 0.52969  0.77525  0.49530  Biso   1.000  C
  C214     1.0000 0.47031  0.22475  0.49530  Biso   1.000  C
  C215     1.0000 0.77969  0.47475  0.74530  Biso   1.000  C
  C216     1.0000 0.72031  0.02525  0.74530  Biso   1.000  C
  C217     1.0000 0.02969  0.27525  0.49530  Biso   1.000  C
  C218     1.0000 0.97031  0.72475  0.49530  Biso   1.000  C
  C219     1.0000 0.27969  0.97475  0.74530  Biso   1.000  C
  C220     1.0000 0.22031  0.52525  0.74530  Biso   1.000  C
  C221     1.0000 0.02969  0.77525  0.99530  Biso   1.000  C
  C222     1.0000 0.97031  0.22475  0.99530  Biso   1.000  C
  C223     1.0000 0.27969  0.47475  0.24530  Biso   1.000  C
  C224     1.0000 0.22031  0.02525  0.24530  Biso   1.000  C
  H161     1.0000 0.55730  0.26850  0.04420  Biso   1.000  H
  H162     1.0000 0.44270  0.73150  0.04420  Biso   1.000  H
  H163     1.0000 0.80730  0.98150  0.29420  Biso   1.000  H
  H164     1.0000 0.69270  0.51850  0.29420  Biso   1.000  H
  H165     1.0000 0.55730  0.76850  0.54420  Biso   1.000  H
  H166     1.0000 0.44270  0.23150  0.54420  Biso   1.000  H
  H167     1.0000 0.80730  0.48150  0.79420  Biso   1.000  H
  H168     1.0000 0.69270  0.01850  0.79420  Biso   1.000  H
  H169     1.0000 0.05730  0.26850  0.54420  Biso   1.000  H
  H170     1.0000 0.94270  0.73150  0.54420  Biso   1.000  H
  H171     1.0000 0.30730  0.98150  0.79420  Biso   1.000  H
  H172     1.0000 0.19270  0.51850  0.79420  Biso   1.000  H
  H173     1.0000 0.05730  0.76850  0.04420  Biso   1.000  H
  H174     1.0000 0.94270  0.23150  0.04420  Biso   1.000  H
  H175     1.0000 0.30730  0.48150  0.29420  Biso   1.000  H
  H176     1.0000 0.19270  0.01850  0.29420  Biso   1.000  H
  H177     1.0000 0.54290  0.27990  0.91300  Biso   1.000  H
  H178     1.0000 0.45710  0.72010  0.91300  Biso   1.000  H
  H179     1.0000 0.79290  0.97010  0.16300  Biso   1.000  H
  H180     1.0000 0.70710  0.52990  0.16300  Biso   1.000  H
  H181     1.0000 0.54290  0.77990  0.41300  Biso   1.000  H
  H182     1.0000 0.45710  0.22010  0.41300  Biso   1.000  H
  H183     1.0000 0.79290  0.47010  0.66300  Biso   1.000  H
  H184     1.0000 0.70710  0.02990  0.66300  Biso   1.000  H
  H185     1.0000 0.04290  0.27990  0.41300  Biso   1.000  H
  H186     1.0000 0.95710  0.72010  0.41300  Biso   1.000  H
  H187     1.0000 0.29290  0.97010  0.66300  Biso   1.000  H
  H188     1.0000 0.20710  0.52990  0.66300  Biso   1.000  H
  H189     1.0000 0.04290  0.77990  0.91300  Biso   1.000  H
  H190     1.0000 0.95710  0.22010  0.91300  Biso   1.000  H
  H191     1.0000 0.29290  0.47010  0.16300  Biso   1.000  H
  H192     1.0000 0.20710  0.02990  0.16300  Biso   1.000  H
  C225     1.0000 0.49809  0.31503  0.99140  Biso   1.000  C
  C226     1.0000 0.50191  0.68497  0.99140  Biso   1.000  C
  C227     1.0000 0.74809  0.93497  0.24140  Biso   1.000  C
  C228     1.0000 0.75191  0.56503  0.24140  Biso   1.000  C
  C229     1.0000 0.49809  0.81503  0.49140  Biso   1.000  C
  C230     1.0000 0.50191  0.18497  0.49140  Biso   1.000  C
  C231     1.0000 0.74809  0.43497  0.74140  Biso   1.000  C
  C232     1.0000 0.75191  0.06503  0.74140  Biso   1.000  C
  C233     1.0000 0.99809  0.31503  0.49140  Biso   1.000  C
  C234     1.0000 0.00191  0.68497  0.49140  Biso   1.000  C
  C235     1.0000 0.24809  0.93497  0.74140  Biso   1.000  C
  C236     1.0000 0.25191  0.56503  0.74140  Biso   1.000  C
  C237     1.0000 0.99809  0.81503  0.99140  Biso   1.000  C
  C238     1.0000 0.00191  0.18497  0.99140  Biso   1.000  C
  C239     1.0000 0.24809  0.43497  0.24140  Biso   1.000  C
  C240     1.0000 0.25191  0.06503  0.24140  Biso   1.000  C
  C241     1.0000 0.50281  0.29393  0.19250  Biso   1.000  C
  C242     1.0000 0.49719  0.70607  0.19250  Biso   1.000  C
  C243     1.0000 0.75281  0.95607  0.44250  Biso   1.000  C
  C244     1.0000 0.74719  0.54393  0.44250  Biso   1.000  C
  C245     1.0000 0.50281  0.79393  0.69250  Biso   1.000  C
  C246     1.0000 0.49719  0.20607  0.69250  Biso   1.000  C
  C247     1.0000 0.75281  0.45607  0.94250  Biso   1.000  C
  C248     1.0000 0.74719  0.04393  0.94250  Biso   1.000  C
  C249     1.0000 0.00281  0.29393  0.69250  Biso   1.000  C
  C250     1.0000 0.99719  0.70607  0.69250  Biso   1.000  C
  C251     1.0000 0.25281  0.95607  0.94250  Biso   1.000  C
  C252     1.0000 0.24719  0.54393  0.94250  Biso   1.000  C
  C253     1.0000 0.00281  0.79393  0.19250  Biso   1.000  C
  C254     1.0000 0.99719  0.20607  0.19250  Biso   1.000  C
  C255     1.0000 0.25281  0.45607  0.44250  Biso   1.000  C
  C256     1.0000 0.24719  0.04393  0.44250  Biso   1.000  C
  H193     1.0000 0.53460  0.29580  0.23540  Biso   1.000  H
  H194     1.0000 0.46540  0.70420  0.23540  Biso   1.000  H
  H195     1.0000 0.78460  0.95420  0.48540  Biso   1.000  H
  H196     1.0000 0.71540  0.54580  0.48540  Biso   1.000  H
  H197     1.0000 0.53460  0.79580  0.73540  Biso   1.000  H
  H198     1.0000 0.46540  0.20420  0.73540  Biso   1.000  H
  H199     1.0000 0.78460  0.45420  0.98540  Biso   1.000  H
  H200     1.0000 0.71540  0.04580  0.98540  Biso   1.000  H
  H201     1.0000 0.03460  0.29580  0.73540  Biso   1.000  H
  H202     1.0000 0.96540  0.70420  0.73540  Biso   1.000  H
  H203     1.0000 0.28460  0.95420  0.98540  Biso   1.000  H
  H204     1.0000 0.21540  0.54580  0.98540  Biso   1.000  H
  H205     1.0000 0.03460  0.79580  0.23540  Biso   1.000  H
  H206     1.0000 0.96540  0.20420  0.23540  Biso   1.000  H
  H207     1.0000 0.28460  0.45420  0.48540  Biso   1.000  H
  H208     1.0000 0.21540  0.04580  0.48540  Biso   1.000  H
  H209     1.0000 0.48890  0.27840  0.21160  Biso   1.000  H
  H210     1.0000 0.51110  0.72160  0.21160  Biso   1.000  H
  H211     1.0000 0.73890  0.97160  0.46160  Biso   1.000  H
  H212     1.0000 0.76110  0.52840  0.46160  Biso   1.000  H
  H213     1.0000 0.48890  0.77840  0.71160  Biso   1.000  H
  H214     1.0000 0.51110  0.22160  0.71160  Biso   1.000  H
  H215     1.0000 0.73890  0.47160  0.96160  Biso   1.000  H
  H216     1.0000 0.76110  0.02840  0.96160  Biso   1.000  H
  H217     1.0000 0.98890  0.27840  0.71160  Biso   1.000  H
  H218     1.0000 0.01110  0.72160  0.71160  Biso   1.000  H
  H219     1.0000 0.23890  0.97160  0.96160  Biso   1.000  H
  H220     1.0000 0.26110  0.52840  0.96160  Biso   1.000  H
  H221     1.0000 0.98890  0.77840  0.21160  Biso   1.000  H
  H222     1.0000 0.01110  0.22160  0.21160  Biso   1.000  H
  H223     1.0000 0.23890  0.47160  0.46160  Biso   1.000  H
  H224     1.0000 0.26110  0.02840  0.46160  Biso   1.000  H
  H225     1.0000 0.47990  0.30620  0.22050  Biso   1.000  H
  H226     1.0000 0.52010  0.69380  0.22050  Biso   1.000  H
  H227     1.0000 0.72990  0.94380  0.47050  Biso   1.000  H
  H228     1.0000 0.77010  0.55620  0.47050  Biso   1.000  H
  H229     1.0000 0.47990  0.80620  0.72050  Biso   1.000  H
  H230     1.0000 0.52010  0.19380  0.72050  Biso   1.000  H
  H231     1.0000 0.72990  0.44380  0.97050  Biso   1.000  H
  H232     1.0000 0.77010  0.05620  0.97050  Biso   1.000  H
  H233     1.0000 0.97990  0.30620  0.72050  Biso   1.000  H
  H234     1.0000 0.02010  0.69380  0.72050  Biso   1.000  H
  H235     1.0000 0.22990  0.94380  0.97050  Biso   1.000  H
  H236     1.0000 0.27010  0.55620  0.97050  Biso   1.000  H
  H237     1.0000 0.97990  0.80620  0.22050  Biso   1.000  H
  H238     1.0000 0.02010  0.19380  0.22050  Biso   1.000  H
  H239     1.0000 0.22990  0.44380  0.47050  Biso   1.000  H
  H240     1.0000 0.27010  0.05620  0.47050  Biso   1.000  H
  C257     1.0000 0.48018  0.33638  0.06000  Biso   1.000  C
  C258     1.0000 0.51982  0.66362  0.06000  Biso   1.000  C
  C259     1.0000 0.73018  0.91362  0.31000  Biso   1.000  C
  C260     1.0000 0.76982  0.58638  0.31000  Biso   1.000  C
  C261     1.0000 0.48018  0.83638  0.56000  Biso   1.000  C
  C262     1.0000 0.51982  0.16362  0.56000  Biso   1.000  C
  C263     1.0000 0.73018  0.41362  0.81000  Biso   1.000  C
  C264     1.0000 0.76982  0.08638  0.81000  Biso   1.000  C
  C265     1.0000 0.98018  0.33638  0.56000  Biso   1.000  C
  C266     1.0000 0.01982  0.66362  0.56000  Biso   1.000  C
  C267     1.0000 0.23018  0.91362  0.81000  Biso   1.000  C
  C268     1.0000 0.26982  0.58638  0.81000  Biso   1.000  C
  C269     1.0000 0.98018  0.83638  0.06000  Biso   1.000  C
  C270     1.0000 0.01982  0.16362  0.06000  Biso   1.000  C
  C271     1.0000 0.23018  0.41362  0.31000  Biso   1.000  C
  C272     1.0000 0.26982  0.08638  0.31000  Biso   1.000  C
  C273     1.0000 0.43072  0.34312  0.04880  Biso   1.000  C
  C274     1.0000 0.56928  0.65688  0.04880  Biso   1.000  C
  C275     1.0000 0.68072  0.90688  0.29880  Biso   1.000  C
  C276     1.0000 0.81928  0.59312  0.29880  Biso   1.000  C
  C277     1.0000 0.43072  0.84312  0.54880  Biso   1.000  C
  C278     1.0000 0.56928  0.15688  0.54880  Biso   1.000  C
  C279     1.0000 0.68072  0.40688  0.79880  Biso   1.000  C
  C280     1.0000 0.81928  0.09312  0.79880  Biso   1.000  C
  C281     1.0000 0.93072  0.34312  0.54880  Biso   1.000  C
  C282     1.0000 0.06928  0.65688  0.54880  Biso   1.000  C
  C283     1.0000 0.18072  0.90688  0.79880  Biso   1.000  C
  C284     1.0000 0.31928  0.59312  0.79880  Biso   1.000  C
  C285     1.0000 0.93072  0.84312  0.04880  Biso   1.000  C
  C286     1.0000 0.06928  0.15688  0.04880  Biso   1.000  C
  C287     1.0000 0.18072  0.40688  0.29880  Biso   1.000  C
  C288     1.0000 0.31928  0.09312  0.29880  Biso   1.000  C
  H241     1.0000 0.40830  0.33380  0.00220  Biso   1.000  H
  H242     1.0000 0.59170  0.66620  0.00220  Biso   1.000  H
  H243     1.0000 0.65830  0.91620  0.25220  Biso   1.000  H
  H244     1.0000 0.84170  0.58380  0.25220  Biso   1.000  H
  H245     1.0000 0.40830  0.83380  0.50220  Biso   1.000  H
  H246     1.0000 0.59170  0.16620  0.50220  Biso   1.000  H
  H247     1.0000 0.65830  0.41620  0.75220  Biso   1.000  H
  H248     1.0000 0.84170  0.08380  0.75220  Biso   1.000  H
  H249     1.0000 0.90830  0.33380  0.50220  Biso   1.000  H
  H250     1.0000 0.09170  0.66620  0.50220  Biso   1.000  H
  H251     1.0000 0.15830  0.91620  0.75220  Biso   1.000  H
  H252     1.0000 0.34170  0.58380  0.75220  Biso   1.000  H
  H253     1.0000 0.90830  0.83380  0.00220  Biso   1.000  H
  H254     1.0000 0.09170  0.16620  0.00220  Biso   1.000  H
  H255     1.0000 0.15830  0.41620  0.25220  Biso   1.000  H
  H256     1.0000 0.34170  0.08380  0.25220  Biso   1.000  H
  C289     1.0000 0.17680  0.35058  0.87610  Biso   1.000  C
  C290     1.0000 0.82320  0.64942  0.87610  Biso   1.000  C
  C291     1.0000 0.42680  0.89942  0.12610  Biso   1.000  C
  C292     1.0000 0.07320  0.60058  0.12610  Biso   1.000  C
  C293     1.0000 0.17680  0.85058  0.37610  Biso   1.000  C
  C294     1.0000 0.82320  0.14942  0.37610  Biso   1.000  C
  C295     1.0000 0.42680  0.39942  0.62610  Biso   1.000  C
  C296     1.0000 0.07320  0.10058  0.62610  Biso   1.000  C
  C297     1.0000 0.67680  0.35058  0.37610  Biso   1.000  C
  C298     1.0000 0.32320  0.64942  0.37610  Biso   1.000  C
  C299     1.0000 0.92680  0.89942  0.62610  Biso   1.000  C
  C300     1.0000 0.57320  0.60058  0.62610  Biso   1.000  C
  C301     1.0000 0.67680  0.85058  0.87610  Biso   1.000  C
  C302     1.0000 0.32320  0.14942  0.87610  Biso   1.000  C
  C303     1.0000 0.92680  0.39942  0.12610  Biso   1.000  C
  C304     1.0000 0.57320  0.10058  0.12610  Biso   1.000  C
  H257     1.0000 0.14580  0.35410  0.83860  Biso   1.000  H
  H258     1.0000 0.85420  0.64590  0.83860  Biso   1.000  H
  H259     1.0000 0.39580  0.89590  0.08860  Biso   1.000  H
  H260     1.0000 0.10420  0.60410  0.08860  Biso   1.000  H
  H261     1.0000 0.14580  0.85410  0.33860  Biso   1.000  H
  H262     1.0000 0.85420  0.14590  0.33860  Biso   1.000  H
  H263     1.0000 0.39580  0.39590  0.58860  Biso   1.000  H
  H264     1.0000 0.10420  0.10410  0.58860  Biso   1.000  H
  H265     1.0000 0.64580  0.35410  0.33860  Biso   1.000  H
  H266     1.0000 0.35420  0.64590  0.33860  Biso   1.000  H
  H267     1.0000 0.89580  0.89590  0.58860  Biso   1.000  H
  H268     1.0000 0.60420  0.60410  0.58860  Biso   1.000  H
  H269     1.0000 0.64580  0.85410  0.83860  Biso   1.000  H
  H270     1.0000 0.35420  0.14590  0.83860  Biso   1.000  H
  H271     1.0000 0.89580  0.39590  0.08860  Biso   1.000  H
  H272     1.0000 0.60420  0.10410  0.08860  Biso   1.000  H
  C305     1.0000 0.20994  0.36876  0.89640  Biso   1.000  C
  C306     1.0000 0.79006  0.63124  0.89640  Biso   1.000  C
  C307     1.0000 0.45994  0.88124  0.14640  Biso   1.000  C
  C308     1.0000 0.04006  0.61876  0.14640  Biso   1.000  C
  C309     1.0000 0.20994  0.86876  0.39640  Biso   1.000  C
  C310     1.0000 0.79006  0.13124  0.39640  Biso   1.000  C
  C311     1.0000 0.45994  0.38124  0.64640  Biso   1.000  C
  C312     1.0000 0.04006  0.11876  0.64640  Biso   1.000  C
  C313     1.0000 0.70994  0.36876  0.39640  Biso   1.000  C
  C314     1.0000 0.29006  0.63124  0.39640  Biso   1.000  C
  C315     1.0000 0.95994  0.88124  0.64640  Biso   1.000  C
  C316     1.0000 0.54006  0.61876  0.64640  Biso   1.000  C
  C317     1.0000 0.70994  0.86876  0.89640  Biso   1.000  C
  C318     1.0000 0.29006  0.13124  0.89640  Biso   1.000  C
  C319     1.0000 0.95994  0.38124  0.14640  Biso   1.000  C
  C320     1.0000 0.54006  0.11876  0.14640  Biso   1.000  C
  H273     1.0000 0.20150  0.38440  0.87310  Biso   1.000  H
  H274     1.0000 0.79850  0.61560  0.87310  Biso   1.000  H
  H275     1.0000 0.45150  0.86560  0.12310  Biso   1.000  H
  H276     1.0000 0.04850  0.63440  0.12310  Biso   1.000  H
  H277     1.0000 0.20150  0.88440  0.37310  Biso   1.000  H
  H278     1.0000 0.79850  0.11560  0.37310  Biso   1.000  H
  H279     1.0000 0.45150  0.36560  0.62310  Biso   1.000  H
  H280     1.0000 0.04850  0.13440  0.62310  Biso   1.000  H
  H281     1.0000 0.70150  0.38440  0.37310  Biso   1.000  H
  H282     1.0000 0.29850  0.61560  0.37310  Biso   1.000  H
  H283     1.0000 0.95150  0.86560  0.62310  Biso   1.000  H
  H284     1.0000 0.54850  0.63440  0.62310  Biso   1.000  H
  H285     1.0000 0.70150  0.88440  0.87310  Biso   1.000  H
  H286     1.0000 0.29850  0.11560  0.87310  Biso   1.000  H
  H287     1.0000 0.95150  0.36560  0.12310  Biso   1.000  H
  H288     1.0000 0.54850  0.13440  0.12310  Biso   1.000  H
  C321     1.0000 0.25551  0.36410  0.95080  Biso   1.000  C
  C322     1.0000 0.74449  0.63590  0.95080  Biso   1.000  C
  C323     1.0000 0.50551  0.88590  0.20080  Biso   1.000  C
  C324     1.0000 0.99449  0.61410  0.20080  Biso   1.000  C
  C325     1.0000 0.25551  0.86410  0.45080  Biso   1.000  C
  C326     1.0000 0.74449  0.13590  0.45080  Biso   1.000  C
  C327     1.0000 0.50551  0.38590  0.70080  Biso   1.000  C
  C328     1.0000 0.99449  0.11410  0.70080  Biso   1.000  C
  C329     1.0000 0.75551  0.36410  0.45080  Biso   1.000  C
  C330     1.0000 0.24449  0.63590  0.45080  Biso   1.000  C
  C331     1.0000 0.00551  0.88590  0.70080  Biso   1.000  C
  C332     1.0000 0.49449  0.61410  0.70080  Biso   1.000  C
  C333     1.0000 0.75551  0.86410  0.95080  Biso   1.000  C
  C334     1.0000 0.24449  0.13590  0.95080  Biso   1.000  C
  C335     1.0000 0.00551  0.38590  0.20080  Biso   1.000  C
  C336     1.0000 0.49449  0.11410  0.20080  Biso   1.000  C
  C337     1.0000 0.26688  0.34069  0.97360  Biso   1.000  C
  C338     1.0000 0.73312  0.65931  0.97360  Biso   1.000  C
  C339     1.0000 0.51688  0.90931  0.22360  Biso   1.000  C
  C340     1.0000 0.98312  0.59069  0.22360  Biso   1.000  C
  C341     1.0000 0.26688  0.84069  0.47360  Biso   1.000  C
  C342     1.0000 0.73312  0.15931  0.47360  Biso   1.000  C
  C343     1.0000 0.51688  0.40931  0.72360  Biso   1.000  C
  C344     1.0000 0.98312  0.09069  0.72360  Biso   1.000  C
  C345     1.0000 0.76688  0.34069  0.47360  Biso   1.000  C
  C346     1.0000 0.23312  0.65931  0.47360  Biso   1.000  C
  C347     1.0000 0.01688  0.90931  0.72360  Biso   1.000  C
  C348     1.0000 0.48312  0.59069  0.72360  Biso   1.000  C
  C349     1.0000 0.76688  0.84069  0.97360  Biso   1.000  C
  C350     1.0000 0.23312  0.15931  0.97360  Biso   1.000  C
  C351     1.0000 0.01688  0.40931  0.22360  Biso   1.000  C
  C352     1.0000 0.48312  0.09069  0.22360  Biso   1.000  C
  H289     1.0000 0.29870  0.33650  0.00410  Biso   1.000  H
  H290     1.0000 0.70130  0.66350  0.00410  Biso   1.000  H
  H291     1.0000 0.54870  0.91350  0.25410  Biso   1.000  H
  H292     1.0000 0.95130  0.58650  0.25410  Biso   1.000  H
  H293     1.0000 0.29870  0.83650  0.50410  Biso   1.000  H
  H294     1.0000 0.70130  0.16350  0.50410  Biso   1.000  H
  H295     1.0000 0.54870  0.41350  0.75410  Biso   1.000  H
  H296     1.0000 0.95130  0.08650  0.75410  Biso   1.000  H
  H297     1.0000 0.79870  0.33650  0.50410  Biso   1.000  H
  H298     1.0000 0.20130  0.66350  0.50410  Biso   1.000  H
  H299     1.0000 0.04870  0.91350  0.75410  Biso   1.000  H
  H300     1.0000 0.45130  0.58650  0.75410  Biso   1.000  H
  H301     1.0000 0.79870  0.83650  0.00410  Biso   1.000  H
  H302     1.0000 0.20130  0.16350  0.00410  Biso   1.000  H
  H303     1.0000 0.04870  0.41350  0.25410  Biso   1.000  H
  H304     1.0000 0.45130  0.08650  0.25410  Biso   1.000  H
  C353     1.0000 0.23169  0.32346  0.95170  Biso   1.000  C
  C354     1.0000 0.76831  0.67654  0.95170  Biso   1.000  C
  C355     1.0000 0.48169  0.92654  0.20170  Biso   1.000  C
  C356     1.0000 0.01831  0.57346  0.20170  Biso   1.000  C
  C357     1.0000 0.23169  0.82346  0.45170  Biso   1.000  C
  C358     1.0000 0.76831  0.17654  0.45170  Biso   1.000  C
  C359     1.0000 0.48169  0.42654  0.70170  Biso   1.000  C
  C360     1.0000 0.01831  0.07346  0.70170  Biso   1.000  C
  C361     1.0000 0.73169  0.32346  0.45170  Biso   1.000  C
  C362     1.0000 0.26831  0.67654  0.45170  Biso   1.000  C
  C363     1.0000 0.98169  0.92654  0.70170  Biso   1.000  C
  C364     1.0000 0.51831  0.57346  0.70170  Biso   1.000  C
  C365     1.0000 0.73169  0.82346  0.95170  Biso   1.000  C
  C366     1.0000 0.26831  0.17654  0.95170  Biso   1.000  C
  C367     1.0000 0.98169  0.42654  0.20170  Biso   1.000  C
  C368     1.0000 0.51831  0.07346  0.20170  Biso   1.000  C
  H305     1.0000 0.23990  0.30750  0.96900  Biso   1.000  H
  H306     1.0000 0.76010  0.69250  0.96900  Biso   1.000  H
  H307     1.0000 0.48990  0.94250  0.21900  Biso   1.000  H
  H308     1.0000 0.01010  0.55750  0.21900  Biso   1.000  H
  H309     1.0000 0.23990  0.80750  0.46900  Biso   1.000  H
  H310     1.0000 0.76010  0.19250  0.46900  Biso   1.000  H
  H311     1.0000 0.48990  0.44250  0.71900  Biso   1.000  H
  H312     1.0000 0.01010  0.05750  0.71900  Biso   1.000  H
  H313     1.0000 0.73990  0.30750  0.46900  Biso   1.000  H
  H314     1.0000 0.26010  0.69250  0.46900  Biso   1.000  H
  H315     1.0000 0.98990  0.94250  0.71900  Biso   1.000  H
  H316     1.0000 0.51010  0.55750  0.71900  Biso   1.000  H
  H317     1.0000 0.73990  0.80750  0.96900  Biso   1.000  H
  H318     1.0000 0.26010  0.19250  0.96900  Biso   1.000  H
  H319     1.0000 0.98990  0.44250  0.21900  Biso   1.000  H
  H320     1.0000 0.51010  0.05750  0.21900  Biso   1.000  H
  C369     1.0000 0.28961  0.38405  0.98570  Biso   1.000  C
  C370     1.0000 0.71039  0.61595  0.98570  Biso   1.000  C
  C371     1.0000 0.53961  0.86595  0.23570  Biso   1.000  C
  C372     1.0000 0.96039  0.63405  0.23570  Biso   1.000  C
  C373     1.0000 0.28961  0.88405  0.48570  Biso   1.000  C
  C374     1.0000 0.71039  0.11595  0.48570  Biso   1.000  C
  C375     1.0000 0.53961  0.36595  0.73570  Biso   1.000  C
  C376     1.0000 0.96039  0.13405  0.73570  Biso   1.000  C
  C377     1.0000 0.78961  0.38405  0.48570  Biso   1.000  C
  C378     1.0000 0.21039  0.61595  0.48570  Biso   1.000  C
  C379     1.0000 0.03961  0.86595  0.73570  Biso   1.000  C
  C380     1.0000 0.46039  0.63405  0.73570  Biso   1.000  C
  C381     1.0000 0.78961  0.88405  0.98570  Biso   1.000  C
  C382     1.0000 0.21039  0.11595  0.98570  Biso   1.000  C
  C383     1.0000 0.03961  0.36595  0.23570  Biso   1.000  C
  C384     1.0000 0.46039  0.13405  0.23570  Biso   1.000  C
  H321     1.0000 0.28610  0.39680  0.92350  Biso   1.000  H
  H322     1.0000 0.71390  0.60320  0.92350  Biso   1.000  H
  H323     1.0000 0.53610  0.85320  0.17350  Biso   1.000  H
  H324     1.0000 0.96390  0.64680  0.17350  Biso   1.000  H
  H325     1.0000 0.28610  0.89680  0.42350  Biso   1.000  H
  H326     1.0000 0.71390  0.10320  0.42350  Biso   1.000  H
  H327     1.0000 0.53610  0.35320  0.67350  Biso   1.000  H
  H328     1.0000 0.96390  0.14680  0.67350  Biso   1.000  H
  H329     1.0000 0.78610  0.39680  0.42350  Biso   1.000  H
  H330     1.0000 0.21390  0.60320  0.42350  Biso   1.000  H
  H331     1.0000 0.03610  0.85320  0.67350  Biso   1.000  H
  H332     1.0000 0.46390  0.64680  0.67350  Biso   1.000  H
  H333     1.0000 0.78610  0.89680  0.92350  Biso   1.000  H
  H334     1.0000 0.21390  0.10320  0.92350  Biso   1.000  H
  H335     1.0000 0.03610  0.35320  0.17350  Biso   1.000  H
  H336     1.0000 0.46390  0.14680  0.17350  Biso   1.000  H
  H337     1.0000 0.27920  0.39040  0.06730  Biso   1.000  H
  H338     1.0000 0.72080  0.60960  0.06730  Biso   1.000  H
  H339     1.0000 0.52920  0.85960  0.31730  Biso   1.000  H
  H340     1.0000 0.97080  0.64040  0.31730  Biso   1.000  H
  H341     1.0000 0.27920  0.89040  0.56730  Biso   1.000  H
  H342     1.0000 0.72080  0.10960  0.56730  Biso   1.000  H
  H343     1.0000 0.52920  0.35960  0.81730  Biso   1.000  H
  H344     1.0000 0.97080  0.14040  0.81730  Biso   1.000  H
  H345     1.0000 0.77920  0.39040  0.56730  Biso   1.000  H
  H346     1.0000 0.22080  0.60960  0.56730  Biso   1.000  H
  H347     1.0000 0.02920  0.85960  0.81730  Biso   1.000  H
  H348     1.0000 0.47080  0.64040  0.81730  Biso   1.000  H
  H349     1.0000 0.77920  0.89040  0.06730  Biso   1.000  H
  H350     1.0000 0.22080  0.10960  0.06730  Biso   1.000  H
  H351     1.0000 0.02920  0.35960  0.31730  Biso   1.000  H
  H352     1.0000 0.47080  0.14040  0.31730  Biso   1.000  H
  C385     1.0000 0.36060  0.37070  0.10380  Biso   1.000  C
  C386     1.0000 0.63940  0.62930  0.10380  Biso   1.000  C
  C387     1.0000 0.61060  0.87930  0.35380  Biso   1.000  C
  C388     1.0000 0.88940  0.62070  0.35380  Biso   1.000  C
  C389     1.0000 0.36060  0.87070  0.60380  Biso   1.000  C
  C390     1.0000 0.63940  0.12930  0.60380  Biso   1.000  C
  C391     1.0000 0.61060  0.37930  0.85380  Biso   1.000  C
  C392     1.0000 0.88940  0.12070  0.85380  Biso   1.000  C
  C393     1.0000 0.86060  0.37070  0.60380  Biso   1.000  C
  C394     1.0000 0.13940  0.62930  0.60380  Biso   1.000  C
  C395     1.0000 0.11060  0.87930  0.85380  Biso   1.000  C
  C396     1.0000 0.38940  0.62070  0.85380  Biso   1.000  C
  C397     1.0000 0.86060  0.87070  0.10380  Biso   1.000  C
  C398     1.0000 0.13940  0.12930  0.10380  Biso   1.000  C
  C399     1.0000 0.11060  0.37930  0.35380  Biso   1.000  C
  C400     1.0000 0.38940  0.12070  0.35380  Biso   1.000  C
  C401     1.0000 0.36987  0.37957  0.87820  Biso   1.000  C
  C402     1.0000 0.63013  0.62043  0.87820  Biso   1.000  C
  C403     1.0000 0.61987  0.87043  0.12820  Biso   1.000  C
  C404     1.0000 0.88013  0.62957  0.12820  Biso   1.000  C
  C405     1.0000 0.36987  0.87957  0.37820  Biso   1.000  C
  C406     1.0000 0.63013  0.12043  0.37820  Biso   1.000  C
  C407     1.0000 0.61987  0.37043  0.62820  Biso   1.000  C
  C408     1.0000 0.88013  0.12957  0.62820  Biso   1.000  C
  C409     1.0000 0.86987  0.37957  0.37820  Biso   1.000  C
  C410     1.0000 0.13013  0.62043  0.37820  Biso   1.000  C
  C411     1.0000 0.11987  0.87043  0.62820  Biso   1.000  C
  C412     1.0000 0.38013  0.62957  0.62820  Biso   1.000  C
  C413     1.0000 0.86987  0.87957  0.87820  Biso   1.000  C
  C414     1.0000 0.13013  0.12043  0.87820  Biso   1.000  C
  C415     1.0000 0.11987  0.37043  0.12820  Biso   1.000  C
  C416     1.0000 0.38013  0.12957  0.12820  Biso   1.000  C
  H353     1.0000 0.40420  0.37470  0.89280  Biso   1.000  H
  H354     1.0000 0.59580  0.62530  0.89280  Biso   1.000  H
  H355     1.0000 0.65420  0.87530  0.14280  Biso   1.000  H
  H356     1.0000 0.84580  0.62470  0.14280  Biso   1.000  H
  H357     1.0000 0.40420  0.87470  0.39280  Biso   1.000  H
  H358     1.0000 0.59580  0.12530  0.39280  Biso   1.000  H
  H359     1.0000 0.65420  0.37530  0.64280  Biso   1.000  H
  H360     1.0000 0.84580  0.12470  0.64280  Biso   1.000  H
  H361     1.0000 0.90420  0.37470  0.39280  Biso   1.000  H
  H362     1.0000 0.09580  0.62530  0.39280  Biso   1.000  H
  H363     1.0000 0.15420  0.87530  0.64280  Biso   1.000  H
  H364     1.0000 0.34580  0.62470  0.64280  Biso   1.000  H
  H365     1.0000 0.90420  0.87470  0.89280  Biso   1.000  H
  H366     1.0000 0.09580  0.12530  0.89280  Biso   1.000  H
  H367     1.0000 0.15420  0.37530  0.14280  Biso   1.000  H
  H368     1.0000 0.34580  0.12470  0.14280  Biso   1.000  H
  H369     1.0000 0.36920  0.39600  0.85060  Biso   1.000  H
  H370     1.0000 0.63080  0.60400  0.85060  Biso   1.000  H
  H371     1.0000 0.61920  0.85400  0.10060  Biso   1.000  H
  H372     1.0000 0.88080  0.64600  0.10060  Biso   1.000  H
  H373     1.0000 0.36920  0.89600  0.35060  Biso   1.000  H
  H374     1.0000 0.63080  0.10400  0.35060  Biso   1.000  H
  H375     1.0000 0.61920  0.35400  0.60060  Biso   1.000  H
  H376     1.0000 0.88080  0.14600  0.60060  Biso   1.000  H
  H377     1.0000 0.86920  0.39600  0.35060  Biso   1.000  H
  H378     1.0000 0.13080  0.60400  0.35060  Biso   1.000  H
  H379     1.0000 0.11920  0.85400  0.60060  Biso   1.000  H
  H380     1.0000 0.38080  0.64600  0.60060  Biso   1.000  H
  H381     1.0000 0.86920  0.89600  0.85060  Biso   1.000  H
  H382     1.0000 0.13080  0.10400  0.85060  Biso   1.000  H
  H383     1.0000 0.11920  0.35400  0.10060  Biso   1.000  H
  H384     1.0000 0.38080  0.14600  0.10060  Biso   1.000  H
  H385     1.0000 0.35520  0.36950  0.81390  Biso   1.000  H
  H386     1.0000 0.64480  0.63050  0.81390  Biso   1.000  H
  H387     1.0000 0.60520  0.88050  0.06390  Biso   1.000  H
  H388     1.0000 0.89480  0.61950  0.06390  Biso   1.000  H
  H389     1.0000 0.35520  0.86950  0.31390  Biso   1.000  H
  H390     1.0000 0.64480  0.13050  0.31390  Biso   1.000  H
  H391     1.0000 0.60520  0.38050  0.56390  Biso   1.000  H
  H392     1.0000 0.89480  0.11950  0.56390  Biso   1.000  H
  H393     1.0000 0.85520  0.36950  0.31390  Biso   1.000  H
  H394     1.0000 0.14480  0.63050  0.31390  Biso   1.000  H
  H395     1.0000 0.10520  0.88050  0.56390  Biso   1.000  H
  H396     1.0000 0.39480  0.61950  0.56390  Biso   1.000  H
  H397     1.0000 0.85520  0.86950  0.81390  Biso   1.000  H
  H398     1.0000 0.14480  0.13050  0.81390  Biso   1.000  H
  H399     1.0000 0.10520  0.38050  0.06390  Biso   1.000  H
  H400     1.0000 0.39480  0.11950  0.06390  Biso   1.000  H
  C417     1.0000 0.41446  0.36363  0.10640  Biso   1.000  C
  C418     1.0000 0.58554  0.63637  0.10640  Biso   1.000  C
  C419     1.0000 0.66446  0.88637  0.35640  Biso   1.000  C
  C420     1.0000 0.83554  0.61363  0.35640  Biso   1.000  C
  C421     1.0000 0.41446  0.86363  0.60640  Biso   1.000  C
  C422     1.0000 0.58554  0.13637  0.60640  Biso   1.000  C
  C423     1.0000 0.66446  0.38637  0.85640  Biso   1.000  C
  C424     1.0000 0.83554  0.11363  0.85640  Biso   1.000  C
  C425     1.0000 0.91446  0.36363  0.60640  Biso   1.000  C
  C426     1.0000 0.08554  0.63637  0.60640  Biso   1.000  C
  C427     1.0000 0.16446  0.88637  0.85640  Biso   1.000  C
  C428     1.0000 0.33554  0.61363  0.85640  Biso   1.000  C
  C429     1.0000 0.91446  0.86363  0.10640  Biso   1.000  C
  C430     1.0000 0.08554  0.13637  0.10640  Biso   1.000  C
  C431     1.0000 0.16446  0.38637  0.35640  Biso   1.000  C
  C432     1.0000 0.33554  0.11363  0.35640  Biso   1.000  C
  C433     1.0000 0.44744  0.37771  0.17250  Biso   1.000  C
  C434     1.0000 0.55256  0.62229  0.17250  Biso   1.000  C
  C435     1.0000 0.69744  0.87229  0.42250  Biso   1.000  C
  C436     1.0000 0.80256  0.62771  0.42250  Biso   1.000  C
  C437     1.0000 0.44744  0.87771  0.67250  Biso   1.000  C
  C438     1.0000 0.55256  0.12229  0.67250  Biso   1.000  C
  C439     1.0000 0.69744  0.37229  0.92250  Biso   1.000  C
  C440     1.0000 0.80256  0.12771  0.92250  Biso   1.000  C
  C441     1.0000 0.94744  0.37771  0.67250  Biso   1.000  C
  C442     1.0000 0.05256  0.62229  0.67250  Biso   1.000  C
  C443     1.0000 0.19744  0.87229  0.92250  Biso   1.000  C
  C444     1.0000 0.30256  0.62771  0.92250  Biso   1.000  C
  C445     1.0000 0.94744  0.87771  0.17250  Biso   1.000  C
  C446     1.0000 0.05256  0.12229  0.17250  Biso   1.000  C
  C447     1.0000 0.19744  0.37229  0.42250  Biso   1.000  C
  C448     1.0000 0.30256  0.12771  0.42250  Biso   1.000  C
  H401     1.0000 0.43620  0.39170  0.21140  Biso   1.000  H
  H402     1.0000 0.56380  0.60830  0.21140  Biso   1.000  H
  H403     1.0000 0.68620  0.85830  0.46140  Biso   1.000  H
  H404     1.0000 0.81380  0.64170  0.46140  Biso   1.000  H
  H405     1.0000 0.43620  0.89170  0.71140  Biso   1.000  H
  H406     1.0000 0.56380  0.10830  0.71140  Biso   1.000  H
  H407     1.0000 0.68620  0.35830  0.96140  Biso   1.000  H
  H408     1.0000 0.81380  0.14170  0.96140  Biso   1.000  H
  H409     1.0000 0.93620  0.39170  0.71140  Biso   1.000  H
  H410     1.0000 0.06380  0.60830  0.71140  Biso   1.000  H
  H411     1.0000 0.18620  0.85830  0.96140  Biso   1.000  H
  H412     1.0000 0.31380  0.64170  0.96140  Biso   1.000  H
  H413     1.0000 0.93620  0.89170  0.21140  Biso   1.000  H
  H414     1.0000 0.06380  0.10830  0.21140  Biso   1.000  H
  H415     1.0000 0.18620  0.35830  0.46140  Biso   1.000  H
  H416     1.0000 0.31380  0.14170  0.46140  Biso   1.000  H
  C449     1.0000 0.68728  0.41612  0.17450  Biso   1.000  C
  C450     1.0000 0.31272  0.58388  0.17450  Biso   1.000  C
  C451     1.0000 0.93728  0.83388  0.42450  Biso   1.000  C
  C452     1.0000 0.56272  0.66612  0.42450  Biso   1.000  C
  C453     1.0000 0.68728  0.91612  0.67450  Biso   1.000  C
  C454     1.0000 0.31272  0.08388  0.67450  Biso   1.000  C
  C455     1.0000 0.93728  0.33388  0.92450  Biso   1.000  C
  C456     1.0000 0.56272  0.16612  0.92450  Biso   1.000  C
  C457     1.0000 0.18728  0.41612  0.67450  Biso   1.000  C
  C458     1.0000 0.81272  0.58388  0.67450  Biso   1.000  C
  C459     1.0000 0.43728  0.83388  0.92450  Biso   1.000  C
  C460     1.0000 0.06272  0.66612  0.92450  Biso   1.000  C
  C461     1.0000 0.18728  0.91612  0.17450  Biso   1.000  C
  C462     1.0000 0.81272  0.08388  0.17450  Biso   1.000  C
  C463     1.0000 0.43728  0.33388  0.42450  Biso   1.000  C
  C464     1.0000 0.06272  0.16612  0.42450  Biso   1.000  C
  H417     1.0000 0.70030  0.41050  0.09800  Biso   1.000  H
  H418     1.0000 0.29970  0.58950  0.09800  Biso   1.000  H
  H419     1.0000 0.95030  0.83950  0.34800  Biso   1.000  H
  H420     1.0000 0.54970  0.66050  0.34800  Biso   1.000  H
  H421     1.0000 0.70030  0.91050  0.59800  Biso   1.000  H
  H422     1.0000 0.29970  0.08950  0.59800  Biso   1.000  H
  H423     1.0000 0.95030  0.33950  0.84800  Biso   1.000  H
  H424     1.0000 0.54970  0.16050  0.84800  Biso   1.000  H
  H425     1.0000 0.20030  0.41050  0.59800  Biso   1.000  H
  H426     1.0000 0.79970  0.58950  0.59800  Biso   1.000  H
  H427     1.0000 0.45030  0.83950  0.84800  Biso   1.000  H
  H428     1.0000 0.04970  0.66050  0.84800  Biso   1.000  H
  H429     1.0000 0.20030  0.91050  0.09800  Biso   1.000  H
  H430     1.0000 0.79970  0.08950  0.09800  Biso   1.000  H
  H431     1.0000 0.45030  0.33950  0.34800  Biso   1.000  H
  H432     1.0000 0.04970  0.16050  0.34800  Biso   1.000  H
  C465     1.0000 0.63665  0.41420  0.19410  Biso   1.000  C
  C466     1.0000 0.36335  0.58580  0.19410  Biso   1.000  C
  C467     1.0000 0.88665  0.83580  0.44410  Biso   1.000  C
  C468     1.0000 0.61335  0.66420  0.44410  Biso   1.000  C
  C469     1.0000 0.63665  0.91420  0.69410  Biso   1.000  C
  C470     1.0000 0.36335  0.08580  0.69410  Biso   1.000  C
  C471     1.0000 0.88665  0.33580  0.94410  Biso   1.000  C
  C472     1.0000 0.61335  0.16420  0.94410  Biso   1.000  C
  C473     1.0000 0.13665  0.41420  0.69410  Biso   1.000  C
  C474     1.0000 0.86335  0.58580  0.69410  Biso   1.000  C
  C475     1.0000 0.38665  0.83580  0.94410  Biso   1.000  C
  C476     1.0000 0.11335  0.66420  0.94410  Biso   1.000  C
  C477     1.0000 0.13665  0.91420  0.19410  Biso   1.000  C
  C478     1.0000 0.86335  0.08580  0.19410  Biso   1.000  C
  C479     1.0000 0.38665  0.33580  0.44410  Biso   1.000  C
  C480     1.0000 0.11335  0.16420  0.44410  Biso   1.000  C
  H433     1.0000 0.61590  0.40720  0.13330  Biso   1.000  H
  H434     1.0000 0.38410  0.59280  0.13330  Biso   1.000  H
  H435     1.0000 0.86590  0.84280  0.38330  Biso   1.000  H
  H436     1.0000 0.63410  0.65720  0.38330  Biso   1.000  H
  H437     1.0000 0.61590  0.90720  0.63330  Biso   1.000  H
  H438     1.0000 0.38410  0.09280  0.63330  Biso   1.000  H
  H439     1.0000 0.86590  0.34280  0.88330  Biso   1.000  H
  H440     1.0000 0.63410  0.15720  0.88330  Biso   1.000  H
  H441     1.0000 0.11590  0.40720  0.63330  Biso   1.000  H
  H442     1.0000 0.88410  0.59280  0.63330  Biso   1.000  H
  H443     1.0000 0.36590  0.84280  0.88330  Biso   1.000  H
  H444     1.0000 0.13410  0.65720  0.88330  Biso   1.000  H
  H445     1.0000 0.11590  0.90720  0.13330  Biso   1.000  H
  H446     1.0000 0.88410  0.09280  0.13330  Biso   1.000  H
  H447     1.0000 0.36590  0.34280  0.38330  Biso   1.000  H
  H448     1.0000 0.13410  0.15720  0.38330  Biso   1.000  H
  C481     1.0000 0.61703  0.42272  0.30440  Biso   1.000  C
  C482     1.0000 0.38297  0.57728  0.30440  Biso   1.000  C
  C483     1.0000 0.86703  0.82728  0.55440  Biso   1.000  C
  C484     1.0000 0.63297  0.67272  0.55440  Biso   1.000  C
  C485     1.0000 0.61703  0.92272  0.80440  Biso   1.000  C
  C486     1.0000 0.38297  0.07728  0.80440  Biso   1.000  C
  C487     1.0000 0.86703  0.32728  0.05440  Biso   1.000  C
  C488     1.0000 0.63297  0.17272  0.05440  Biso   1.000  C
  C489     1.0000 0.11703  0.42272  0.80440  Biso   1.000  C
  C490     1.0000 0.88297  0.57728  0.80440  Biso   1.000  C
  C491     1.0000 0.36703  0.82728  0.05440  Biso   1.000  C
  C492     1.0000 0.13297  0.67272  0.05440  Biso   1.000  C
  C493     1.0000 0.11703  0.92272  0.30440  Biso   1.000  C
  C494     1.0000 0.88297  0.07728  0.30440  Biso   1.000  C
  C495     1.0000 0.36703  0.32728  0.55440  Biso   1.000  C
  C496     1.0000 0.13297  0.17272  0.55440  Biso   1.000  C
  C497     1.0000 0.64958  0.43212  0.39200  Biso   1.000  C
  C498     1.0000 0.35042  0.56788  0.39200  Biso   1.000  C
  C499     1.0000 0.89958  0.81788  0.64200  Biso   1.000  C
  C500     1.0000 0.60042  0.68212  0.64200  Biso   1.000  C
  C501     1.0000 0.64958  0.93212  0.89200  Biso   1.000  C
  C502     1.0000 0.35042  0.06788  0.89200  Biso   1.000  C
  C503     1.0000 0.89958  0.31788  0.14200  Biso   1.000  C
  C504     1.0000 0.60042  0.18212  0.14200  Biso   1.000  C
  C505     1.0000 0.14958  0.43212  0.89200  Biso   1.000  C
  C506     1.0000 0.85042  0.56788  0.89200  Biso   1.000  C
  C507     1.0000 0.39958  0.81788  0.14200  Biso   1.000  C
  C508     1.0000 0.10042  0.68212  0.14200  Biso   1.000  C
  C509     1.0000 0.14958  0.93212  0.39200  Biso   1.000  C
  C510     1.0000 0.85042  0.06788  0.39200  Biso   1.000  C
  C511     1.0000 0.39958  0.31788  0.64200  Biso   1.000  C
  C512     1.0000 0.10042  0.18212  0.64200  Biso   1.000  C
  H449     1.0000 0.63760  0.43770  0.46960  Biso   1.000  H
  H450     1.0000 0.36240  0.56230  0.46960  Biso   1.000  H
  H451     1.0000 0.88760  0.81230  0.71960  Biso   1.000  H
  H452     1.0000 0.61240  0.68770  0.71960  Biso   1.000  H
  H453     1.0000 0.63760  0.93770  0.96960  Biso   1.000  H
  H454     1.0000 0.36240  0.06230  0.96960  Biso   1.000  H
  H455     1.0000 0.88760  0.31230  0.21960  Biso   1.000  H
  H456     1.0000 0.61240  0.18770  0.21960  Biso   1.000  H
  H457     1.0000 0.13760  0.43770  0.96960  Biso   1.000  H
  H458     1.0000 0.86240  0.56230  0.96960  Biso   1.000  H
  H459     1.0000 0.38760  0.81230  0.21960  Biso   1.000  H
  H460     1.0000 0.11240  0.68770  0.21960  Biso   1.000  H
  H461     1.0000 0.13760  0.93770  0.46960  Biso   1.000  H
  H462     1.0000 0.86240  0.06230  0.46960  Biso   1.000  H
  H463     1.0000 0.38760  0.31230  0.71960  Biso   1.000  H
  H464     1.0000 0.11240  0.18770  0.71960  Biso   1.000  H
  C513     1.0000 0.69983  0.43316  0.36430  Biso   1.000  C
  C514     1.0000 0.30017  0.56684  0.36430  Biso   1.000  C
  C515     1.0000 0.94983  0.81684  0.61430  Biso   1.000  C
  C516     1.0000 0.55017  0.68316  0.61430  Biso   1.000  C
  C517     1.0000 0.69983  0.93316  0.86430  Biso   1.000  C
  C518     1.0000 0.30017  0.06684  0.86430  Biso   1.000  C
  C519     1.0000 0.94983  0.31684  0.11430  Biso   1.000  C
  C520     1.0000 0.55017  0.18316  0.11430  Biso   1.000  C
  C521     1.0000 0.19983  0.43316  0.86430  Biso   1.000  C
  C522     1.0000 0.80017  0.56684  0.86430  Biso   1.000  C
  C523     1.0000 0.44983  0.81684  0.11430  Biso   1.000  C
  C524     1.0000 0.05017  0.68316  0.11430  Biso   1.000  C
  C525     1.0000 0.19983  0.93316  0.36430  Biso   1.000  C
  C526     1.0000 0.80017  0.06684  0.36430  Biso   1.000  C
  C527     1.0000 0.44983  0.31684  0.61430  Biso   1.000  C
  C528     1.0000 0.05017  0.18316  0.61430  Biso   1.000  C
  H465     1.0000 0.72170  0.43960  0.42450  Biso   1.000  H
  H466     1.0000 0.27830  0.56040  0.42450  Biso   1.000  H
  H467     1.0000 0.97170  0.81040  0.67450  Biso   1.000  H
  H468     1.0000 0.52830  0.68960  0.67450  Biso   1.000  H
  H469     1.0000 0.72170  0.93960  0.92450  Biso   1.000  H
  H470     1.0000 0.27830  0.06040  0.92450  Biso   1.000  H
  H471     1.0000 0.97170  0.31040  0.17450  Biso   1.000  H
  H472     1.0000 0.52830  0.18960  0.17450  Biso   1.000  H
  H473     1.0000 0.22170  0.43960  0.92450  Biso   1.000  H
  H474     1.0000 0.77830  0.56040  0.92450  Biso   1.000  H
  H475     1.0000 0.47170  0.81040  0.17450  Biso   1.000  H
  H476     1.0000 0.02830  0.68960  0.17450  Biso   1.000  H
  H477     1.0000 0.22170  0.93960  0.42450  Biso   1.000  H
  H478     1.0000 0.77830  0.06040  0.42450  Biso   1.000  H
  H479     1.0000 0.47170  0.31040  0.67450  Biso   1.000  H
  H480     1.0000 0.02830  0.18960  0.67450  Biso   1.000  H
  C529     1.0000 0.56222  0.42227  0.33300  Biso   1.000  C
  C530     1.0000 0.43778  0.57773  0.33300  Biso   1.000  C
  C531     1.0000 0.81222  0.82773  0.58300  Biso   1.000  C
  C532     1.0000 0.68778  0.67227  0.58300  Biso   1.000  C
  C533     1.0000 0.56222  0.92227  0.83300  Biso   1.000  C
  C534     1.0000 0.43778  0.07773  0.83300  Biso   1.000  C
  C535     1.0000 0.81222  0.32773  0.08300  Biso   1.000  C
  C536     1.0000 0.68778  0.17227  0.08300  Biso   1.000  C
  C537     1.0000 0.06222  0.42227  0.83300  Biso   1.000  C
  C538     1.0000 0.93778  0.57773  0.83300  Biso   1.000  C
  C539     1.0000 0.31222  0.82773  0.08300  Biso   1.000  C
  C540     1.0000 0.18778  0.67227  0.08300  Biso   1.000  C
  C541     1.0000 0.06222  0.92227  0.33300  Biso   1.000  C
  C542     1.0000 0.93778  0.07773  0.33300  Biso   1.000  C
  C543     1.0000 0.31222  0.32773  0.58300  Biso   1.000  C
  C544     1.0000 0.18778  0.17227  0.58300  Biso   1.000  C
  H481     1.0000 0.55730  0.41550  0.41680  Biso   1.000  H
  H482     1.0000 0.44270  0.58450  0.41680  Biso   1.000  H
  H483     1.0000 0.80730  0.83450  0.66680  Biso   1.000  H
  H484     1.0000 0.69270  0.66550  0.66680  Biso   1.000  H
  H485     1.0000 0.55730  0.91550  0.91680  Biso   1.000  H
  H486     1.0000 0.44270  0.08450  0.91680  Biso   1.000  H
  H487     1.0000 0.80730  0.33450  0.16680  Biso   1.000  H
  H488     1.0000 0.69270  0.16550  0.16680  Biso   1.000  H
  H489     1.0000 0.05730  0.41550  0.91680  Biso   1.000  H
  H490     1.0000 0.94270  0.58450  0.91680  Biso   1.000  H
  H491     1.0000 0.30730  0.83450  0.16680  Biso   1.000  H
  H492     1.0000 0.19270  0.66550  0.16680  Biso   1.000  H
  H493     1.0000 0.05730  0.91550  0.41680  Biso   1.000  H
  H494     1.0000 0.94270  0.08450  0.41680  Biso   1.000  H
  H495     1.0000 0.30730  0.33450  0.66680  Biso   1.000  H
  H496     1.0000 0.19270  0.16550  0.66680  Biso   1.000  H
  H497     1.0000 0.54960  0.43860  0.33460  Biso   1.000  H
  H498     1.0000 0.45040  0.56140  0.33460  Biso   1.000  H
  H499     1.0000 0.79960  0.81140  0.58460  Biso   1.000  H
  H500     1.0000 0.70040  0.68860  0.58460  Biso   1.000  H
  H501     1.0000 0.54960  0.93860  0.83460  Biso   1.000  H
  H502     1.0000 0.45040  0.06140  0.83460  Biso   1.000  H
  H503     1.0000 0.79960  0.31140  0.08460  Biso   1.000  H
  H504     1.0000 0.70040  0.18860  0.08460  Biso   1.000  H
  H505     1.0000 0.04960  0.43860  0.83460  Biso   1.000  H
  H506     1.0000 0.95040  0.56140  0.83460  Biso   1.000  H
  H507     1.0000 0.29960  0.81140  0.08460  Biso   1.000  H
  H508     1.0000 0.20040  0.68860  0.08460  Biso   1.000  H
  H509     1.0000 0.04960  0.93860  0.33460  Biso   1.000  H
  H510     1.0000 0.95040  0.06140  0.33460  Biso   1.000  H
  H511     1.0000 0.29960  0.31140  0.58460  Biso   1.000  H
  H512     1.0000 0.20040  0.18860  0.58460  Biso   1.000  H
  C545     1.0000 0.53261  0.38518  0.25810  Biso   1.000  C
  C546     1.0000 0.46739  0.61482  0.25810  Biso   1.000  C
  C547     1.0000 0.78261  0.86482  0.50810  Biso   1.000  C
  C548     1.0000 0.71739  0.63518  0.50810  Biso   1.000  C
  C549     1.0000 0.53261  0.88518  0.75810  Biso   1.000  C
  C550     1.0000 0.46739  0.11482  0.75810  Biso   1.000  C
  C551     1.0000 0.78261  0.36482  0.00810  Biso   1.000  C
  C552     1.0000 0.71739  0.13518  0.00810  Biso   1.000  C
  C553     1.0000 0.03261  0.38518  0.75810  Biso   1.000  C
  C554     1.0000 0.96739  0.61482  0.75810  Biso   1.000  C
  C555     1.0000 0.28261  0.86482  0.00810  Biso   1.000  C
  C556     1.0000 0.21739  0.63518  0.00810  Biso   1.000  C
  C557     1.0000 0.03261  0.88518  0.25810  Biso   1.000  C
  C558     1.0000 0.96739  0.11482  0.25810  Biso   1.000  C
  C559     1.0000 0.28261  0.36482  0.50810  Biso   1.000  C
  C560     1.0000 0.21739  0.13518  0.50810  Biso   1.000  C
  C561     1.0000 0.51506  0.42110  0.13390  Biso   1.000  C
  C562     1.0000 0.48494  0.57890  0.13390  Biso   1.000  C
  C563     1.0000 0.76506  0.82890  0.38390  Biso   1.000  C
  C564     1.0000 0.73494  0.67110  0.38390  Biso   1.000  C
  C565     1.0000 0.51506  0.92110  0.63390  Biso   1.000  C
  C566     1.0000 0.48494  0.07890  0.63390  Biso   1.000  C
  C567     1.0000 0.76506  0.32890  0.88390  Biso   1.000  C
  C568     1.0000 0.73494  0.17110  0.88390  Biso   1.000  C
  C569     1.0000 0.01506  0.42110  0.63390  Biso   1.000  C
  C570     1.0000 0.98494  0.57890  0.63390  Biso   1.000  C
  C571     1.0000 0.26506  0.82890  0.88390  Biso   1.000  C
  C572     1.0000 0.23494  0.67110  0.88390  Biso   1.000  C
  C573     1.0000 0.01506  0.92110  0.13390  Biso   1.000  C
  C574     1.0000 0.98494  0.07890  0.13390  Biso   1.000  C
  C575     1.0000 0.26506  0.32890  0.38390  Biso   1.000  C
  C576     1.0000 0.23494  0.17110  0.38390  Biso   1.000  C
  H513     1.0000 0.50950  0.40980  0.06650  Biso   1.000  H
  H514     1.0000 0.49050  0.59020  0.06650  Biso   1.000  H
  H515     1.0000 0.75950  0.84020  0.31650  Biso   1.000  H
  H516     1.0000 0.74050  0.65980  0.31650  Biso   1.000  H
  H517     1.0000 0.50950  0.90980  0.56650  Biso   1.000  H
  H518     1.0000 0.49050  0.09020  0.56650  Biso   1.000  H
  H519     1.0000 0.75950  0.34020  0.81650  Biso   1.000  H
  H520     1.0000 0.74050  0.15980  0.81650  Biso   1.000  H
  H521     1.0000 0.00950  0.40980  0.56650  Biso   1.000  H
  H522     1.0000 0.99050  0.59020  0.56650  Biso   1.000  H
  H523     1.0000 0.25950  0.84020  0.81650  Biso   1.000  H
  H524     1.0000 0.24050  0.65980  0.81650  Biso   1.000  H
  H525     1.0000 0.00950  0.90980  0.06650  Biso   1.000  H
  H526     1.0000 0.99050  0.09020  0.06650  Biso   1.000  H
  H527     1.0000 0.25950  0.34020  0.31650  Biso   1.000  H
  H528     1.0000 0.24050  0.15980  0.31650  Biso   1.000  H
  H529     1.0000 0.53950  0.43280  0.10760  Biso   1.000  H
  H530     1.0000 0.46050  0.56720  0.10760  Biso   1.000  H
  H531     1.0000 0.78950  0.81720  0.35760  Biso   1.000  H
  H532     1.0000 0.71050  0.68280  0.35760  Biso   1.000  H
  H533     1.0000 0.53950  0.93280  0.60760  Biso   1.000  H
  H534     1.0000 0.46050  0.06720  0.60760  Biso   1.000  H
  H535     1.0000 0.78950  0.31720  0.85760  Biso   1.000  H
  H536     1.0000 0.71050  0.18280  0.85760  Biso   1.000  H
  H537     1.0000 0.03950  0.43280  0.60760  Biso   1.000  H
  H538     1.0000 0.96050  0.56720  0.60760  Biso   1.000  H
  H539     1.0000 0.28950  0.81720  0.85760  Biso   1.000  H
  H540     1.0000 0.21050  0.68280  0.85760  Biso   1.000  H
  H541     1.0000 0.03950  0.93280  0.10760  Biso   1.000  H
  H542     1.0000 0.96050  0.06720  0.10760  Biso   1.000  H
  H543     1.0000 0.28950  0.31720  0.35760  Biso   1.000  H
  H544     1.0000 0.21050  0.18280  0.35760  Biso   1.000  H
  H545     1.0000 0.48380  0.42900  0.15410  Biso   1.000  H
  H546     1.0000 0.51620  0.57100  0.15410  Biso   1.000  H
  H547     1.0000 0.73380  0.82100  0.40410  Biso   1.000  H
  H548     1.0000 0.76620  0.67900  0.40410  Biso   1.000  H
  H549     1.0000 0.48380  0.92900  0.65410  Biso   1.000  H
  H550     1.0000 0.51620  0.07100  0.65410  Biso   1.000  H
  H551     1.0000 0.73380  0.32100  0.90410  Biso   1.000  H
  H552     1.0000 0.76620  0.17900  0.90410  Biso   1.000  H
  H553     1.0000 0.98380  0.42900  0.65410  Biso   1.000  H
  H554     1.0000 0.01620  0.57100  0.65410  Biso   1.000  H
  H555     1.0000 0.23380  0.82100  0.90410  Biso   1.000  H
  H556     1.0000 0.26620  0.67900  0.90410  Biso   1.000  H
  H557     1.0000 0.98380  0.92900  0.15410  Biso   1.000  H
  H558     1.0000 0.01620  0.07100  0.15410  Biso   1.000  H
  H559     1.0000 0.23380  0.32100  0.40410  Biso   1.000  H
  H560     1.0000 0.26620  0.17900  0.40410  Biso   1.000  H
  C577     1.0000 0.49724  0.37113  0.18130  Biso   1.000  C
  C578     1.0000 0.50276  0.62887  0.18130  Biso   1.000  C
  C579     1.0000 0.74724  0.87887  0.43130  Biso   1.000  C
  C580     1.0000 0.75276  0.62113  0.43130  Biso   1.000  C
  C581     1.0000 0.49724  0.87113  0.68130  Biso   1.000  C
  C582     1.0000 0.50276  0.12887  0.68130  Biso   1.000  C
  C583     1.0000 0.74724  0.37887  0.93130  Biso   1.000  C
  C584     1.0000 0.75276  0.12113  0.93130  Biso   1.000  C
  C585     1.0000 0.99724  0.37113  0.68130  Biso   1.000  C
  C586     1.0000 0.00276  0.62887  0.68130  Biso   1.000  C
  C587     1.0000 0.24724  0.87887  0.93130  Biso   1.000  C
  C588     1.0000 0.25276  0.62113  0.93130  Biso   1.000  C
  C589     1.0000 0.99724  0.87113  0.18130  Biso   1.000  C
  C590     1.0000 0.00276  0.12887  0.18130  Biso   1.000  C
  C591     1.0000 0.24724  0.37887  0.43130  Biso   1.000  C
  C592     1.0000 0.25276  0.12113  0.43130  Biso   1.000  C
  C593     1.0000 0.51340  0.35023  0.12710  Biso   1.000  C
  C594     1.0000 0.48660  0.64977  0.12710  Biso   1.000  C
  C595     1.0000 0.76340  0.89977  0.37710  Biso   1.000  C
  C596     1.0000 0.73660  0.60023  0.37710  Biso   1.000  C
  C597     1.0000 0.51340  0.85023  0.62710  Biso   1.000  C
  C598     1.0000 0.48660  0.14977  0.62710  Biso   1.000  C
  C599     1.0000 0.76340  0.39977  0.87710  Biso   1.000  C
  C600     1.0000 0.73660  0.10023  0.87710  Biso   1.000  C
  C601     1.0000 0.01340  0.35023  0.62710  Biso   1.000  C
  C602     1.0000 0.98660  0.64977  0.62710  Biso   1.000  C
  C603     1.0000 0.26340  0.89977  0.87710  Biso   1.000  C
  C604     1.0000 0.23660  0.60023  0.87710  Biso   1.000  C
  C605     1.0000 0.01340  0.85023  0.12710  Biso   1.000  C
  C606     1.0000 0.98660  0.14977  0.12710  Biso   1.000  C
  C607     1.0000 0.26340  0.39977  0.37710  Biso   1.000  C
  C608     1.0000 0.23660  0.10023  0.37710  Biso   1.000  C
  H561     1.0000 0.54690  0.34540  0.13580  Biso   1.000  H
  H562     1.0000 0.45310  0.65460  0.13580  Biso   1.000  H
  H563     1.0000 0.79690  0.90460  0.38580  Biso   1.000  H
  H564     1.0000 0.70310  0.59540  0.38580  Biso   1.000  H
  H565     1.0000 0.54690  0.84540  0.63580  Biso   1.000  H
  H566     1.0000 0.45310  0.15460  0.63580  Biso   1.000  H
  H567     1.0000 0.79690  0.40460  0.88580  Biso   1.000  H
  H568     1.0000 0.70310  0.09540  0.88580  Biso   1.000  H
  H569     1.0000 0.04690  0.34540  0.63580  Biso   1.000  H
  H570     1.0000 0.95310  0.65460  0.63580  Biso   1.000  H
  H571     1.0000 0.29690  0.90460  0.88580  Biso   1.000  H
  H572     1.0000 0.20310  0.59540  0.88580  Biso   1.000  H
  H573     1.0000 0.04690  0.84540  0.13580  Biso   1.000  H
  H574     1.0000 0.95310  0.15460  0.13580  Biso   1.000  H
  H575     1.0000 0.29690  0.40460  0.38580  Biso   1.000  H
  H576     1.0000 0.20310  0.09540  0.38580  Biso   1.000  H
  O129     1.0000 0.29831  0.27307  0.12330  Biso   1.000  O
  O130     1.0000 0.70169  0.72693  0.12330  Biso   1.000  O
  O131     1.0000 0.54831  0.97693  0.37330  Biso   1.000  O
  O132     1.0000 0.95169  0.52307  0.37330  Biso   1.000  O
  O133     1.0000 0.29831  0.77307  0.62330  Biso   1.000  O
  O134     1.0000 0.70169  0.22693  0.62330  Biso   1.000  O
  O135     1.0000 0.54831  0.47693  0.87330  Biso   1.000  O
  O136     1.0000 0.95169  0.02307  0.87330  Biso   1.000  O
  O137     1.0000 0.79831  0.27307  0.62330  Biso   1.000  O
  O138     1.0000 0.20169  0.72693  0.62330  Biso   1.000  O
  O139     1.0000 0.04831  0.97693  0.87330  Biso   1.000  O
  O140     1.0000 0.45169  0.52307  0.87330  Biso   1.000  O
  O141     1.0000 0.79831  0.77307  0.12330  Biso   1.000  O
  O142     1.0000 0.20169  0.22693  0.12330  Biso   1.000  O
  O143     1.0000 0.04831  0.47693  0.37330  Biso   1.000  O
  O144     1.0000 0.45169  0.02307  0.37330  Biso   1.000  O
  H577     1.0000 0.26670  0.27510  0.13420  Biso   1.000  H
  H578     1.0000 0.73330  0.72490  0.13420  Biso   1.000  H
  H579     1.0000 0.51670  0.97490  0.38420  Biso   1.000  H
  H580     1.0000 0.98330  0.52510  0.38420  Biso   1.000  H
  H581     1.0000 0.26670  0.77510  0.63420  Biso   1.000  H
  H582     1.0000 0.73330  0.22490  0.63420  Biso   1.000  H
  H583     1.0000 0.51670  0.47490  0.88420  Biso   1.000  H
  H584     1.0000 0.98330  0.02510  0.88420  Biso   1.000  H
  H585     1.0000 0.76670  0.27510  0.63420  Biso   1.000  H
  H586     1.0000 0.23330  0.72490  0.63420  Biso   1.000  H
  H587     1.0000 0.01670  0.97490  0.88420  Biso   1.000  H
  H588     1.0000 0.48330  0.52510  0.88420  Biso   1.000  H
  H589     1.0000 0.76670  0.77510  0.13420  Biso   1.000  H
  H590     1.0000 0.23330  0.22490  0.13420  Biso   1.000  H
  H591     1.0000 0.01670  0.47490  0.38420  Biso   1.000  H
  H592     1.0000 0.48330  0.02510  0.38420  Biso   1.000  H
  H593     1.0000 0.29750  0.25990  0.08230  Biso   1.000  H
  H594     1.0000 0.70250  0.74010  0.08230  Biso   1.000  H
  H595     1.0000 0.54750  0.99010  0.33230  Biso   1.000  H
  H596     1.0000 0.95250  0.50990  0.33230  Biso   1.000  H
  H597     1.0000 0.29750  0.75990  0.58230  Biso   1.000  H
  H598     1.0000 0.70250  0.24010  0.58230  Biso   1.000  H
  H599     1.0000 0.54750  0.49010  0.83230  Biso   1.000  H
  H600     1.0000 0.95250  0.00990  0.83230  Biso   1.000  H
  H601     1.0000 0.79750  0.25990  0.58230  Biso   1.000  H
  H602     1.0000 0.20250  0.74010  0.58230  Biso   1.000  H
  H603     1.0000 0.04750  0.99010  0.83230  Biso   1.000  H
  H604     1.0000 0.45250  0.50990  0.83230  Biso   1.000  H
  H605     1.0000 0.79750  0.75990  0.08230  Biso   1.000  H
  H606     1.0000 0.20250  0.24010  0.08230  Biso   1.000  H
  H607     1.0000 0.04750  0.49010  0.33230  Biso   1.000  H
  H608     1.0000 0.45250  0.00990  0.33230  Biso   1.000  H
  O145     1.0000 0.20414  0.22621  0.73700  Biso   1.000  O
  O146     1.0000 0.79586  0.77379  0.73700  Biso   1.000  O
  O147     1.0000 0.45414  0.02379  0.98700  Biso   1.000  O
  O148     1.0000 0.04586  0.47621  0.98700  Biso   1.000  O
  O149     1.0000 0.20414  0.72621  0.23700  Biso   1.000  O
  O150     1.0000 0.79586  0.27379  0.23700  Biso   1.000  O
  O151     1.0000 0.45414  0.52379  0.48700  Biso   1.000  O
  O152     1.0000 0.04586  0.97621  0.48700  Biso   1.000  O
  O153     1.0000 0.70414  0.22621  0.23700  Biso   1.000  O
  O154     1.0000 0.29586  0.77379  0.23700  Biso   1.000  O
  O155     1.0000 0.95414  0.02379  0.48700  Biso   1.000  O
  O156     1.0000 0.54586  0.47621  0.48700  Biso   1.000  O
  O157     1.0000 0.70414  0.72621  0.73700  Biso   1.000  O
  O158     1.0000 0.29586  0.27379  0.73700  Biso   1.000  O
  O159     1.0000 0.95414  0.52379  0.98700  Biso   1.000  O
  O160     1.0000 0.54586  0.97621  0.98700  Biso   1.000  O
  H609     1.0000 0.23390  0.22220  0.75200  Biso   1.000  H
  H610     1.0000 0.76610  0.77780  0.75200  Biso   1.000  H
  H611     1.0000 0.48390  0.02780  0.00200  Biso   1.000  H
  H612     1.0000 0.01610  0.47220  0.00200  Biso   1.000  H
  H613     1.0000 0.23390  0.72220  0.25200  Biso   1.000  H
  H614     1.0000 0.76610  0.27780  0.25200  Biso   1.000  H
  H615     1.0000 0.48390  0.52780  0.50200  Biso   1.000  H
  H616     1.0000 0.01610  0.97220  0.50200  Biso   1.000  H
  H617     1.0000 0.73390  0.22220  0.25200  Biso   1.000  H
  H618     1.0000 0.26610  0.77780  0.25200  Biso   1.000  H
  H619     1.0000 0.98390  0.02780  0.50200  Biso   1.000  H
  H620     1.0000 0.51610  0.47220  0.50200  Biso   1.000  H
  H621     1.0000 0.73390  0.72220  0.75200  Biso   1.000  H
  H622     1.0000 0.26610  0.27780  0.75200  Biso   1.000  H
  H623     1.0000 0.98390  0.52780  0.00200  Biso   1.000  H
  H624     1.0000 0.51610  0.97220  0.00200  Biso   1.000  H
  H625     1.0000 0.20260  0.24070  0.75700  Biso   1.000  H
  H626     1.0000 0.79740  0.75930  0.75700  Biso   1.000  H
  H627     1.0000 0.45260  0.00930  0.00700  Biso   1.000  H
  H628     1.0000 0.04740  0.49070  0.00700  Biso   1.000  H
  H629     1.0000 0.20260  0.74070  0.25700  Biso   1.000  H
  H630     1.0000 0.79740  0.25930  0.25700  Biso   1.000  H
  H631     1.0000 0.45260  0.50930  0.50700  Biso   1.000  H
  H632     1.0000 0.04740  0.99070  0.50700  Biso   1.000  H
  H633     1.0000 0.70260  0.24070  0.25700  Biso   1.000  H
  H634     1.0000 0.29740  0.75930  0.25700  Biso   1.000  H
  H635     1.0000 0.95260  0.00930  0.50700  Biso   1.000  H
  H636     1.0000 0.54740  0.49070  0.50700  Biso   1.000  H
  H637     1.0000 0.70260  0.74070  0.75700  Biso   1.000  H
  H638     1.0000 0.29740  0.25930  0.75700  Biso   1.000  H
  H639     1.0000 0.95260  0.50930  0.00700  Biso   1.000  H
  H640     1.0000 0.54740  0.99070  0.00700  Biso   1.000  H
  O161     1.0000 0.14946  0.20195  0.92840  Biso   1.000  O
  O162     1.0000 0.85054  0.79805  0.92840  Biso   1.000  O
  O163     1.0000 0.39946  0.04805  0.17840  Biso   1.000  O
  O164     1.0000 0.10054  0.45195  0.17840  Biso   1.000  O
  O165     1.0000 0.14946  0.70195  0.42840  Biso   1.000  O
  O166     1.0000 0.85054  0.29805  0.42840  Biso   1.000  O
  O167     1.0000 0.39946  0.54805  0.67840  Biso   1.000  O
  O168     1.0000 0.10054  0.95195  0.67840  Biso   1.000  O
  O169     1.0000 0.64946  0.20195  0.42840  Biso   1.000  O
  O170     1.0000 0.35054  0.79805  0.42840  Biso   1.000  O
  O171     1.0000 0.89946  0.04805  0.67840  Biso   1.000  O
  O172     1.0000 0.60054  0.45195  0.67840  Biso   1.000  O
  O173     1.0000 0.64946  0.70195  0.92840  Biso   1.000  O
  O174     1.0000 0.35054  0.29805  0.92840  Biso   1.000  O
  O175     1.0000 0.89946  0.54805  0.17840  Biso   1.000  O
  O176     1.0000 0.60054  0.95195  0.17840  Biso   1.000  O
  H641     1.0000 0.16840  0.20790  0.87300  Biso   1.000  H
  H642     1.0000 0.83160  0.79210  0.87300  Biso   1.000  H
  H643     1.0000 0.41840  0.04210  0.12300  Biso   1.000  H
  H644     1.0000 0.08160  0.45790  0.12300  Biso   1.000  H
  H645     1.0000 0.16840  0.70790  0.37300  Biso   1.000  H
  H646     1.0000 0.83160  0.29210  0.37300  Biso   1.000  H
  H647     1.0000 0.41840  0.54210  0.62300  Biso   1.000  H
  H648     1.0000 0.08160  0.95790  0.62300  Biso   1.000  H
  H649     1.0000 0.66840  0.20790  0.37300  Biso   1.000  H
  H650     1.0000 0.33160  0.79210  0.37300  Biso   1.000  H
  H651     1.0000 0.91840  0.04210  0.62300  Biso   1.000  H
  H652     1.0000 0.58160  0.45790  0.62300  Biso   1.000  H
  H653     1.0000 0.66840  0.70790  0.87300  Biso   1.000  H
  H654     1.0000 0.33160  0.29210  0.87300  Biso   1.000  H
  H655     1.0000 0.91840  0.54210  0.12300  Biso   1.000  H
  H656     1.0000 0.58160  0.95790  0.12300  Biso   1.000  H
  H657     1.0000 0.15850  0.21070  0.99100  Biso   1.000  H
  H658     1.0000 0.84150  0.78930  0.99100  Biso   1.000  H
  H659     1.0000 0.40850  0.03930  0.24100  Biso   1.000  H
  H660     1.0000 0.09150  0.46070  0.24100  Biso   1.000  H
  H661     1.0000 0.15850  0.71070  0.49100  Biso   1.000  H
  H662     1.0000 0.84150  0.28930  0.49100  Biso   1.000  H
  H663     1.0000 0.40850  0.53930  0.74100  Biso   1.000  H
  H664     1.0000 0.09150  0.96070  0.74100  Biso   1.000  H
  H665     1.0000 0.65850  0.21070  0.49100  Biso   1.000  H
  H666     1.0000 0.34150  0.78930  0.49100  Biso   1.000  H
  H667     1.0000 0.90850  0.03930  0.74100  Biso   1.000  H
  H668     1.0000 0.59150  0.46070  0.74100  Biso   1.000  H
  H669     1.0000 0.65850  0.71070  0.99100  Biso   1.000  H
  H670     1.0000 0.34150  0.28930  0.99100  Biso   1.000  H
  H671     1.0000 0.90850  0.53930  0.24100  Biso   1.000  H
  H672     1.0000 0.59150  0.96070  0.24100  Biso   1.000  H
