data_image0
_cell_length_a       21.479
_cell_length_b       21.479
_cell_length_c       29.303
_cell_angle_alpha    90
_cell_angle_beta     90
_cell_angle_gamma    90

_symmetry_space_group_name_H-M    "P 1"
_symmetry_int_tables_number       1

loop_
  _symmetry_equiv_pos_as_xyz
  'x, y, z'

loop_
  _atom_site_label
  _atom_site_occupancy
  _atom_site_fract_x
  _atom_site_fract_y
  _atom_site_fract_z
  _atom_site_thermal_displace_type
  _atom_site_B_iso_or_equiv
  _atom_site_type_symbol
  O1       1.0000 0.05390  0.47980  0.79860  Biso   1.000  O
  O2       1.0000 0.94610  0.52020  0.79860  Biso   1.000  O
  O3       1.0000 0.05390  0.02020  0.45140  Biso   1.000  O
  O4       1.0000 0.94610  0.97980  0.45140  Biso   1.000  O
  O5       1.0000 0.47980  0.55390  0.04860  Biso   1.000  O
  O6       1.0000 0.52020  0.44610  0.04860  Biso   1.000  O
  O7       1.0000 0.52020  0.05390  0.20140  Biso   1.000  O
  O8       1.0000 0.47980  0.94610  0.20140  Biso   1.000  O
  O9       1.0000 0.55390  0.97980  0.29860  Biso   1.000  O
  O10      1.0000 0.44610  0.02020  0.29860  Biso   1.000  O
  O11      1.0000 0.55390  0.52020  0.45140  Biso   1.000  O
  O12      1.0000 0.44610  0.47980  0.45140  Biso   1.000  O
  O13      1.0000 0.97980  0.05390  0.04860  Biso   1.000  O
  O14      1.0000 0.02020  0.94610  0.04860  Biso   1.000  O
  O15      1.0000 0.02020  0.55390  0.70140  Biso   1.000  O
  O16      1.0000 0.97980  0.44610  0.70140  Biso   1.000  O
  O17      1.0000 0.96890  0.26800  0.60960  Biso   1.000  O
  O18      1.0000 0.03110  0.73200  0.60960  Biso   1.000  O
  O19      1.0000 0.96890  0.23200  0.64040  Biso   1.000  O
  O20      1.0000 0.03110  0.76800  0.64040  Biso   1.000  O
  O21      1.0000 0.26800  0.46890  0.85960  Biso   1.000  O
  O22      1.0000 0.73200  0.53110  0.85960  Biso   1.000  O
  O23      1.0000 0.73200  0.96890  0.39040  Biso   1.000  O
  O24      1.0000 0.26800  0.03110  0.39040  Biso   1.000  O
  O25      1.0000 0.46890  0.76800  0.10960  Biso   1.000  O
  O26      1.0000 0.53110  0.23200  0.10960  Biso   1.000  O
  O27      1.0000 0.46890  0.73200  0.64040  Biso   1.000  O
  O28      1.0000 0.53110  0.26800  0.64040  Biso   1.000  O
  O29      1.0000 0.76800  0.96890  0.85960  Biso   1.000  O
  O30      1.0000 0.23200  0.03110  0.85960  Biso   1.000  O
  O31      1.0000 0.23200  0.46890  0.89040  Biso   1.000  O
  O32      1.0000 0.76800  0.53110  0.89040  Biso   1.000  O
  O33      1.0000 0.10200  0.56600  0.74920  Biso   1.000  O
  O34      1.0000 0.89800  0.43400  0.74920  Biso   1.000  O
  O35      1.0000 0.10200  0.93400  0.50080  Biso   1.000  O
  O36      1.0000 0.89800  0.06600  0.50080  Biso   1.000  O
  O37      1.0000 0.56600  0.60200  0.99920  Biso   1.000  O
  O38      1.0000 0.43400  0.39800  0.99920  Biso   1.000  O
  O39      1.0000 0.43400  0.10200  0.25080  Biso   1.000  O
  O40      1.0000 0.56600  0.89800  0.25080  Biso   1.000  O
  O41      1.0000 0.60200  0.06600  0.24920  Biso   1.000  O
  O42      1.0000 0.39800  0.93400  0.24920  Biso   1.000  O
  O43      1.0000 0.60200  0.43400  0.50080  Biso   1.000  O
  O44      1.0000 0.39800  0.56600  0.50080  Biso   1.000  O
  O45      1.0000 0.06600  0.10200  0.99920  Biso   1.000  O
  O46      1.0000 0.93400  0.89800  0.99920  Biso   1.000  O
  O47      1.0000 0.93400  0.60200  0.75080  Biso   1.000  O
  O48      1.0000 0.06600  0.39800  0.75080  Biso   1.000  O
  O49      1.0000 0.14900  0.57400  0.70800  Biso   1.000  O
  O50      1.0000 0.85100  0.42600  0.70800  Biso   1.000  O
  O51      1.0000 0.14900  0.92600  0.54200  Biso   1.000  O
  O52      1.0000 0.85100  0.07400  0.54200  Biso   1.000  O
  O53      1.0000 0.57400  0.64900  0.95800  Biso   1.000  O
  O54      1.0000 0.42600  0.35100  0.95800  Biso   1.000  O
  O55      1.0000 0.42600  0.14900  0.29200  Biso   1.000  O
  O56      1.0000 0.57400  0.85100  0.29200  Biso   1.000  O
  O57      1.0000 0.64900  0.07400  0.20800  Biso   1.000  O
  O58      1.0000 0.35100  0.92600  0.20800  Biso   1.000  O
  O59      1.0000 0.64900  0.42600  0.54200  Biso   1.000  O
  O60      1.0000 0.35100  0.57400  0.54200  Biso   1.000  O
  O61      1.0000 0.07400  0.14900  0.95800  Biso   1.000  O
  O62      1.0000 0.92600  0.85100  0.95800  Biso   1.000  O
  O63      1.0000 0.92600  0.64900  0.79200  Biso   1.000  O
  O64      1.0000 0.07400  0.35100  0.79200  Biso   1.000  O
  O65      1.0000 0.02500  0.50600  0.90100  Biso   1.000  O
  O66      1.0000 0.97500  0.49400  0.90100  Biso   1.000  O
  O67      1.0000 0.02500  0.99400  0.34900  Biso   1.000  O
  O68      1.0000 0.97500  0.00600  0.34900  Biso   1.000  O
  O69      1.0000 0.50600  0.52500  0.15100  Biso   1.000  O
  O70      1.0000 0.49400  0.47500  0.15100  Biso   1.000  O
  O71      1.0000 0.49400  0.02500  0.09900  Biso   1.000  O
  O72      1.0000 0.50600  0.97500  0.09900  Biso   1.000  O
  O73      1.0000 0.52500  0.00600  0.40100  Biso   1.000  O
  O74      1.0000 0.47500  0.99400  0.40100  Biso   1.000  O
  O75      1.0000 0.52500  0.49400  0.34900  Biso   1.000  O
  O76      1.0000 0.47500  0.50600  0.34900  Biso   1.000  O
  O77      1.0000 0.00600  0.02500  0.15100  Biso   1.000  O
  O78      1.0000 0.99400  0.97500  0.15100  Biso   1.000  O
  O79      1.0000 0.99400  0.52500  0.59900  Biso   1.000  O
  O80      1.0000 0.00600  0.47500  0.59900  Biso   1.000  O
  O81      1.0000 0.34500  0.90000  0.13300  Biso   1.000  O
  O82      1.0000 0.65500  0.10000  0.13300  Biso   1.000  O
  O83      1.0000 0.34500  0.60000  0.11700  Biso   1.000  O
  O84      1.0000 0.65500  0.40000  0.11700  Biso   1.000  O
  O85      1.0000 0.90000  0.84500  0.38300  Biso   1.000  O
  O86      1.0000 0.10000  0.15500  0.38300  Biso   1.000  O
  O87      1.0000 0.10000  0.34500  0.86700  Biso   1.000  O
  O88      1.0000 0.90000  0.65500  0.86700  Biso   1.000  O
  O89      1.0000 0.84500  0.40000  0.63300  Biso   1.000  O
  O90      1.0000 0.15500  0.60000  0.63300  Biso   1.000  O
  O91      1.0000 0.84500  0.10000  0.11700  Biso   1.000  O
  O92      1.0000 0.15500  0.90000  0.11700  Biso   1.000  O
  O93      1.0000 0.40000  0.34500  0.38300  Biso   1.000  O
  O94      1.0000 0.60000  0.65500  0.38300  Biso   1.000  O
  O95      1.0000 0.60000  0.84500  0.36700  Biso   1.000  O
  O96      1.0000 0.40000  0.15500  0.36700  Biso   1.000  O
  O97      1.0000 0.97000  0.32800  0.60000  Biso   1.000  O
  O98      1.0000 0.03000  0.67200  0.60000  Biso   1.000  O
  O99      1.0000 0.97000  0.17200  0.65000  Biso   1.000  O
  O100     1.0000 0.03000  0.82800  0.65000  Biso   1.000  O
  O101     1.0000 0.32800  0.47000  0.85000  Biso   1.000  O
  O102     1.0000 0.67200  0.53000  0.85000  Biso   1.000  O
  O103     1.0000 0.67200  0.97000  0.40000  Biso   1.000  O
  O104     1.0000 0.32800  0.03000  0.40000  Biso   1.000  O
  O105     1.0000 0.47000  0.82800  0.10000  Biso   1.000  O
  O106     1.0000 0.53000  0.17200  0.10000  Biso   1.000  O
  O107     1.0000 0.47000  0.67200  0.65000  Biso   1.000  O
  O108     1.0000 0.53000  0.32800  0.65000  Biso   1.000  O
  O109     1.0000 0.82800  0.97000  0.85000  Biso   1.000  O
  O110     1.0000 0.17200  0.03000  0.85000  Biso   1.000  O
  O111     1.0000 0.17200  0.47000  0.90000  Biso   1.000  O
  O112     1.0000 0.82800  0.53000  0.90000  Biso   1.000  O
  O113     1.0000 0.45200  0.28200  0.11900  Biso   1.000  O
  O114     1.0000 0.54800  0.71800  0.11900  Biso   1.000  O
  O115     1.0000 0.45200  0.21800  0.13100  Biso   1.000  O
  O116     1.0000 0.54800  0.78200  0.13100  Biso   1.000  O
  O117     1.0000 0.28200  0.95200  0.36900  Biso   1.000  O
  O118     1.0000 0.71800  0.04800  0.36900  Biso   1.000  O
  O119     1.0000 0.71800  0.45200  0.88100  Biso   1.000  O
  O120     1.0000 0.28200  0.54800  0.88100  Biso   1.000  O
  O121     1.0000 0.95200  0.78200  0.61900  Biso   1.000  O
  O122     1.0000 0.04800  0.21800  0.61900  Biso   1.000  O
  O123     1.0000 0.95200  0.71800  0.13100  Biso   1.000  O
  O124     1.0000 0.04800  0.28200  0.13100  Biso   1.000  O
  O125     1.0000 0.78200  0.45200  0.36900  Biso   1.000  O
  O126     1.0000 0.21800  0.54800  0.36900  Biso   1.000  O
  O127     1.0000 0.21800  0.95200  0.38100  Biso   1.000  O
  O128     1.0000 0.78200  0.04800  0.38100  Biso   1.000  O
  C1       1.0000 0.18600  0.02370  0.80130  Biso   1.000  C
  C2       1.0000 0.81400  0.97630  0.80130  Biso   1.000  C
  C3       1.0000 0.18600  0.47630  0.44870  Biso   1.000  C
  C4       1.0000 0.81400  0.52370  0.44870  Biso   1.000  C
  C5       1.0000 0.02370  0.68600  0.05130  Biso   1.000  C
  C6       1.0000 0.97630  0.31400  0.05130  Biso   1.000  C
  C7       1.0000 0.97630  0.18600  0.19870  Biso   1.000  C
  C8       1.0000 0.02370  0.81400  0.19870  Biso   1.000  C
  C9       1.0000 0.68600  0.52370  0.30130  Biso   1.000  C
  C10      1.0000 0.31400  0.47630  0.30130  Biso   1.000  C
  C11      1.0000 0.68600  0.97630  0.44870  Biso   1.000  C
  C12      1.0000 0.31400  0.02370  0.44870  Biso   1.000  C
  C13      1.0000 0.52370  0.18600  0.05130  Biso   1.000  C
  C14      1.0000 0.47630  0.81400  0.05130  Biso   1.000  C
  C15      1.0000 0.47630  0.68600  0.69870  Biso   1.000  C
  C16      1.0000 0.52370  0.31400  0.69870  Biso   1.000  C
  H1       1.0000 0.14760  0.04350  0.79910  Biso   1.000  H
  H2       1.0000 0.85240  0.95650  0.79910  Biso   1.000  H
  H3       1.0000 0.14760  0.45650  0.45090  Biso   1.000  H
  H4       1.0000 0.85240  0.54350  0.45090  Biso   1.000  H
  H5       1.0000 0.04350  0.64760  0.04910  Biso   1.000  H
  H6       1.0000 0.95650  0.35240  0.04910  Biso   1.000  H
  H7       1.0000 0.95650  0.14760  0.20090  Biso   1.000  H
  H8       1.0000 0.04350  0.85240  0.20090  Biso   1.000  H
  H9       1.0000 0.64760  0.54350  0.29910  Biso   1.000  H
  H10      1.0000 0.35240  0.45650  0.29910  Biso   1.000  H
  H11      1.0000 0.64760  0.95650  0.45090  Biso   1.000  H
  H12      1.0000 0.35240  0.04350  0.45090  Biso   1.000  H
  H13      1.0000 0.54350  0.14760  0.04910  Biso   1.000  H
  H14      1.0000 0.45650  0.85240  0.04910  Biso   1.000  H
  H15      1.0000 0.45650  0.64760  0.70090  Biso   1.000  H
  H16      1.0000 0.54350  0.35240  0.70090  Biso   1.000  H
  C17      1.0000 0.18970  0.95790  0.81060  Biso   1.000  C
  C18      1.0000 0.81030  0.04210  0.81060  Biso   1.000  C
  C19      1.0000 0.18970  0.54210  0.43940  Biso   1.000  C
  C20      1.0000 0.81030  0.45790  0.43940  Biso   1.000  C
  C21      1.0000 0.95790  0.68970  0.06060  Biso   1.000  C
  C22      1.0000 0.04210  0.31030  0.06060  Biso   1.000  C
  C23      1.0000 0.04210  0.18970  0.18940  Biso   1.000  C
  C24      1.0000 0.95790  0.81030  0.18940  Biso   1.000  C
  C25      1.0000 0.68970  0.45790  0.31060  Biso   1.000  C
  C26      1.0000 0.31030  0.54210  0.31060  Biso   1.000  C
  C27      1.0000 0.68970  0.04210  0.43940  Biso   1.000  C
  C28      1.0000 0.31030  0.95790  0.43940  Biso   1.000  C
  C29      1.0000 0.45790  0.18970  0.06060  Biso   1.000  C
  C30      1.0000 0.54210  0.81030  0.06060  Biso   1.000  C
  C31      1.0000 0.54210  0.68970  0.68940  Biso   1.000  C
  C32      1.0000 0.45790  0.31030  0.68940  Biso   1.000  C
  H17      1.0000 0.15340  0.93430  0.81090  Biso   1.000  H
  H18      1.0000 0.84660  0.06570  0.81090  Biso   1.000  H
  H19      1.0000 0.15340  0.56570  0.43910  Biso   1.000  H
  H20      1.0000 0.84660  0.43430  0.43910  Biso   1.000  H
  H21      1.0000 0.93430  0.65340  0.06090  Biso   1.000  H
  H22      1.0000 0.06570  0.34660  0.06090  Biso   1.000  H
  H23      1.0000 0.06570  0.15340  0.18910  Biso   1.000  H
  H24      1.0000 0.93430  0.84660  0.18910  Biso   1.000  H
  H25      1.0000 0.65340  0.43430  0.31090  Biso   1.000  H
  H26      1.0000 0.34660  0.56570  0.31090  Biso   1.000  H
  H27      1.0000 0.65340  0.06570  0.43910  Biso   1.000  H
  H28      1.0000 0.34660  0.93430  0.43910  Biso   1.000  H
  H29      1.0000 0.43430  0.15340  0.06090  Biso   1.000  H
  H30      1.0000 0.56570  0.84660  0.06090  Biso   1.000  H
  H31      1.0000 0.56570  0.65340  0.68910  Biso   1.000  H
  H32      1.0000 0.43430  0.34660  0.68910  Biso   1.000  H
  C33      1.0000 0.24100  0.93180  0.81840  Biso   1.000  C
  C34      1.0000 0.75900  0.06820  0.81840  Biso   1.000  C
  C35      1.0000 0.24100  0.56820  0.43160  Biso   1.000  C
  C36      1.0000 0.75900  0.43180  0.43160  Biso   1.000  C
  C37      1.0000 0.93180  0.74100  0.06840  Biso   1.000  C
  C38      1.0000 0.06820  0.25900  0.06840  Biso   1.000  C
  C39      1.0000 0.06820  0.24100  0.18160  Biso   1.000  C
  C40      1.0000 0.93180  0.75900  0.18160  Biso   1.000  C
  C41      1.0000 0.74100  0.43180  0.31840  Biso   1.000  C
  C42      1.0000 0.25900  0.56820  0.31840  Biso   1.000  C
  C43      1.0000 0.74100  0.06820  0.43160  Biso   1.000  C
  C44      1.0000 0.25900  0.93180  0.43160  Biso   1.000  C
  C45      1.0000 0.43180  0.24100  0.06840  Biso   1.000  C
  C46      1.0000 0.56820  0.75900  0.06840  Biso   1.000  C
  C47      1.0000 0.56820  0.74100  0.68160  Biso   1.000  C
  C48      1.0000 0.43180  0.25900  0.68160  Biso   1.000  C
  H33      1.0000 0.24200  0.88970  0.82570  Biso   1.000  H
  H34      1.0000 0.75800  0.11030  0.82570  Biso   1.000  H
  H35      1.0000 0.24200  0.61030  0.42430  Biso   1.000  H
  H36      1.0000 0.75800  0.38970  0.42430  Biso   1.000  H
  H37      1.0000 0.88970  0.74200  0.07570  Biso   1.000  H
  H38      1.0000 0.11030  0.25800  0.07570  Biso   1.000  H
  H39      1.0000 0.11030  0.24200  0.17430  Biso   1.000  H
  H40      1.0000 0.88970  0.75800  0.17430  Biso   1.000  H
  H41      1.0000 0.74200  0.38970  0.32570  Biso   1.000  H
  H42      1.0000 0.25800  0.61030  0.32570  Biso   1.000  H
  H43      1.0000 0.74200  0.11030  0.42430  Biso   1.000  H
  H44      1.0000 0.25800  0.88970  0.42430  Biso   1.000  H
  H45      1.0000 0.38970  0.24200  0.07570  Biso   1.000  H
  H46      1.0000 0.61030  0.75800  0.07570  Biso   1.000  H
  H47      1.0000 0.61030  0.74200  0.67430  Biso   1.000  H
  H48      1.0000 0.38970  0.25800  0.67430  Biso   1.000  H
  C49      1.0000 0.29860  0.96670  0.81630  Biso   1.000  C
  C50      1.0000 0.70140  0.03330  0.81630  Biso   1.000  C
  C51      1.0000 0.29860  0.53330  0.43370  Biso   1.000  C
  C52      1.0000 0.70140  0.46670  0.43370  Biso   1.000  C
  C53      1.0000 0.96670  0.79860  0.06630  Biso   1.000  C
  C54      1.0000 0.03330  0.20140  0.06630  Biso   1.000  C
  C55      1.0000 0.03330  0.29860  0.18370  Biso   1.000  C
  C56      1.0000 0.96670  0.70140  0.18370  Biso   1.000  C
  C57      1.0000 0.79860  0.46670  0.31630  Biso   1.000  C
  C58      1.0000 0.20140  0.53330  0.31630  Biso   1.000  C
  C59      1.0000 0.79860  0.03330  0.43370  Biso   1.000  C
  C60      1.0000 0.20140  0.96670  0.43370  Biso   1.000  C
  C61      1.0000 0.46670  0.29860  0.06630  Biso   1.000  C
  C62      1.0000 0.53330  0.70140  0.06630  Biso   1.000  C
  C63      1.0000 0.53330  0.79860  0.68370  Biso   1.000  C
  C64      1.0000 0.46670  0.20140  0.68370  Biso   1.000  C
  H49      1.0000 0.33720  0.94870  0.82180  Biso   1.000  H
  H50      1.0000 0.66280  0.05130  0.82180  Biso   1.000  H
  H51      1.0000 0.33720  0.55130  0.42820  Biso   1.000  H
  H52      1.0000 0.66280  0.44870  0.42820  Biso   1.000  H
  H53      1.0000 0.94870  0.83720  0.07180  Biso   1.000  H
  H54      1.0000 0.05130  0.16280  0.07180  Biso   1.000  H
  H55      1.0000 0.05130  0.33720  0.17820  Biso   1.000  H
  H56      1.0000 0.94870  0.66280  0.17820  Biso   1.000  H
  H57      1.0000 0.83720  0.44870  0.32180  Biso   1.000  H
  H58      1.0000 0.16280  0.55130  0.32180  Biso   1.000  H
  H59      1.0000 0.83720  0.05130  0.42820  Biso   1.000  H
  H60      1.0000 0.16280  0.94870  0.42820  Biso   1.000  H
  H61      1.0000 0.44870  0.33720  0.07180  Biso   1.000  H
  H62      1.0000 0.55130  0.66280  0.07180  Biso   1.000  H
  H63      1.0000 0.55130  0.83720  0.67820  Biso   1.000  H
  H64      1.0000 0.44870  0.16280  0.67820  Biso   1.000  H
  C65      1.0000 0.29190  0.02680  0.80560  Biso   1.000  C
  C66      1.0000 0.70810  0.97320  0.80560  Biso   1.000  C
  C67      1.0000 0.29190  0.47320  0.44440  Biso   1.000  C
  C68      1.0000 0.70810  0.52680  0.44440  Biso   1.000  C
  C69      1.0000 0.02680  0.79190  0.05560  Biso   1.000  C
  C70      1.0000 0.97320  0.20810  0.05560  Biso   1.000  C
  C71      1.0000 0.97320  0.29190  0.19440  Biso   1.000  C
  C72      1.0000 0.02680  0.70810  0.19440  Biso   1.000  C
  C73      1.0000 0.79190  0.52680  0.30560  Biso   1.000  C
  C74      1.0000 0.20810  0.47320  0.30560  Biso   1.000  C
  C75      1.0000 0.79190  0.97320  0.44440  Biso   1.000  C
  C76      1.0000 0.20810  0.02680  0.44440  Biso   1.000  C
  C77      1.0000 0.52680  0.29190  0.05560  Biso   1.000  C
  C78      1.0000 0.47320  0.70810  0.05560  Biso   1.000  C
  C79      1.0000 0.47320  0.79190  0.69440  Biso   1.000  C
  C80      1.0000 0.52680  0.20810  0.69440  Biso   1.000  C
  C81      1.0000 0.34830  0.07040  0.80530  Biso   1.000  C
  C82      1.0000 0.65170  0.92960  0.80530  Biso   1.000  C
  C83      1.0000 0.34830  0.42960  0.44470  Biso   1.000  C
  C84      1.0000 0.65170  0.57040  0.44470  Biso   1.000  C
  C85      1.0000 0.07040  0.84830  0.05530  Biso   1.000  C
  C86      1.0000 0.92960  0.15170  0.05530  Biso   1.000  C
  C87      1.0000 0.92960  0.34830  0.19470  Biso   1.000  C
  C88      1.0000 0.07040  0.65170  0.19470  Biso   1.000  C
  C89      1.0000 0.84830  0.57040  0.30530  Biso   1.000  C
  C90      1.0000 0.15170  0.42960  0.30530  Biso   1.000  C
  C91      1.0000 0.84830  0.92960  0.44470  Biso   1.000  C
  C92      1.0000 0.15170  0.07040  0.44470  Biso   1.000  C
  C93      1.0000 0.57040  0.34830  0.05530  Biso   1.000  C
  C94      1.0000 0.42960  0.65170  0.05530  Biso   1.000  C
  C95      1.0000 0.42960  0.84830  0.69470  Biso   1.000  C
  C96      1.0000 0.57040  0.15170  0.69470  Biso   1.000  C
  C97      1.0000 0.40870  0.05350  0.81470  Biso   1.000  C
  C98      1.0000 0.59130  0.94650  0.81470  Biso   1.000  C
  C99      1.0000 0.40870  0.44650  0.43530  Biso   1.000  C
  C100     1.0000 0.59130  0.55350  0.43530  Biso   1.000  C
  C101     1.0000 0.05350  0.90870  0.06470  Biso   1.000  C
  C102     1.0000 0.94650  0.09130  0.06470  Biso   1.000  C
  C103     1.0000 0.94650  0.40870  0.18530  Biso   1.000  C
  C104     1.0000 0.05350  0.59130  0.18530  Biso   1.000  C
  C105     1.0000 0.90870  0.55350  0.31470  Biso   1.000  C
  C106     1.0000 0.09130  0.44650  0.31470  Biso   1.000  C
  C107     1.0000 0.90870  0.94650  0.43530  Biso   1.000  C
  C108     1.0000 0.09130  0.05350  0.43530  Biso   1.000  C
  C109     1.0000 0.55350  0.40870  0.06470  Biso   1.000  C
  C110     1.0000 0.44650  0.59130  0.06470  Biso   1.000  C
  C111     1.0000 0.44650  0.90870  0.68530  Biso   1.000  C
  C112     1.0000 0.55350  0.09130  0.68530  Biso   1.000  C
  H65      1.0000 0.41830  0.01180  0.81960  Biso   1.000  H
  H66      1.0000 0.58170  0.98820  0.81960  Biso   1.000  H
  H67      1.0000 0.41830  0.48820  0.43040  Biso   1.000  H
  H68      1.0000 0.58170  0.51180  0.43040  Biso   1.000  H
  H69      1.0000 0.01180  0.91830  0.06960  Biso   1.000  H
  H70      1.0000 0.98820  0.08170  0.06960  Biso   1.000  H
  H71      1.0000 0.98820  0.41830  0.18040  Biso   1.000  H
  H72      1.0000 0.01180  0.58170  0.18040  Biso   1.000  H
  H73      1.0000 0.91830  0.51180  0.31960  Biso   1.000  H
  H74      1.0000 0.08170  0.48820  0.31960  Biso   1.000  H
  H75      1.0000 0.91830  0.98820  0.43040  Biso   1.000  H
  H76      1.0000 0.08170  0.01180  0.43040  Biso   1.000  H
  H77      1.0000 0.51180  0.41830  0.06960  Biso   1.000  H
  H78      1.0000 0.48820  0.58170  0.06960  Biso   1.000  H
  H79      1.0000 0.48820  0.91830  0.68040  Biso   1.000  H
  H80      1.0000 0.51180  0.08170  0.68040  Biso   1.000  H
  C113     1.0000 0.45530  0.09790  0.81680  Biso   1.000  C
  C114     1.0000 0.54470  0.90210  0.81680  Biso   1.000  C
  C115     1.0000 0.45530  0.40210  0.43320  Biso   1.000  C
  C116     1.0000 0.54470  0.59790  0.43320  Biso   1.000  C
  C117     1.0000 0.09790  0.95530  0.06680  Biso   1.000  C
  C118     1.0000 0.90210  0.04470  0.06680  Biso   1.000  C
  C119     1.0000 0.90210  0.45530  0.18320  Biso   1.000  C
  C120     1.0000 0.09790  0.54470  0.18320  Biso   1.000  C
  C121     1.0000 0.95530  0.59790  0.31680  Biso   1.000  C
  C122     1.0000 0.04470  0.40210  0.31680  Biso   1.000  C
  C123     1.0000 0.95530  0.90210  0.43320  Biso   1.000  C
  C124     1.0000 0.04470  0.09790  0.43320  Biso   1.000  C
  C125     1.0000 0.59790  0.45530  0.06680  Biso   1.000  C
  C126     1.0000 0.40210  0.54470  0.06680  Biso   1.000  C
  C127     1.0000 0.40210  0.95530  0.68320  Biso   1.000  C
  C128     1.0000 0.59790  0.04470  0.68320  Biso   1.000  C
  H81      1.0000 0.49400  0.08850  0.82940  Biso   1.000  H
  H82      1.0000 0.50600  0.91150  0.82940  Biso   1.000  H
  H83      1.0000 0.49400  0.41150  0.42060  Biso   1.000  H
  H84      1.0000 0.50600  0.58850  0.42060  Biso   1.000  H
  H85      1.0000 0.08850  0.99400  0.07940  Biso   1.000  H
  H86      1.0000 0.91150  0.00600  0.07940  Biso   1.000  H
  H87      1.0000 0.91150  0.49400  0.17060  Biso   1.000  H
  H88      1.0000 0.08850  0.50600  0.17060  Biso   1.000  H
  H89      1.0000 0.99400  0.58850  0.32940  Biso   1.000  H
  H90      1.0000 0.00600  0.41150  0.32940  Biso   1.000  H
  H91      1.0000 0.99400  0.91150  0.42060  Biso   1.000  H
  H92      1.0000 0.00600  0.08850  0.42060  Biso   1.000  H
  H93      1.0000 0.58850  0.49400  0.07940  Biso   1.000  H
  H94      1.0000 0.41150  0.50600  0.07940  Biso   1.000  H
  H95      1.0000 0.41150  0.99400  0.67060  Biso   1.000  H
  H96      1.0000 0.58850  0.00600  0.67060  Biso   1.000  H
  N1       1.0000 0.15380  0.15990  0.77930  Biso   1.000  N
  N2       1.0000 0.84620  0.84010  0.77930  Biso   1.000  N
  N3       1.0000 0.15380  0.34010  0.47070  Biso   1.000  N
  N4       1.0000 0.84620  0.65990  0.47070  Biso   1.000  N
  N5       1.0000 0.15990  0.65380  0.02930  Biso   1.000  N
  N6       1.0000 0.84010  0.34620  0.02930  Biso   1.000  N
  N7       1.0000 0.84010  0.15380  0.22070  Biso   1.000  N
  N8       1.0000 0.15990  0.84620  0.22070  Biso   1.000  N
  N9       1.0000 0.65380  0.65990  0.27930  Biso   1.000  N
  N10      1.0000 0.34620  0.34010  0.27930  Biso   1.000  N
  N11      1.0000 0.65380  0.84010  0.47070  Biso   1.000  N
  N12      1.0000 0.34620  0.15990  0.47070  Biso   1.000  N
  N13      1.0000 0.65990  0.15380  0.02930  Biso   1.000  N
  N14      1.0000 0.34010  0.84620  0.02930  Biso   1.000  N
  N15      1.0000 0.34010  0.65380  0.72070  Biso   1.000  N
  N16      1.0000 0.65990  0.34620  0.72070  Biso   1.000  N
  C129     1.0000 0.11650  0.16810  0.81280  Biso   1.000  C
  C130     1.0000 0.88350  0.83190  0.81280  Biso   1.000  C
  C131     1.0000 0.11650  0.33190  0.43720  Biso   1.000  C
  C132     1.0000 0.88350  0.66810  0.43720  Biso   1.000  C
  C133     1.0000 0.16810  0.61650  0.06280  Biso   1.000  C
  C134     1.0000 0.83190  0.38350  0.06280  Biso   1.000  C
  C135     1.0000 0.83190  0.11650  0.18720  Biso   1.000  C
  C136     1.0000 0.16810  0.88350  0.18720  Biso   1.000  C
  C137     1.0000 0.61650  0.66810  0.31280  Biso   1.000  C
  C138     1.0000 0.38350  0.33190  0.31280  Biso   1.000  C
  C139     1.0000 0.61650  0.83190  0.43720  Biso   1.000  C
  C140     1.0000 0.38350  0.16810  0.43720  Biso   1.000  C
  C141     1.0000 0.66810  0.11650  0.06280  Biso   1.000  C
  C142     1.0000 0.33190  0.88350  0.06280  Biso   1.000  C
  C143     1.0000 0.33190  0.61650  0.68720  Biso   1.000  C
  C144     1.0000 0.66810  0.38350  0.68720  Biso   1.000  C
  H97      1.0000 0.13310  0.17020  0.84210  Biso   1.000  H
  H98      1.0000 0.86690  0.82980  0.84210  Biso   1.000  H
  H99      1.0000 0.13310  0.32980  0.40790  Biso   1.000  H
  H100     1.0000 0.86690  0.67020  0.40790  Biso   1.000  H
  H101     1.0000 0.17020  0.63310  0.09210  Biso   1.000  H
  H102     1.0000 0.82980  0.36690  0.09210  Biso   1.000  H
  H103     1.0000 0.82980  0.13310  0.15790  Biso   1.000  H
  H104     1.0000 0.17020  0.86690  0.15790  Biso   1.000  H
  H105     1.0000 0.63310  0.67020  0.34210  Biso   1.000  H
  H106     1.0000 0.36690  0.32980  0.34210  Biso   1.000  H
  H107     1.0000 0.63310  0.82980  0.40790  Biso   1.000  H
  H108     1.0000 0.36690  0.17020  0.40790  Biso   1.000  H
  H109     1.0000 0.67020  0.13310  0.09210  Biso   1.000  H
  H110     1.0000 0.32980  0.86690  0.09210  Biso   1.000  H
  H111     1.0000 0.32980  0.63310  0.65790  Biso   1.000  H
  H112     1.0000 0.67020  0.36690  0.65790  Biso   1.000  H
  C145     1.0000 0.05230  0.17400  0.80780  Biso   1.000  C
  C146     1.0000 0.94770  0.82600  0.80780  Biso   1.000  C
  C147     1.0000 0.05230  0.32600  0.44220  Biso   1.000  C
  C148     1.0000 0.94770  0.67400  0.44220  Biso   1.000  C
  C149     1.0000 0.17400  0.55230  0.05780  Biso   1.000  C
  C150     1.0000 0.82600  0.44770  0.05780  Biso   1.000  C
  C151     1.0000 0.82600  0.05230  0.19220  Biso   1.000  C
  C152     1.0000 0.17400  0.94770  0.19220  Biso   1.000  C
  C153     1.0000 0.55230  0.67400  0.30780  Biso   1.000  C
  C154     1.0000 0.44770  0.32600  0.30780  Biso   1.000  C
  C155     1.0000 0.55230  0.82600  0.44220  Biso   1.000  C
  C156     1.0000 0.44770  0.17400  0.44220  Biso   1.000  C
  C157     1.0000 0.67400  0.05230  0.05780  Biso   1.000  C
  C158     1.0000 0.32600  0.94770  0.05780  Biso   1.000  C
  C159     1.0000 0.32600  0.55230  0.69220  Biso   1.000  C
  C160     1.0000 0.67400  0.44770  0.69220  Biso   1.000  C
  H113     1.0000 0.02820  0.18010  0.83380  Biso   1.000  H
  H114     1.0000 0.97180  0.81990  0.83380  Biso   1.000  H
  H115     1.0000 0.02820  0.31990  0.41620  Biso   1.000  H
  H116     1.0000 0.97180  0.68010  0.41620  Biso   1.000  H
  H117     1.0000 0.18010  0.52820  0.08380  Biso   1.000  H
  H118     1.0000 0.81990  0.47180  0.08380  Biso   1.000  H
  H119     1.0000 0.81990  0.02820  0.16620  Biso   1.000  H
  H120     1.0000 0.18010  0.97180  0.16620  Biso   1.000  H
  H121     1.0000 0.52820  0.68010  0.33380  Biso   1.000  H
  H122     1.0000 0.47180  0.31990  0.33380  Biso   1.000  H
  H123     1.0000 0.52820  0.81990  0.41620  Biso   1.000  H
  H124     1.0000 0.47180  0.18010  0.41620  Biso   1.000  H
  H125     1.0000 0.68010  0.02820  0.08380  Biso   1.000  H
  H126     1.0000 0.31990  0.97180  0.08380  Biso   1.000  H
  H127     1.0000 0.31990  0.52820  0.66620  Biso   1.000  H
  H128     1.0000 0.68010  0.47180  0.66620  Biso   1.000  H
  C161     1.0000 0.02330  0.17130  0.76660  Biso   1.000  C
  C162     1.0000 0.97670  0.82870  0.76660  Biso   1.000  C
  C163     1.0000 0.02330  0.32870  0.48340  Biso   1.000  C
  C164     1.0000 0.97670  0.67130  0.48340  Biso   1.000  C
  C165     1.0000 0.17130  0.52330  0.01660  Biso   1.000  C
  C166     1.0000 0.82870  0.47670  0.01660  Biso   1.000  C
  C167     1.0000 0.82870  0.02330  0.23340  Biso   1.000  C
  C168     1.0000 0.17130  0.97670  0.23340  Biso   1.000  C
  C169     1.0000 0.52330  0.67130  0.26660  Biso   1.000  C
  C170     1.0000 0.47670  0.32870  0.26660  Biso   1.000  C
  C171     1.0000 0.52330  0.82870  0.48340  Biso   1.000  C
  C172     1.0000 0.47670  0.17130  0.48340  Biso   1.000  C
  C173     1.0000 0.67130  0.02330  0.01660  Biso   1.000  C
  C174     1.0000 0.32870  0.97670  0.01660  Biso   1.000  C
  C175     1.0000 0.32870  0.52330  0.73340  Biso   1.000  C
  C176     1.0000 0.67130  0.47670  0.73340  Biso   1.000  C
  C177     1.0000 0.06570  0.16430  0.72910  Biso   1.000  C
  C178     1.0000 0.93430  0.83570  0.72910  Biso   1.000  C
  C179     1.0000 0.06570  0.33570  0.52090  Biso   1.000  C
  C180     1.0000 0.93430  0.66430  0.52090  Biso   1.000  C
  C181     1.0000 0.16430  0.56570  0.97910  Biso   1.000  C
  C182     1.0000 0.83570  0.43430  0.97910  Biso   1.000  C
  C183     1.0000 0.83570  0.06570  0.27090  Biso   1.000  C
  C184     1.0000 0.16430  0.93430  0.27090  Biso   1.000  C
  C185     1.0000 0.56570  0.66430  0.22910  Biso   1.000  C
  C186     1.0000 0.43430  0.33570  0.22910  Biso   1.000  C
  C187     1.0000 0.56570  0.83570  0.52090  Biso   1.000  C
  C188     1.0000 0.43430  0.16430  0.52090  Biso   1.000  C
  C189     1.0000 0.66430  0.06570  0.97910  Biso   1.000  C
  C190     1.0000 0.33570  0.93430  0.97910  Biso   1.000  C
  C191     1.0000 0.33570  0.56570  0.77090  Biso   1.000  C
  C192     1.0000 0.66430  0.43430  0.77090  Biso   1.000  C
  H129     1.0000 0.05080  0.16550  0.69940  Biso   1.000  H
  H130     1.0000 0.94920  0.83450  0.69940  Biso   1.000  H
  H131     1.0000 0.05080  0.33450  0.55060  Biso   1.000  H
  H132     1.0000 0.94920  0.66550  0.55060  Biso   1.000  H
  H133     1.0000 0.16550  0.55080  0.94940  Biso   1.000  H
  H134     1.0000 0.83450  0.44920  0.94940  Biso   1.000  H
  H135     1.0000 0.83450  0.05080  0.30060  Biso   1.000  H
  H136     1.0000 0.16550  0.94920  0.30060  Biso   1.000  H
  H137     1.0000 0.55080  0.66550  0.19940  Biso   1.000  H
  H138     1.0000 0.44920  0.33450  0.19940  Biso   1.000  H
  H139     1.0000 0.55080  0.83450  0.55060  Biso   1.000  H
  H140     1.0000 0.44920  0.16550  0.55060  Biso   1.000  H
  H141     1.0000 0.66550  0.05080  0.94940  Biso   1.000  H
  H142     1.0000 0.33450  0.94920  0.94940  Biso   1.000  H
  H143     1.0000 0.33450  0.55080  0.80060  Biso   1.000  H
  H144     1.0000 0.66550  0.44920  0.80060  Biso   1.000  H
  C193     1.0000 0.13030  0.15550  0.73710  Biso   1.000  C
  C194     1.0000 0.86970  0.84450  0.73710  Biso   1.000  C
  C195     1.0000 0.13030  0.34450  0.51290  Biso   1.000  C
  C196     1.0000 0.86970  0.65550  0.51290  Biso   1.000  C
  C197     1.0000 0.15550  0.63030  0.98710  Biso   1.000  C
  C198     1.0000 0.84450  0.36970  0.98710  Biso   1.000  C
  C199     1.0000 0.84450  0.13030  0.26290  Biso   1.000  C
  C200     1.0000 0.15550  0.86970  0.26290  Biso   1.000  C
  C201     1.0000 0.63030  0.65550  0.23710  Biso   1.000  C
  C202     1.0000 0.36970  0.34450  0.23710  Biso   1.000  C
  C203     1.0000 0.63030  0.84450  0.51290  Biso   1.000  C
  C204     1.0000 0.36970  0.15550  0.51290  Biso   1.000  C
  C205     1.0000 0.65550  0.13030  0.98710  Biso   1.000  C
  C206     1.0000 0.34450  0.86970  0.98710  Biso   1.000  C
  C207     1.0000 0.34450  0.63030  0.76290  Biso   1.000  C
  C208     1.0000 0.65550  0.36970  0.76290  Biso   1.000  C
  H145     1.0000 0.15660  0.14660  0.71270  Biso   1.000  H
  H146     1.0000 0.84340  0.85340  0.71270  Biso   1.000  H
  H147     1.0000 0.15660  0.35340  0.53730  Biso   1.000  H
  H148     1.0000 0.84340  0.64660  0.53730  Biso   1.000  H
  H149     1.0000 0.14660  0.65660  0.96270  Biso   1.000  H
  H150     1.0000 0.85340  0.34340  0.96270  Biso   1.000  H
  H151     1.0000 0.85340  0.15660  0.28730  Biso   1.000  H
  H152     1.0000 0.14660  0.84340  0.28730  Biso   1.000  H
  H153     1.0000 0.65660  0.64660  0.21270  Biso   1.000  H
  H154     1.0000 0.34340  0.35340  0.21270  Biso   1.000  H
  H155     1.0000 0.65660  0.85340  0.53730  Biso   1.000  H
  H156     1.0000 0.34340  0.14660  0.53730  Biso   1.000  H
  H157     1.0000 0.64660  0.15660  0.96270  Biso   1.000  H
  H158     1.0000 0.35340  0.84340  0.96270  Biso   1.000  H
  H159     1.0000 0.35340  0.65660  0.78730  Biso   1.000  H
  H160     1.0000 0.64660  0.34340  0.78730  Biso   1.000  H
  C209     1.0000 0.95220  0.17080  0.76130  Biso   1.000  C
  C210     1.0000 0.04780  0.82920  0.76130  Biso   1.000  C
  C211     1.0000 0.95220  0.32920  0.48870  Biso   1.000  C
  C212     1.0000 0.04780  0.67080  0.48870  Biso   1.000  C
  C213     1.0000 0.17080  0.45220  0.01130  Biso   1.000  C
  C214     1.0000 0.82920  0.54780  0.01130  Biso   1.000  C
  C215     1.0000 0.82920  0.95220  0.23870  Biso   1.000  C
  C216     1.0000 0.17080  0.04780  0.23870  Biso   1.000  C
  C217     1.0000 0.45220  0.67080  0.26130  Biso   1.000  C
  C218     1.0000 0.54780  0.32920  0.26130  Biso   1.000  C
  C219     1.0000 0.45220  0.82920  0.48870  Biso   1.000  C
  C220     1.0000 0.54780  0.17080  0.48870  Biso   1.000  C
  C221     1.0000 0.67080  0.95220  0.01130  Biso   1.000  C
  C222     1.0000 0.32920  0.04780  0.01130  Biso   1.000  C
  C223     1.0000 0.32920  0.45220  0.73870  Biso   1.000  C
  C224     1.0000 0.67080  0.54780  0.73870  Biso   1.000  C
  H161     1.0000 0.94060  0.15710  0.73100  Biso   1.000  H
  H162     1.0000 0.05940  0.84290  0.73100  Biso   1.000  H
  H163     1.0000 0.94060  0.34290  0.51900  Biso   1.000  H
  H164     1.0000 0.05940  0.65710  0.51900  Biso   1.000  H
  H165     1.0000 0.15710  0.44060  0.98100  Biso   1.000  H
  H166     1.0000 0.84290  0.55940  0.98100  Biso   1.000  H
  H167     1.0000 0.84290  0.94060  0.26900  Biso   1.000  H
  H168     1.0000 0.15710  0.05940  0.26900  Biso   1.000  H
  H169     1.0000 0.44060  0.65710  0.23100  Biso   1.000  H
  H170     1.0000 0.55940  0.34290  0.23100  Biso   1.000  H
  H171     1.0000 0.44060  0.84290  0.51900  Biso   1.000  H
  H172     1.0000 0.55940  0.15710  0.51900  Biso   1.000  H
  H173     1.0000 0.65710  0.94060  0.98100  Biso   1.000  H
  H174     1.0000 0.34290  0.05940  0.98100  Biso   1.000  H
  H175     1.0000 0.34290  0.44060  0.76900  Biso   1.000  H
  H176     1.0000 0.65710  0.55940  0.76900  Biso   1.000  H
  H177     1.0000 0.93350  0.14310  0.78360  Biso   1.000  H
  H178     1.0000 0.06650  0.85690  0.78360  Biso   1.000  H
  H179     1.0000 0.93350  0.35690  0.46640  Biso   1.000  H
  H180     1.0000 0.06650  0.64310  0.46640  Biso   1.000  H
  H181     1.0000 0.14310  0.43350  0.03360  Biso   1.000  H
  H182     1.0000 0.85690  0.56650  0.03360  Biso   1.000  H
  H183     1.0000 0.85690  0.93350  0.21640  Biso   1.000  H
  H184     1.0000 0.14310  0.06650  0.21640  Biso   1.000  H
  H185     1.0000 0.43350  0.64310  0.28360  Biso   1.000  H
  H186     1.0000 0.56650  0.35690  0.28360  Biso   1.000  H
  H187     1.0000 0.43350  0.85690  0.46640  Biso   1.000  H
  H188     1.0000 0.56650  0.14310  0.46640  Biso   1.000  H
  H189     1.0000 0.64310  0.93350  0.03360  Biso   1.000  H
  H190     1.0000 0.35690  0.06650  0.03360  Biso   1.000  H
  H191     1.0000 0.35690  0.43350  0.71640  Biso   1.000  H
  H192     1.0000 0.64310  0.56650  0.71640  Biso   1.000  H
  N17      1.0000 0.73970  0.24140  0.72970  Biso   1.000  N
  N18      1.0000 0.26030  0.75860  0.72970  Biso   1.000  N
  N19      1.0000 0.73970  0.25860  0.52030  Biso   1.000  N
  N20      1.0000 0.26030  0.74140  0.52030  Biso   1.000  N
  N21      1.0000 0.24140  0.23970  0.97970  Biso   1.000  N
  N22      1.0000 0.75860  0.76030  0.97970  Biso   1.000  N
  N23      1.0000 0.75860  0.73970  0.27030  Biso   1.000  N
  N24      1.0000 0.24140  0.26030  0.27030  Biso   1.000  N
  N25      1.0000 0.23970  0.74140  0.22970  Biso   1.000  N
  N26      1.0000 0.76030  0.25860  0.22970  Biso   1.000  N
  N27      1.0000 0.23970  0.75860  0.52030  Biso   1.000  N
  N28      1.0000 0.76030  0.24140  0.52030  Biso   1.000  N
  N29      1.0000 0.74140  0.73970  0.97970  Biso   1.000  N
  N30      1.0000 0.25860  0.26030  0.97970  Biso   1.000  N
  N31      1.0000 0.25860  0.23970  0.77030  Biso   1.000  N
  N32      1.0000 0.74140  0.76030  0.77030  Biso   1.000  N
  C225     1.0000 0.75630  0.23310  0.77260  Biso   1.000  C
  C226     1.0000 0.24370  0.76690  0.77260  Biso   1.000  C
  C227     1.0000 0.75630  0.26690  0.47740  Biso   1.000  C
  C228     1.0000 0.24370  0.73310  0.47740  Biso   1.000  C
  C229     1.0000 0.23310  0.25630  0.02260  Biso   1.000  C
  C230     1.0000 0.76690  0.74370  0.02260  Biso   1.000  C
  C231     1.0000 0.76690  0.75630  0.22740  Biso   1.000  C
  C232     1.0000 0.23310  0.24370  0.22740  Biso   1.000  C
  C233     1.0000 0.25630  0.73310  0.27260  Biso   1.000  C
  C234     1.0000 0.74370  0.26690  0.27260  Biso   1.000  C
  C235     1.0000 0.25630  0.76690  0.47740  Biso   1.000  C
  C236     1.0000 0.74370  0.23310  0.47740  Biso   1.000  C
  C237     1.0000 0.73310  0.75630  0.02260  Biso   1.000  C
  C238     1.0000 0.26690  0.24370  0.02260  Biso   1.000  C
  C239     1.0000 0.26690  0.25630  0.72740  Biso   1.000  C
  C240     1.0000 0.73310  0.74370  0.72740  Biso   1.000  C
  H193     1.0000 0.72510  0.22980  0.79460  Biso   1.000  H
  H194     1.0000 0.27490  0.77020  0.79460  Biso   1.000  H
  H195     1.0000 0.72510  0.27020  0.45540  Biso   1.000  H
  H196     1.0000 0.27490  0.72980  0.45540  Biso   1.000  H
  H197     1.0000 0.22980  0.22510  0.04460  Biso   1.000  H
  H198     1.0000 0.77020  0.77490  0.04460  Biso   1.000  H
  H199     1.0000 0.77020  0.72510  0.20540  Biso   1.000  H
  H200     1.0000 0.22980  0.27490  0.20540  Biso   1.000  H
  H201     1.0000 0.22510  0.72980  0.29460  Biso   1.000  H
  H202     1.0000 0.77490  0.27020  0.29460  Biso   1.000  H
  H203     1.0000 0.22510  0.77020  0.45540  Biso   1.000  H
  H204     1.0000 0.77490  0.22980  0.45540  Biso   1.000  H
  H205     1.0000 0.72980  0.72510  0.04460  Biso   1.000  H
  H206     1.0000 0.27020  0.27490  0.04460  Biso   1.000  H
  H207     1.0000 0.27020  0.22510  0.70540  Biso   1.000  H
  H208     1.0000 0.72980  0.77490  0.70540  Biso   1.000  H
  C241     1.0000 0.81660  0.22900  0.78660  Biso   1.000  C
  C242     1.0000 0.18340  0.77100  0.78660  Biso   1.000  C
  C243     1.0000 0.81660  0.27100  0.46340  Biso   1.000  C
  C244     1.0000 0.18340  0.72900  0.46340  Biso   1.000  C
  C245     1.0000 0.22900  0.31660  0.03660  Biso   1.000  C
  C246     1.0000 0.77100  0.68340  0.03660  Biso   1.000  C
  C247     1.0000 0.77100  0.81660  0.21340  Biso   1.000  C
  C248     1.0000 0.22900  0.18340  0.21340  Biso   1.000  C
  C249     1.0000 0.31660  0.72900  0.28660  Biso   1.000  C
  C250     1.0000 0.68340  0.27100  0.28660  Biso   1.000  C
  C251     1.0000 0.31660  0.77100  0.46340  Biso   1.000  C
  C252     1.0000 0.68340  0.22900  0.46340  Biso   1.000  C
  C253     1.0000 0.72900  0.81660  0.03660  Biso   1.000  C
  C254     1.0000 0.27100  0.18340  0.03660  Biso   1.000  C
  C255     1.0000 0.27100  0.31660  0.71340  Biso   1.000  C
  C256     1.0000 0.72900  0.68340  0.71340  Biso   1.000  C
  H209     1.0000 0.82630  0.22070  0.81690  Biso   1.000  H
  H210     1.0000 0.17370  0.77930  0.81690  Biso   1.000  H
  H211     1.0000 0.82630  0.27930  0.43310  Biso   1.000  H
  H212     1.0000 0.17370  0.72070  0.43310  Biso   1.000  H
  H213     1.0000 0.22070  0.32630  0.06690  Biso   1.000  H
  H214     1.0000 0.77930  0.67370  0.06690  Biso   1.000  H
  H215     1.0000 0.77930  0.82630  0.18310  Biso   1.000  H
  H216     1.0000 0.22070  0.17370  0.18310  Biso   1.000  H
  H217     1.0000 0.32630  0.72070  0.31690  Biso   1.000  H
  H218     1.0000 0.67370  0.27930  0.31690  Biso   1.000  H
  H219     1.0000 0.32630  0.77930  0.43310  Biso   1.000  H
  H220     1.0000 0.67370  0.22070  0.43310  Biso   1.000  H
  H221     1.0000 0.72070  0.82630  0.06690  Biso   1.000  H
  H222     1.0000 0.27930  0.17370  0.06690  Biso   1.000  H
  H223     1.0000 0.27930  0.32630  0.68310  Biso   1.000  H
  H224     1.0000 0.72070  0.67370  0.68310  Biso   1.000  H
  C257     1.0000 0.86290  0.23750  0.75480  Biso   1.000  C
  C258     1.0000 0.13710  0.76250  0.75480  Biso   1.000  C
  C259     1.0000 0.86290  0.26250  0.49520  Biso   1.000  C
  C260     1.0000 0.13710  0.73750  0.49520  Biso   1.000  C
  C261     1.0000 0.23750  0.36290  0.00480  Biso   1.000  C
  C262     1.0000 0.76250  0.63710  0.00480  Biso   1.000  C
  C263     1.0000 0.76250  0.86290  0.24520  Biso   1.000  C
  C264     1.0000 0.23750  0.13710  0.24520  Biso   1.000  C
  C265     1.0000 0.36290  0.73750  0.25480  Biso   1.000  C
  C266     1.0000 0.63710  0.26250  0.25480  Biso   1.000  C
  C267     1.0000 0.36290  0.76250  0.49520  Biso   1.000  C
  C268     1.0000 0.63710  0.23750  0.49520  Biso   1.000  C
  C269     1.0000 0.73750  0.86290  0.00480  Biso   1.000  C
  C270     1.0000 0.26250  0.13710  0.00480  Biso   1.000  C
  C271     1.0000 0.26250  0.36290  0.74520  Biso   1.000  C
  C272     1.0000 0.73750  0.63710  0.74520  Biso   1.000  C
  C273     1.0000 0.84530  0.24020  0.71120  Biso   1.000  C
  C274     1.0000 0.15470  0.75980  0.71120  Biso   1.000  C
  C275     1.0000 0.84530  0.25980  0.53880  Biso   1.000  C
  C276     1.0000 0.15470  0.74020  0.53880  Biso   1.000  C
  C277     1.0000 0.24020  0.34530  0.96120  Biso   1.000  C
  C278     1.0000 0.75980  0.65470  0.96120  Biso   1.000  C
  C279     1.0000 0.75980  0.84530  0.28880  Biso   1.000  C
  C280     1.0000 0.24020  0.15470  0.28880  Biso   1.000  C
  C281     1.0000 0.34530  0.74020  0.21120  Biso   1.000  C
  C282     1.0000 0.65470  0.25980  0.21120  Biso   1.000  C
  C283     1.0000 0.34530  0.75980  0.53880  Biso   1.000  C
  C284     1.0000 0.65470  0.24020  0.53880  Biso   1.000  C
  C285     1.0000 0.74020  0.84530  0.96120  Biso   1.000  C
  C286     1.0000 0.25980  0.15470  0.96120  Biso   1.000  C
  C287     1.0000 0.25980  0.34530  0.78880  Biso   1.000  C
  C288     1.0000 0.74020  0.65470  0.78880  Biso   1.000  C
  H225     1.0000 0.87510  0.24010  0.68810  Biso   1.000  H
  H226     1.0000 0.12490  0.75990  0.68810  Biso   1.000  H
  H227     1.0000 0.87510  0.25990  0.56190  Biso   1.000  H
  H228     1.0000 0.12490  0.74010  0.56190  Biso   1.000  H
  H229     1.0000 0.24010  0.37510  0.93810  Biso   1.000  H
  H230     1.0000 0.75990  0.62490  0.93810  Biso   1.000  H
  H231     1.0000 0.75990  0.87510  0.31190  Biso   1.000  H
  H232     1.0000 0.24010  0.12490  0.31190  Biso   1.000  H
  H233     1.0000 0.37510  0.74010  0.18810  Biso   1.000  H
  H234     1.0000 0.62490  0.25990  0.18810  Biso   1.000  H
  H235     1.0000 0.37510  0.75990  0.56190  Biso   1.000  H
  H236     1.0000 0.62490  0.24010  0.56190  Biso   1.000  H
  H237     1.0000 0.74010  0.87510  0.93810  Biso   1.000  H
  H238     1.0000 0.25990  0.12490  0.93810  Biso   1.000  H
  H239     1.0000 0.25990  0.37510  0.81190  Biso   1.000  H
  H240     1.0000 0.74010  0.62490  0.81190  Biso   1.000  H
  C289     1.0000 0.78150  0.24300  0.70010  Biso   1.000  C
  C290     1.0000 0.21850  0.75700  0.70010  Biso   1.000  C
  C291     1.0000 0.78150  0.25700  0.54990  Biso   1.000  C
  C292     1.0000 0.21850  0.74300  0.54990  Biso   1.000  C
  C293     1.0000 0.24300  0.28150  0.95010  Biso   1.000  C
  C294     1.0000 0.75700  0.71850  0.95010  Biso   1.000  C
  C295     1.0000 0.75700  0.78150  0.29990  Biso   1.000  C
  C296     1.0000 0.24300  0.21850  0.29990  Biso   1.000  C
  C297     1.0000 0.28150  0.74300  0.20010  Biso   1.000  C
  C298     1.0000 0.71850  0.25700  0.20010  Biso   1.000  C
  C299     1.0000 0.28150  0.75700  0.54990  Biso   1.000  C
  C300     1.0000 0.71850  0.24300  0.54990  Biso   1.000  C
  C301     1.0000 0.74300  0.78150  0.95010  Biso   1.000  C
  C302     1.0000 0.25700  0.21850  0.95010  Biso   1.000  C
  C303     1.0000 0.25700  0.28150  0.79990  Biso   1.000  C
  C304     1.0000 0.74300  0.71850  0.79990  Biso   1.000  C
  H241     1.0000 0.77010  0.24620  0.66960  Biso   1.000  H
  H242     1.0000 0.22990  0.75380  0.66960  Biso   1.000  H
  H243     1.0000 0.77010  0.25380  0.58040  Biso   1.000  H
  H244     1.0000 0.22990  0.74620  0.58040  Biso   1.000  H
  H245     1.0000 0.24620  0.27010  0.91960  Biso   1.000  H
  H246     1.0000 0.75380  0.72990  0.91960  Biso   1.000  H
  H247     1.0000 0.75380  0.77010  0.33040  Biso   1.000  H
  H248     1.0000 0.24620  0.22990  0.33040  Biso   1.000  H
  H249     1.0000 0.27010  0.74620  0.16960  Biso   1.000  H
  H250     1.0000 0.72990  0.25380  0.16960  Biso   1.000  H
  H251     1.0000 0.27010  0.75380  0.58040  Biso   1.000  H
  H252     1.0000 0.72990  0.24620  0.58040  Biso   1.000  H
  H253     1.0000 0.74620  0.77010  0.91960  Biso   1.000  H
  H254     1.0000 0.25380  0.22990  0.91960  Biso   1.000  H
  H255     1.0000 0.25380  0.27010  0.83040  Biso   1.000  H
  H256     1.0000 0.74620  0.72990  0.83040  Biso   1.000  H
  C305     1.0000 0.93090  0.23760  0.76930  Biso   1.000  C
  C306     1.0000 0.06910  0.76240  0.76930  Biso   1.000  C
  C307     1.0000 0.93090  0.26240  0.48070  Biso   1.000  C
  C308     1.0000 0.06910  0.73760  0.48070  Biso   1.000  C
  C309     1.0000 0.23760  0.43090  0.01930  Biso   1.000  C
  C310     1.0000 0.76240  0.56910  0.01930  Biso   1.000  C
  C311     1.0000 0.76240  0.93090  0.23070  Biso   1.000  C
  C312     1.0000 0.23760  0.06910  0.23070  Biso   1.000  C
  C313     1.0000 0.43090  0.73760  0.26930  Biso   1.000  C
  C314     1.0000 0.56910  0.26240  0.26930  Biso   1.000  C
  C315     1.0000 0.43090  0.76240  0.48070  Biso   1.000  C
  C316     1.0000 0.56910  0.23760  0.48070  Biso   1.000  C
  C317     1.0000 0.73760  0.93090  0.01930  Biso   1.000  C
  C318     1.0000 0.26240  0.06910  0.01930  Biso   1.000  C
  C319     1.0000 0.26240  0.43090  0.73070  Biso   1.000  C
  C320     1.0000 0.73760  0.56910  0.73070  Biso   1.000  C
  H257     1.0000 0.95490  0.26650  0.75100  Biso   1.000  H
  H258     1.0000 0.04510  0.73350  0.75100  Biso   1.000  H
  H259     1.0000 0.95490  0.23350  0.49900  Biso   1.000  H
  H260     1.0000 0.04510  0.76650  0.49900  Biso   1.000  H
  H261     1.0000 0.26650  0.45490  0.00100  Biso   1.000  H
  H262     1.0000 0.73350  0.54510  0.00100  Biso   1.000  H
  H263     1.0000 0.73350  0.95490  0.24900  Biso   1.000  H
  H264     1.0000 0.26650  0.04510  0.24900  Biso   1.000  H
  H265     1.0000 0.45490  0.76650  0.25100  Biso   1.000  H
  H266     1.0000 0.54510  0.23350  0.25100  Biso   1.000  H
  H267     1.0000 0.45490  0.73350  0.49900  Biso   1.000  H
  H268     1.0000 0.54510  0.26650  0.49900  Biso   1.000  H
  H269     1.0000 0.76650  0.95490  0.00100  Biso   1.000  H
  H270     1.0000 0.23350  0.04510  0.00100  Biso   1.000  H
  H271     1.0000 0.23350  0.45490  0.74900  Biso   1.000  H
  H272     1.0000 0.76650  0.54510  0.74900  Biso   1.000  H
  H273     1.0000 0.93500  0.24900  0.80120  Biso   1.000  H
  H274     1.0000 0.06500  0.75100  0.80120  Biso   1.000  H
  H275     1.0000 0.93500  0.25100  0.44880  Biso   1.000  H
  H276     1.0000 0.06500  0.74900  0.44880  Biso   1.000  H
  H277     1.0000 0.24900  0.43500  0.05120  Biso   1.000  H
  H278     1.0000 0.75100  0.56500  0.05120  Biso   1.000  H
  H279     1.0000 0.75100  0.93500  0.19880  Biso   1.000  H
  H280     1.0000 0.24900  0.06500  0.19880  Biso   1.000  H
  H281     1.0000 0.43500  0.74900  0.30120  Biso   1.000  H
  H282     1.0000 0.56500  0.25100  0.30120  Biso   1.000  H
  H283     1.0000 0.43500  0.75100  0.44880  Biso   1.000  H
  H284     1.0000 0.56500  0.24900  0.44880  Biso   1.000  H
  H285     1.0000 0.74900  0.93500  0.05120  Biso   1.000  H
  H286     1.0000 0.25100  0.06500  0.05120  Biso   1.000  H
  H287     1.0000 0.25100  0.43500  0.69880  Biso   1.000  H
  H288     1.0000 0.74900  0.56500  0.69880  Biso   1.000  H
  C321     1.0000 0.44340  0.15440  0.80040  Biso   1.000  C
  C322     1.0000 0.55660  0.84560  0.80040  Biso   1.000  C
  C323     1.0000 0.44340  0.34560  0.44960  Biso   1.000  C
  C324     1.0000 0.55660  0.65440  0.44960  Biso   1.000  C
  C325     1.0000 0.15440  0.94340  0.05040  Biso   1.000  C
  C326     1.0000 0.84560  0.05660  0.05040  Biso   1.000  C
  C327     1.0000 0.84560  0.44340  0.19960  Biso   1.000  C
  C328     1.0000 0.15440  0.55660  0.19960  Biso   1.000  C
  C329     1.0000 0.94340  0.65440  0.30040  Biso   1.000  C
  C330     1.0000 0.05660  0.34560  0.30040  Biso   1.000  C
  C331     1.0000 0.94340  0.84560  0.44960  Biso   1.000  C
  C332     1.0000 0.05660  0.15440  0.44960  Biso   1.000  C
  C333     1.0000 0.65440  0.44340  0.05040  Biso   1.000  C
  C334     1.0000 0.34560  0.55660  0.05040  Biso   1.000  C
  C335     1.0000 0.34560  0.94340  0.69960  Biso   1.000  C
  C336     1.0000 0.65440  0.05660  0.69960  Biso   1.000  C
  H289     1.0000 0.47460  0.18380  0.79590  Biso   1.000  H
  H290     1.0000 0.52540  0.81620  0.79590  Biso   1.000  H
  H291     1.0000 0.47460  0.31620  0.45410  Biso   1.000  H
  H292     1.0000 0.52540  0.68380  0.45410  Biso   1.000  H
  H293     1.0000 0.18380  0.97460  0.04590  Biso   1.000  H
  H294     1.0000 0.81620  0.02540  0.04590  Biso   1.000  H
  H295     1.0000 0.81620  0.47460  0.20410  Biso   1.000  H
  H296     1.0000 0.18380  0.52540  0.20410  Biso   1.000  H
  H297     1.0000 0.97460  0.68380  0.29590  Biso   1.000  H
  H298     1.0000 0.02540  0.31620  0.29590  Biso   1.000  H
  H299     1.0000 0.97460  0.81620  0.45410  Biso   1.000  H
  H300     1.0000 0.02540  0.18380  0.45410  Biso   1.000  H
  H301     1.0000 0.68380  0.47460  0.04590  Biso   1.000  H
  H302     1.0000 0.31620  0.52540  0.04590  Biso   1.000  H
  H303     1.0000 0.31620  0.97460  0.70410  Biso   1.000  H
  H304     1.0000 0.68380  0.02540  0.70410  Biso   1.000  H
  C337     1.0000 0.38390  0.16630  0.79090  Biso   1.000  C
  C338     1.0000 0.61610  0.83370  0.79090  Biso   1.000  C
  C339     1.0000 0.38390  0.33370  0.45910  Biso   1.000  C
  C340     1.0000 0.61610  0.66630  0.45910  Biso   1.000  C
  C341     1.0000 0.16630  0.88390  0.04090  Biso   1.000  C
  C342     1.0000 0.83370  0.11610  0.04090  Biso   1.000  C
  C343     1.0000 0.83370  0.38390  0.20910  Biso   1.000  C
  C344     1.0000 0.16630  0.61610  0.20910  Biso   1.000  C
  C345     1.0000 0.88390  0.66630  0.29090  Biso   1.000  C
  C346     1.0000 0.11610  0.33370  0.29090  Biso   1.000  C
  C347     1.0000 0.88390  0.83370  0.45910  Biso   1.000  C
  C348     1.0000 0.11610  0.16630  0.45910  Biso   1.000  C
  C349     1.0000 0.66630  0.38390  0.04090  Biso   1.000  C
  C350     1.0000 0.33370  0.61610  0.04090  Biso   1.000  C
  C351     1.0000 0.33370  0.88390  0.70910  Biso   1.000  C
  C352     1.0000 0.66630  0.11610  0.70910  Biso   1.000  C
  H305     1.0000 0.37480  0.20730  0.78320  Biso   1.000  H
  H306     1.0000 0.62520  0.79270  0.78320  Biso   1.000  H
  H307     1.0000 0.37480  0.29270  0.46680  Biso   1.000  H
  H308     1.0000 0.62520  0.70730  0.46680  Biso   1.000  H
  H309     1.0000 0.20730  0.87480  0.03320  Biso   1.000  H
  H310     1.0000 0.79270  0.12520  0.03320  Biso   1.000  H
  H311     1.0000 0.79270  0.37480  0.21680  Biso   1.000  H
  H312     1.0000 0.20730  0.62520  0.21680  Biso   1.000  H
  H313     1.0000 0.87480  0.70730  0.28320  Biso   1.000  H
  H314     1.0000 0.12520  0.29270  0.28320  Biso   1.000  H
  H315     1.0000 0.87480  0.79270  0.46680  Biso   1.000  H
  H316     1.0000 0.12520  0.20730  0.46680  Biso   1.000  H
  H317     1.0000 0.70730  0.37480  0.03320  Biso   1.000  H
  H318     1.0000 0.29270  0.62520  0.03320  Biso   1.000  H
  H319     1.0000 0.29270  0.87480  0.71680  Biso   1.000  H
  H320     1.0000 0.70730  0.12520  0.71680  Biso   1.000  H
  N33      1.0000 0.23890  0.05580  0.79600  Biso   1.000  N
  N34      1.0000 0.76110  0.94420  0.79600  Biso   1.000  N
  N35      1.0000 0.23890  0.44420  0.45400  Biso   1.000  N
  N36      1.0000 0.76110  0.55580  0.45400  Biso   1.000  N
  N37      1.0000 0.05580  0.73890  0.04600  Biso   1.000  N
  N38      1.0000 0.94420  0.26110  0.04600  Biso   1.000  N
  N39      1.0000 0.94420  0.23890  0.20400  Biso   1.000  N
  N40      1.0000 0.05580  0.76110  0.20400  Biso   1.000  N
  N41      1.0000 0.73890  0.55580  0.29600  Biso   1.000  N
  N42      1.0000 0.26110  0.44420  0.29600  Biso   1.000  N
  N43      1.0000 0.73890  0.94420  0.45400  Biso   1.000  N
  N44      1.0000 0.26110  0.05580  0.45400  Biso   1.000  N
  N45      1.0000 0.55580  0.23890  0.04600  Biso   1.000  N
  N46      1.0000 0.44420  0.76110  0.04600  Biso   1.000  N
  N47      1.0000 0.44420  0.73890  0.70400  Biso   1.000  N
  N48      1.0000 0.55580  0.26110  0.70400  Biso   1.000  N
  N49      1.0000 0.33730  0.12830  0.79100  Biso   1.000  N
  N50      1.0000 0.66270  0.87170  0.79100  Biso   1.000  N
  N51      1.0000 0.33730  0.37170  0.45900  Biso   1.000  N
  N52      1.0000 0.66270  0.62830  0.45900  Biso   1.000  N
  N53      1.0000 0.12830  0.83730  0.04100  Biso   1.000  N
  N54      1.0000 0.87170  0.16270  0.04100  Biso   1.000  N
  N55      1.0000 0.87170  0.33730  0.20900  Biso   1.000  N
  N56      1.0000 0.12830  0.66270  0.20900  Biso   1.000  N
  N57      1.0000 0.83730  0.62830  0.29100  Biso   1.000  N
  N58      1.0000 0.16270  0.37170  0.29100  Biso   1.000  N
  N59      1.0000 0.83730  0.87170  0.45900  Biso   1.000  N
  N60      1.0000 0.16270  0.12830  0.45900  Biso   1.000  N
  N61      1.0000 0.62830  0.33730  0.04100  Biso   1.000  N
  N62      1.0000 0.37170  0.66270  0.04100  Biso   1.000  N
  N63      1.0000 0.37170  0.83730  0.70900  Biso   1.000  N
  N64      1.0000 0.62830  0.16270  0.70900  Biso   1.000  N
  B1       1.0000 0.30590  0.10820  0.66440  Biso   1.000  B
  B2       1.0000 0.69410  0.89180  0.66440  Biso   1.000  B
  B3       1.0000 0.30590  0.39180  0.58560  Biso   1.000  B
  B4       1.0000 0.69410  0.60820  0.58560  Biso   1.000  B
  B5       1.0000 0.10820  0.80590  0.91440  Biso   1.000  B
  B6       1.0000 0.89180  0.19410  0.91440  Biso   1.000  B
  B7       1.0000 0.89180  0.30590  0.33560  Biso   1.000  B
  B8       1.0000 0.10820  0.69410  0.33560  Biso   1.000  B
  B9       1.0000 0.80590  0.60820  0.16440  Biso   1.000  B
  B10      1.0000 0.19410  0.39180  0.16440  Biso   1.000  B
  B11      1.0000 0.80590  0.89180  0.58560  Biso   1.000  B
  B12      1.0000 0.19410  0.10820  0.58560  Biso   1.000  B
  B13      1.0000 0.60820  0.30590  0.91440  Biso   1.000  B
  B14      1.0000 0.39180  0.69410  0.91440  Biso   1.000  B
  B15      1.0000 0.39180  0.80590  0.83560  Biso   1.000  B
  B16      1.0000 0.60820  0.19410  0.83560  Biso   1.000  B
  B17      1.0000 0.50000  0.00000  0.56730  Biso   1.000  B
  B18      1.0000 0.50000  0.50000  0.68270  Biso   1.000  B
  B19      1.0000 0.00000  0.00000  0.81730  Biso   1.000  B
  B20      1.0000 0.00000  0.50000  0.43270  Biso   1.000  B
  B21      1.0000 0.00000  0.50000  0.06730  Biso   1.000  B
  B22      1.0000 0.00000  0.00000  0.68270  Biso   1.000  B
  B23      1.0000 0.50000  0.50000  0.81730  Biso   1.000  B
  B24      1.0000 0.50000  0.00000  0.93270  Biso   1.000  B
  F1       1.0000 0.26190  0.10930  0.69750  Biso   1.000  F
  F2       1.0000 0.73810  0.89070  0.69750  Biso   1.000  F
  F3       1.0000 0.26190  0.39070  0.55250  Biso   1.000  F
  F4       1.0000 0.73810  0.60930  0.55250  Biso   1.000  F
  F5       1.0000 0.10930  0.76190  0.94750  Biso   1.000  F
  F6       1.0000 0.89070  0.23810  0.94750  Biso   1.000  F
  F7       1.0000 0.89070  0.26190  0.30250  Biso   1.000  F
  F8       1.0000 0.10930  0.73810  0.30250  Biso   1.000  F
  F9       1.0000 0.76190  0.60930  0.19750  Biso   1.000  F
  F10      1.0000 0.23810  0.39070  0.19750  Biso   1.000  F
  F11      1.0000 0.76190  0.89070  0.55250  Biso   1.000  F
  F12      1.0000 0.23810  0.10930  0.55250  Biso   1.000  F
  F13      1.0000 0.60930  0.26190  0.94750  Biso   1.000  F
  F14      1.0000 0.39070  0.73810  0.94750  Biso   1.000  F
  F15      1.0000 0.39070  0.76190  0.80250  Biso   1.000  F
  F16      1.0000 0.60930  0.23810  0.80250  Biso   1.000  F
  F17      1.0000 0.36110  0.09520  0.68560  Biso   1.000  F
  F18      1.0000 0.63890  0.90480  0.68560  Biso   1.000  F
  F19      1.0000 0.36110  0.40480  0.56440  Biso   1.000  F
  F20      1.0000 0.63890  0.59520  0.56440  Biso   1.000  F
  F21      1.0000 0.09520  0.86110  0.93560  Biso   1.000  F
  F22      1.0000 0.90480  0.13890  0.93560  Biso   1.000  F
  F23      1.0000 0.90480  0.36110  0.31440  Biso   1.000  F
  F24      1.0000 0.09520  0.63890  0.31440  Biso   1.000  F
  F25      1.0000 0.86110  0.59520  0.18560  Biso   1.000  F
  F26      1.0000 0.13890  0.40480  0.18560  Biso   1.000  F
  F27      1.0000 0.86110  0.90480  0.56440  Biso   1.000  F
  F28      1.0000 0.13890  0.09520  0.56440  Biso   1.000  F
  F29      1.0000 0.59520  0.36110  0.93560  Biso   1.000  F
  F30      1.0000 0.40480  0.63890  0.93560  Biso   1.000  F
  F31      1.0000 0.40480  0.86110  0.81440  Biso   1.000  F
  F32      1.0000 0.59520  0.13890  0.81440  Biso   1.000  F
  F33      1.0000 0.31130  0.16430  0.64420  Biso   1.000  F
  F34      1.0000 0.68870  0.83570  0.64420  Biso   1.000  F
  F35      1.0000 0.31130  0.33570  0.60580  Biso   1.000  F
  F36      1.0000 0.68870  0.66430  0.60580  Biso   1.000  F
  F37      1.0000 0.16430  0.81130  0.89420  Biso   1.000  F
  F38      1.0000 0.83570  0.18870  0.89420  Biso   1.000  F
  F39      1.0000 0.83570  0.31130  0.35580  Biso   1.000  F
  F40      1.0000 0.16430  0.68870  0.35580  Biso   1.000  F
  F41      1.0000 0.81130  0.66430  0.14420  Biso   1.000  F
  F42      1.0000 0.18870  0.33570  0.14420  Biso   1.000  F
  F43      1.0000 0.81130  0.83570  0.60580  Biso   1.000  F
  F44      1.0000 0.18870  0.16430  0.60580  Biso   1.000  F
  F45      1.0000 0.66430  0.31130  0.89420  Biso   1.000  F
  F46      1.0000 0.33570  0.68870  0.89420  Biso   1.000  F
  F47      1.0000 0.33570  0.81130  0.85580  Biso   1.000  F
  F48      1.0000 0.66430  0.18870  0.85580  Biso   1.000  F
  F49      1.0000 0.29160  0.06490  0.63300  Biso   1.000  F
  F50      1.0000 0.70840  0.93510  0.63300  Biso   1.000  F
  F51      1.0000 0.29160  0.43510  0.61700  Biso   1.000  F
  F52      1.0000 0.70840  0.56490  0.61700  Biso   1.000  F
  F53      1.0000 0.06490  0.79160  0.88300  Biso   1.000  F
  F54      1.0000 0.93510  0.20840  0.88300  Biso   1.000  F
  F55      1.0000 0.93510  0.29160  0.36700  Biso   1.000  F
  F56      1.0000 0.06490  0.70840  0.36700  Biso   1.000  F
  F57      1.0000 0.79160  0.56490  0.13300  Biso   1.000  F
  F58      1.0000 0.20840  0.43510  0.13300  Biso   1.000  F
  F59      1.0000 0.79160  0.93510  0.61700  Biso   1.000  F
  F60      1.0000 0.20840  0.06490  0.61700  Biso   1.000  F
  F61      1.0000 0.56490  0.29160  0.88300  Biso   1.000  F
  F62      1.0000 0.43510  0.70840  0.88300  Biso   1.000  F
  F63      1.0000 0.43510  0.79160  0.86700  Biso   1.000  F
  F64      1.0000 0.56490  0.20840  0.86700  Biso   1.000  F
  F65      1.0000 0.54100  0.96910  0.59410  Biso   1.000  F
  F66      1.0000 0.45900  0.03090  0.59410  Biso   1.000  F
  F67      1.0000 0.54100  0.53090  0.65590  Biso   1.000  F
  F68      1.0000 0.45900  0.46910  0.65590  Biso   1.000  F
  F69      1.0000 0.96910  0.04100  0.84410  Biso   1.000  F
  F70      1.0000 0.03090  0.95900  0.84410  Biso   1.000  F
  F71      1.0000 0.03090  0.54100  0.40590  Biso   1.000  F
  F72      1.0000 0.96910  0.45900  0.40590  Biso   1.000  F
  F73      1.0000 0.04100  0.46910  0.09410  Biso   1.000  F
  F74      1.0000 0.95900  0.53090  0.09410  Biso   1.000  F
  F75      1.0000 0.04100  0.03090  0.65590  Biso   1.000  F
  F76      1.0000 0.95900  0.96910  0.65590  Biso   1.000  F
  F77      1.0000 0.46910  0.54100  0.84410  Biso   1.000  F
  F78      1.0000 0.53090  0.45900  0.84410  Biso   1.000  F
  F79      1.0000 0.53090  0.04100  0.90590  Biso   1.000  F
  F80      1.0000 0.46910  0.95900  0.90590  Biso   1.000  F
  F81      1.0000 0.46930  0.95910  0.54080  Biso   1.000  F
  F82      1.0000 0.53070  0.04090  0.54080  Biso   1.000  F
  F83      1.0000 0.46930  0.54090  0.70920  Biso   1.000  F
  F84      1.0000 0.53070  0.45910  0.70920  Biso   1.000  F
  F85      1.0000 0.95910  0.96930  0.79080  Biso   1.000  F
  F86      1.0000 0.04090  0.03070  0.79080  Biso   1.000  F
  F87      1.0000 0.04090  0.46930  0.45920  Biso   1.000  F
  F88      1.0000 0.95910  0.53070  0.45920  Biso   1.000  F
  F89      1.0000 0.96930  0.45910  0.04080  Biso   1.000  F
  F90      1.0000 0.03070  0.54090  0.04080  Biso   1.000  F
  F91      1.0000 0.96930  0.04090  0.70920  Biso   1.000  F
  F92      1.0000 0.03070  0.95910  0.70920  Biso   1.000  F
  F93      1.0000 0.45910  0.46930  0.79080  Biso   1.000  F
  F94      1.0000 0.54090  0.53070  0.79080  Biso   1.000  F
  F95      1.0000 0.54090  0.96930  0.95920  Biso   1.000  F
  F96      1.0000 0.45910  0.03070  0.95920  Biso   1.000  F
  Cl1      1.0000 0.25000  0.16475  0.87500  Biso   1.000  Cl
  Cl2      1.0000 0.75000  0.83525  0.87500  Biso   1.000  Cl
  Cl3      1.0000 0.25000  0.33525  0.37500  Biso   1.000  Cl
  Cl4      1.0000 0.75000  0.66475  0.37500  Biso   1.000  Cl
  Cl5      1.0000 0.16475  0.75000  0.12500  Biso   1.000  Cl
  Cl6      1.0000 0.83525  0.25000  0.12500  Biso   1.000  Cl
  Cl7      1.0000 0.75000  0.83525  0.37500  Biso   1.000  Cl
  Cl8      1.0000 0.25000  0.16475  0.37500  Biso   1.000  Cl
  Cl9      1.0000 0.66475  0.25000  0.12500  Biso   1.000  Cl
  Cl10     1.0000 0.33525  0.75000  0.12500  Biso   1.000  Cl
  Cl11     1.0000 0.33525  0.75000  0.62500  Biso   1.000  Cl
  Cl12     1.0000 0.66475  0.25000  0.62500  Biso   1.000  Cl
  Cu1      1.0000 0.24658  0.14836  0.78773  Biso   1.000  Cu
  Cu2      1.0000 0.75342  0.85164  0.78773  Biso   1.000  Cu
  Cu3      1.0000 0.24658  0.35164  0.46227  Biso   1.000  Cu
  Cu4      1.0000 0.75342  0.64836  0.46227  Biso   1.000  Cu
  Cu5      1.0000 0.14836  0.74658  0.03773  Biso   1.000  Cu
  Cu6      1.0000 0.85164  0.25342  0.03773  Biso   1.000  Cu
  Cu7      1.0000 0.85164  0.24658  0.21227  Biso   1.000  Cu
  Cu8      1.0000 0.14836  0.75342  0.21227  Biso   1.000  Cu
  Cu9      1.0000 0.74658  0.64836  0.28773  Biso   1.000  Cu
  Cu10     1.0000 0.25342  0.35164  0.28773  Biso   1.000  Cu
  Cu11     1.0000 0.74658  0.85164  0.46227  Biso   1.000  Cu
  Cu12     1.0000 0.25342  0.14836  0.46227  Biso   1.000  Cu
  Cu13     1.0000 0.64836  0.24658  0.03773  Biso   1.000  Cu
  Cu14     1.0000 0.35164  0.75342  0.03773  Biso   1.000  Cu
  Cu15     1.0000 0.35164  0.74658  0.71227  Biso   1.000  Cu
  Cu16     1.0000 0.64836  0.25342  0.71227  Biso   1.000  Cu
  N65      1.0000 0.34010  0.84620  0.52930  Biso   1.000  N
  N66      1.0000 0.65990  0.15380  0.52930  Biso   1.000  N
  N67      1.0000 0.65380  0.84010  0.97070  Biso   1.000  N
  N68      1.0000 0.34620  0.15990  0.97070  Biso   1.000  N
  N69      1.0000 0.84010  0.34620  0.52930  Biso   1.000  N
  N70      1.0000 0.15990  0.65380  0.52930  Biso   1.000  N
  N71      1.0000 0.15380  0.34010  0.97070  Biso   1.000  N
  N72      1.0000 0.84620  0.65990  0.97070  Biso   1.000  N
  C353     1.0000 0.33190  0.88350  0.56280  Biso   1.000  C
  C354     1.0000 0.66810  0.11650  0.56280  Biso   1.000  C
  C355     1.0000 0.61650  0.83190  0.93720  Biso   1.000  C
  C356     1.0000 0.38350  0.16810  0.93720  Biso   1.000  C
  C357     1.0000 0.83190  0.38350  0.56280  Biso   1.000  C
  C358     1.0000 0.16810  0.61650  0.56280  Biso   1.000  C
  C359     1.0000 0.11650  0.33190  0.93720  Biso   1.000  C
  C360     1.0000 0.88350  0.66810  0.93720  Biso   1.000  C
  H321     1.0000 0.32980  0.86690  0.59210  Biso   1.000  H
  H322     1.0000 0.67020  0.13310  0.59210  Biso   1.000  H
  H323     1.0000 0.63310  0.82980  0.90790  Biso   1.000  H
  H324     1.0000 0.36690  0.17020  0.90790  Biso   1.000  H
  H325     1.0000 0.82980  0.36690  0.59210  Biso   1.000  H
  H326     1.0000 0.17020  0.63310  0.59210  Biso   1.000  H
  H327     1.0000 0.13310  0.32980  0.90790  Biso   1.000  H
  H328     1.0000 0.86690  0.67020  0.90790  Biso   1.000  H
  C361     1.0000 0.32600  0.94770  0.55780  Biso   1.000  C
  C362     1.0000 0.67400  0.05230  0.55780  Biso   1.000  C
  C363     1.0000 0.55230  0.82600  0.94220  Biso   1.000  C
  C364     1.0000 0.44770  0.17400  0.94220  Biso   1.000  C
  C365     1.0000 0.82600  0.44770  0.55780  Biso   1.000  C
  C366     1.0000 0.17400  0.55230  0.55780  Biso   1.000  C
  C367     1.0000 0.05230  0.32600  0.94220  Biso   1.000  C
  C368     1.0000 0.94770  0.67400  0.94220  Biso   1.000  C
  H329     1.0000 0.31990  0.97180  0.58380  Biso   1.000  H
  H330     1.0000 0.68010  0.02820  0.58380  Biso   1.000  H
  H331     1.0000 0.52820  0.81990  0.91620  Biso   1.000  H
  H332     1.0000 0.47180  0.18010  0.91620  Biso   1.000  H
  H333     1.0000 0.81990  0.47180  0.58380  Biso   1.000  H
  H334     1.0000 0.18010  0.52820  0.58380  Biso   1.000  H
  H335     1.0000 0.02820  0.31990  0.91620  Biso   1.000  H
  H336     1.0000 0.97180  0.68010  0.91620  Biso   1.000  H
  C369     1.0000 0.32870  0.97670  0.51660  Biso   1.000  C
  C370     1.0000 0.67130  0.02330  0.51660  Biso   1.000  C
  C371     1.0000 0.52330  0.82870  0.98340  Biso   1.000  C
  C372     1.0000 0.47670  0.17130  0.98340  Biso   1.000  C
  C373     1.0000 0.82870  0.47670  0.51660  Biso   1.000  C
  C374     1.0000 0.17130  0.52330  0.51660  Biso   1.000  C
  C375     1.0000 0.02330  0.32870  0.98340  Biso   1.000  C
  C376     1.0000 0.97670  0.67130  0.98340  Biso   1.000  C
  C377     1.0000 0.33570  0.93430  0.47910  Biso   1.000  C
  C378     1.0000 0.66430  0.06570  0.47910  Biso   1.000  C
  C379     1.0000 0.56570  0.83570  0.02090  Biso   1.000  C
  C380     1.0000 0.43430  0.16430  0.02090  Biso   1.000  C
  C381     1.0000 0.83570  0.43430  0.47910  Biso   1.000  C
  C382     1.0000 0.16430  0.56570  0.47910  Biso   1.000  C
  C383     1.0000 0.06570  0.33570  0.02090  Biso   1.000  C
  C384     1.0000 0.93430  0.66430  0.02090  Biso   1.000  C
  H337     1.0000 0.33450  0.94920  0.44940  Biso   1.000  H
  H338     1.0000 0.66550  0.05080  0.44940  Biso   1.000  H
  H339     1.0000 0.55080  0.83450  0.05060  Biso   1.000  H
  H340     1.0000 0.44920  0.16550  0.05060  Biso   1.000  H
  H341     1.0000 0.83450  0.44920  0.44940  Biso   1.000  H
  H342     1.0000 0.16550  0.55080  0.44940  Biso   1.000  H
  H343     1.0000 0.05080  0.33450  0.05060  Biso   1.000  H
  H344     1.0000 0.94920  0.66550  0.05060  Biso   1.000  H
  C385     1.0000 0.34450  0.86970  0.48710  Biso   1.000  C
  C386     1.0000 0.65550  0.13030  0.48710  Biso   1.000  C
  C387     1.0000 0.63030  0.84450  0.01290  Biso   1.000  C
  C388     1.0000 0.36970  0.15550  0.01290  Biso   1.000  C
  C389     1.0000 0.84450  0.36970  0.48710  Biso   1.000  C
  C390     1.0000 0.15550  0.63030  0.48710  Biso   1.000  C
  C391     1.0000 0.13030  0.34450  0.01290  Biso   1.000  C
  C392     1.0000 0.86970  0.65550  0.01290  Biso   1.000  C
  H345     1.0000 0.35340  0.84340  0.46270  Biso   1.000  H
  H346     1.0000 0.64660  0.15660  0.46270  Biso   1.000  H
  H347     1.0000 0.65660  0.85340  0.03730  Biso   1.000  H
  H348     1.0000 0.34340  0.14660  0.03730  Biso   1.000  H
  H349     1.0000 0.85340  0.34340  0.46270  Biso   1.000  H
  H350     1.0000 0.14660  0.65660  0.46270  Biso   1.000  H
  H351     1.0000 0.15660  0.35340  0.03730  Biso   1.000  H
  H352     1.0000 0.84340  0.64660  0.03730  Biso   1.000  H
  C393     1.0000 0.32920  0.04780  0.51130  Biso   1.000  C
  C394     1.0000 0.67080  0.95220  0.51130  Biso   1.000  C
  C395     1.0000 0.45220  0.82920  0.98870  Biso   1.000  C
  C396     1.0000 0.54780  0.17080  0.98870  Biso   1.000  C
  C397     1.0000 0.82920  0.54780  0.51130  Biso   1.000  C
  C398     1.0000 0.17080  0.45220  0.51130  Biso   1.000  C
  C399     1.0000 0.95220  0.32920  0.98870  Biso   1.000  C
  C400     1.0000 0.04780  0.67080  0.98870  Biso   1.000  C
  H353     1.0000 0.34290  0.05940  0.48100  Biso   1.000  H
  H354     1.0000 0.65710  0.94060  0.48100  Biso   1.000  H
  H355     1.0000 0.44060  0.84290  0.01900  Biso   1.000  H
  H356     1.0000 0.55940  0.15710  0.01900  Biso   1.000  H
  H357     1.0000 0.84290  0.55940  0.48100  Biso   1.000  H
  H358     1.0000 0.15710  0.44060  0.48100  Biso   1.000  H
  H359     1.0000 0.94060  0.34290  0.01900  Biso   1.000  H
  H360     1.0000 0.05940  0.65710  0.01900  Biso   1.000  H
  H361     1.0000 0.35690  0.06650  0.53360  Biso   1.000  H
  H362     1.0000 0.64310  0.93350  0.53360  Biso   1.000  H
  H363     1.0000 0.43350  0.85690  0.96640  Biso   1.000  H
  H364     1.0000 0.56650  0.14310  0.96640  Biso   1.000  H
  H365     1.0000 0.85690  0.56650  0.53360  Biso   1.000  H
  H366     1.0000 0.14310  0.43350  0.53360  Biso   1.000  H
  H367     1.0000 0.93350  0.35690  0.96640  Biso   1.000  H
  H368     1.0000 0.06650  0.64310  0.96640  Biso   1.000  H
  N73      1.0000 0.25860  0.26030  0.47970  Biso   1.000  N
  N74      1.0000 0.74140  0.73970  0.47970  Biso   1.000  N
  N75      1.0000 0.23970  0.75860  0.02030  Biso   1.000  N
  N76      1.0000 0.76030  0.24140  0.02030  Biso   1.000  N
  N77      1.0000 0.75860  0.76030  0.47970  Biso   1.000  N
  N78      1.0000 0.24140  0.23970  0.47970  Biso   1.000  N
  N79      1.0000 0.73970  0.25860  0.02030  Biso   1.000  N
  N80      1.0000 0.26030  0.74140  0.02030  Biso   1.000  N
  C401     1.0000 0.26690  0.24370  0.52260  Biso   1.000  C
  C402     1.0000 0.73310  0.75630  0.52260  Biso   1.000  C
  C403     1.0000 0.25630  0.76690  0.97740  Biso   1.000  C
  C404     1.0000 0.74370  0.23310  0.97740  Biso   1.000  C
  C405     1.0000 0.76690  0.74370  0.52260  Biso   1.000  C
  C406     1.0000 0.23310  0.25630  0.52260  Biso   1.000  C
  C407     1.0000 0.75630  0.26690  0.97740  Biso   1.000  C
  C408     1.0000 0.24370  0.73310  0.97740  Biso   1.000  C
  H369     1.0000 0.27020  0.27490  0.54460  Biso   1.000  H
  H370     1.0000 0.72980  0.72510  0.54460  Biso   1.000  H
  H371     1.0000 0.22510  0.77020  0.95540  Biso   1.000  H
  H372     1.0000 0.77490  0.22980  0.95540  Biso   1.000  H
  H373     1.0000 0.77020  0.77490  0.54460  Biso   1.000  H
  H374     1.0000 0.22980  0.22510  0.54460  Biso   1.000  H
  H375     1.0000 0.72510  0.27020  0.95540  Biso   1.000  H
  H376     1.0000 0.27490  0.72980  0.95540  Biso   1.000  H
  C409     1.0000 0.27100  0.18340  0.53660  Biso   1.000  C
  C410     1.0000 0.72900  0.81660  0.53660  Biso   1.000  C
  C411     1.0000 0.31660  0.77100  0.96340  Biso   1.000  C
  C412     1.0000 0.68340  0.22900  0.96340  Biso   1.000  C
  C413     1.0000 0.77100  0.68340  0.53660  Biso   1.000  C
  C414     1.0000 0.22900  0.31660  0.53660  Biso   1.000  C
  C415     1.0000 0.81660  0.27100  0.96340  Biso   1.000  C
  C416     1.0000 0.18340  0.72900  0.96340  Biso   1.000  C
  H377     1.0000 0.27930  0.17370  0.56690  Biso   1.000  H
  H378     1.0000 0.72070  0.82630  0.56690  Biso   1.000  H
  H379     1.0000 0.32630  0.77930  0.93310  Biso   1.000  H
  H380     1.0000 0.67370  0.22070  0.93310  Biso   1.000  H
  H381     1.0000 0.77930  0.67370  0.56690  Biso   1.000  H
  H382     1.0000 0.22070  0.32630  0.56690  Biso   1.000  H
  H383     1.0000 0.82630  0.27930  0.93310  Biso   1.000  H
  H384     1.0000 0.17370  0.72070  0.93310  Biso   1.000  H
  C417     1.0000 0.26250  0.13710  0.50480  Biso   1.000  C
  C418     1.0000 0.73750  0.86290  0.50480  Biso   1.000  C
  C419     1.0000 0.36290  0.76250  0.99520  Biso   1.000  C
  C420     1.0000 0.63710  0.23750  0.99520  Biso   1.000  C
  C421     1.0000 0.76250  0.63710  0.50480  Biso   1.000  C
  C422     1.0000 0.23750  0.36290  0.50480  Biso   1.000  C
  C423     1.0000 0.86290  0.26250  0.99520  Biso   1.000  C
  C424     1.0000 0.13710  0.73750  0.99520  Biso   1.000  C
  C425     1.0000 0.25980  0.15470  0.46120  Biso   1.000  C
  C426     1.0000 0.74020  0.84530  0.46120  Biso   1.000  C
  C427     1.0000 0.34530  0.75980  0.03880  Biso   1.000  C
  C428     1.0000 0.65470  0.24020  0.03880  Biso   1.000  C
  C429     1.0000 0.75980  0.65470  0.46120  Biso   1.000  C
  C430     1.0000 0.24020  0.34530  0.46120  Biso   1.000  C
  C431     1.0000 0.84530  0.25980  0.03880  Biso   1.000  C
  C432     1.0000 0.15470  0.74020  0.03880  Biso   1.000  C
  H385     1.0000 0.25990  0.12490  0.43810  Biso   1.000  H
  H386     1.0000 0.74010  0.87510  0.43810  Biso   1.000  H
  H387     1.0000 0.37510  0.75990  0.06190  Biso   1.000  H
  H388     1.0000 0.62490  0.24010  0.06190  Biso   1.000  H
  H389     1.0000 0.75990  0.62490  0.43810  Biso   1.000  H
  H390     1.0000 0.24010  0.37510  0.43810  Biso   1.000  H
  H391     1.0000 0.87510  0.25990  0.06190  Biso   1.000  H
  H392     1.0000 0.12490  0.74010  0.06190  Biso   1.000  H
  C433     1.0000 0.25700  0.21850  0.45010  Biso   1.000  C
  C434     1.0000 0.74300  0.78150  0.45010  Biso   1.000  C
  C435     1.0000 0.28150  0.75700  0.04990  Biso   1.000  C
  C436     1.0000 0.71850  0.24300  0.04990  Biso   1.000  C
  C437     1.0000 0.75700  0.71850  0.45010  Biso   1.000  C
  C438     1.0000 0.24300  0.28150  0.45010  Biso   1.000  C
  C439     1.0000 0.78150  0.25700  0.04990  Biso   1.000  C
  C440     1.0000 0.21850  0.74300  0.04990  Biso   1.000  C
  H393     1.0000 0.25380  0.22990  0.41960  Biso   1.000  H
  H394     1.0000 0.74620  0.77010  0.41960  Biso   1.000  H
  H395     1.0000 0.27010  0.75380  0.08040  Biso   1.000  H
  H396     1.0000 0.72990  0.24620  0.08040  Biso   1.000  H
  H397     1.0000 0.75380  0.72990  0.41960  Biso   1.000  H
  H398     1.0000 0.24620  0.27010  0.41960  Biso   1.000  H
  H399     1.0000 0.77010  0.25380  0.08040  Biso   1.000  H
  H400     1.0000 0.22990  0.74620  0.08040  Biso   1.000  H
  C441     1.0000 0.26240  0.06910  0.51930  Biso   1.000  C
  C442     1.0000 0.73760  0.93090  0.51930  Biso   1.000  C
  C443     1.0000 0.43090  0.76240  0.98070  Biso   1.000  C
  C444     1.0000 0.56910  0.23760  0.98070  Biso   1.000  C
  C445     1.0000 0.76240  0.56910  0.51930  Biso   1.000  C
  C446     1.0000 0.23760  0.43090  0.51930  Biso   1.000  C
  C447     1.0000 0.93090  0.26240  0.98070  Biso   1.000  C
  C448     1.0000 0.06910  0.73760  0.98070  Biso   1.000  C
  H401     1.0000 0.23350  0.04510  0.50100  Biso   1.000  H
  H402     1.0000 0.76650  0.95490  0.50100  Biso   1.000  H
  H403     1.0000 0.45490  0.73350  0.99900  Biso   1.000  H
  H404     1.0000 0.54510  0.26650  0.99900  Biso   1.000  H
  H405     1.0000 0.73350  0.54510  0.50100  Biso   1.000  H
  H406     1.0000 0.26650  0.45490  0.50100  Biso   1.000  H
  H407     1.0000 0.95490  0.23350  0.99900  Biso   1.000  H
  H408     1.0000 0.04510  0.76650  0.99900  Biso   1.000  H
  H409     1.0000 0.25100  0.06500  0.55120  Biso   1.000  H
  H410     1.0000 0.74900  0.93500  0.55120  Biso   1.000  H
  H411     1.0000 0.43500  0.75100  0.94880  Biso   1.000  H
  H412     1.0000 0.56500  0.24900  0.94880  Biso   1.000  H
  H413     1.0000 0.75100  0.56500  0.55120  Biso   1.000  H
  H414     1.0000 0.24900  0.43500  0.55120  Biso   1.000  H
  H415     1.0000 0.93500  0.25100  0.94880  Biso   1.000  H
  H416     1.0000 0.06500  0.74900  0.94880  Biso   1.000  H
  Cu17     1.0000 0.35164  0.75342  0.53773  Biso   1.000  Cu
  Cu18     1.0000 0.64836  0.24658  0.53773  Biso   1.000  Cu
  Cu19     1.0000 0.74658  0.85164  0.96227  Biso   1.000  Cu
  Cu20     1.0000 0.25342  0.14836  0.96227  Biso   1.000  Cu
  Cu21     1.0000 0.85164  0.25342  0.53773  Biso   1.000  Cu
  Cu22     1.0000 0.14836  0.74658  0.53773  Biso   1.000  Cu
  Cu23     1.0000 0.24658  0.35164  0.96227  Biso   1.000  Cu
  Cu24     1.0000 0.75342  0.64836  0.96227  Biso   1.000  Cu
  C449     1.0000 0.47630  0.81400  0.55130  Biso   1.000  C
  C450     1.0000 0.52370  0.18600  0.55130  Biso   1.000  C
  C451     1.0000 0.68600  0.97630  0.94870  Biso   1.000  C
  C452     1.0000 0.31400  0.02370  0.94870  Biso   1.000  C
  C453     1.0000 0.97630  0.31400  0.55130  Biso   1.000  C
  C454     1.0000 0.02370  0.68600  0.55130  Biso   1.000  C
  C455     1.0000 0.18600  0.47630  0.94870  Biso   1.000  C
  C456     1.0000 0.81400  0.52370  0.94870  Biso   1.000  C
  H417     1.0000 0.45650  0.85240  0.54910  Biso   1.000  H
  H418     1.0000 0.54350  0.14760  0.54910  Biso   1.000  H
  H419     1.0000 0.64760  0.95650  0.95090  Biso   1.000  H
  H420     1.0000 0.35240  0.04350  0.95090  Biso   1.000  H
  H421     1.0000 0.95650  0.35240  0.54910  Biso   1.000  H
  H422     1.0000 0.04350  0.64760  0.54910  Biso   1.000  H
  H423     1.0000 0.14760  0.45650  0.95090  Biso   1.000  H
  H424     1.0000 0.85240  0.54350  0.95090  Biso   1.000  H
  C457     1.0000 0.54210  0.81030  0.56060  Biso   1.000  C
  C458     1.0000 0.45790  0.18970  0.56060  Biso   1.000  C
  C459     1.0000 0.68970  0.04210  0.93940  Biso   1.000  C
  C460     1.0000 0.31030  0.95790  0.93940  Biso   1.000  C
  C461     1.0000 0.04210  0.31030  0.56060  Biso   1.000  C
  C462     1.0000 0.95790  0.68970  0.56060  Biso   1.000  C
  C463     1.0000 0.18970  0.54210  0.93940  Biso   1.000  C
  C464     1.0000 0.81030  0.45790  0.93940  Biso   1.000  C
  H425     1.0000 0.56570  0.84660  0.56090  Biso   1.000  H
  H426     1.0000 0.43430  0.15340  0.56090  Biso   1.000  H
  H427     1.0000 0.65340  0.06570  0.93910  Biso   1.000  H
  H428     1.0000 0.34660  0.93430  0.93910  Biso   1.000  H
  H429     1.0000 0.06570  0.34660  0.56090  Biso   1.000  H
  H430     1.0000 0.93430  0.65340  0.56090  Biso   1.000  H
  H431     1.0000 0.15340  0.56570  0.93910  Biso   1.000  H
  H432     1.0000 0.84660  0.43430  0.93910  Biso   1.000  H
  C465     1.0000 0.56820  0.75900  0.56840  Biso   1.000  C
  C466     1.0000 0.43180  0.24100  0.56840  Biso   1.000  C
  C467     1.0000 0.74100  0.06820  0.93160  Biso   1.000  C
  C468     1.0000 0.25900  0.93180  0.93160  Biso   1.000  C
  C469     1.0000 0.06820  0.25900  0.56840  Biso   1.000  C
  C470     1.0000 0.93180  0.74100  0.56840  Biso   1.000  C
  C471     1.0000 0.24100  0.56820  0.93160  Biso   1.000  C
  C472     1.0000 0.75900  0.43180  0.93160  Biso   1.000  C
  H433     1.0000 0.61030  0.75800  0.57570  Biso   1.000  H
  H434     1.0000 0.38970  0.24200  0.57570  Biso   1.000  H
  H435     1.0000 0.74200  0.11030  0.92430  Biso   1.000  H
  H436     1.0000 0.25800  0.88970  0.92430  Biso   1.000  H
  H437     1.0000 0.11030  0.25800  0.57570  Biso   1.000  H
  H438     1.0000 0.88970  0.74200  0.57570  Biso   1.000  H
  H439     1.0000 0.24200  0.61030  0.92430  Biso   1.000  H
  H440     1.0000 0.75800  0.38970  0.92430  Biso   1.000  H
  C473     1.0000 0.53330  0.70140  0.56630  Biso   1.000  C
  C474     1.0000 0.46670  0.29860  0.56630  Biso   1.000  C
  C475     1.0000 0.79860  0.03330  0.93370  Biso   1.000  C
  C476     1.0000 0.20140  0.96670  0.93370  Biso   1.000  C
  C477     1.0000 0.03330  0.20140  0.56630  Biso   1.000  C
  C478     1.0000 0.96670  0.79860  0.56630  Biso   1.000  C
  C479     1.0000 0.29860  0.53330  0.93370  Biso   1.000  C
  C480     1.0000 0.70140  0.46670  0.93370  Biso   1.000  C
  H441     1.0000 0.55130  0.66280  0.57180  Biso   1.000  H
  H442     1.0000 0.44870  0.33720  0.57180  Biso   1.000  H
  H443     1.0000 0.83720  0.05130  0.92820  Biso   1.000  H
  H444     1.0000 0.16280  0.94870  0.92820  Biso   1.000  H
  H445     1.0000 0.05130  0.16280  0.57180  Biso   1.000  H
  H446     1.0000 0.94870  0.83720  0.57180  Biso   1.000  H
  H447     1.0000 0.33720  0.55130  0.92820  Biso   1.000  H
  H448     1.0000 0.66280  0.44870  0.92820  Biso   1.000  H
  C481     1.0000 0.47320  0.70810  0.55560  Biso   1.000  C
  C482     1.0000 0.52680  0.29190  0.55560  Biso   1.000  C
  C483     1.0000 0.79190  0.97320  0.94440  Biso   1.000  C
  C484     1.0000 0.20810  0.02680  0.94440  Biso   1.000  C
  C485     1.0000 0.97320  0.20810  0.55560  Biso   1.000  C
  C486     1.0000 0.02680  0.79190  0.55560  Biso   1.000  C
  C487     1.0000 0.29190  0.47320  0.94440  Biso   1.000  C
  C488     1.0000 0.70810  0.52680  0.94440  Biso   1.000  C
  C489     1.0000 0.42960  0.65170  0.55530  Biso   1.000  C
  C490     1.0000 0.57040  0.34830  0.55530  Biso   1.000  C
  C491     1.0000 0.84830  0.92960  0.94470  Biso   1.000  C
  C492     1.0000 0.15170  0.07040  0.94470  Biso   1.000  C
  C493     1.0000 0.92960  0.15170  0.55530  Biso   1.000  C
  C494     1.0000 0.07040  0.84830  0.55530  Biso   1.000  C
  C495     1.0000 0.34830  0.42960  0.94470  Biso   1.000  C
  C496     1.0000 0.65170  0.57040  0.94470  Biso   1.000  C
  C497     1.0000 0.44650  0.59130  0.56470  Biso   1.000  C
  C498     1.0000 0.55350  0.40870  0.56470  Biso   1.000  C
  C499     1.0000 0.90870  0.94650  0.93530  Biso   1.000  C
  C500     1.0000 0.09130  0.05350  0.93530  Biso   1.000  C
  C501     1.0000 0.94650  0.09130  0.56470  Biso   1.000  C
  C502     1.0000 0.05350  0.90870  0.56470  Biso   1.000  C
  C503     1.0000 0.40870  0.44650  0.93530  Biso   1.000  C
  C504     1.0000 0.59130  0.55350  0.93530  Biso   1.000  C
  H449     1.0000 0.48820  0.58170  0.56960  Biso   1.000  H
  H450     1.0000 0.51180  0.41830  0.56960  Biso   1.000  H
  H451     1.0000 0.91830  0.98820  0.93040  Biso   1.000  H
  H452     1.0000 0.08170  0.01180  0.93040  Biso   1.000  H
  H453     1.0000 0.98820  0.08170  0.56960  Biso   1.000  H
  H454     1.0000 0.01180  0.91830  0.56960  Biso   1.000  H
  H455     1.0000 0.41830  0.48820  0.93040  Biso   1.000  H
  H456     1.0000 0.58170  0.51180  0.93040  Biso   1.000  H
  C505     1.0000 0.40210  0.54470  0.56680  Biso   1.000  C
  C506     1.0000 0.59790  0.45530  0.56680  Biso   1.000  C
  C507     1.0000 0.95530  0.90210  0.93320  Biso   1.000  C
  C508     1.0000 0.04470  0.09790  0.93320  Biso   1.000  C
  C509     1.0000 0.90210  0.04470  0.56680  Biso   1.000  C
  C510     1.0000 0.09790  0.95530  0.56680  Biso   1.000  C
  C511     1.0000 0.45530  0.40210  0.93320  Biso   1.000  C
  C512     1.0000 0.54470  0.59790  0.93320  Biso   1.000  C
  H457     1.0000 0.41150  0.50600  0.57940  Biso   1.000  H
  H458     1.0000 0.58850  0.49400  0.57940  Biso   1.000  H
  H459     1.0000 0.99400  0.91150  0.92060  Biso   1.000  H
  H460     1.0000 0.00600  0.08850  0.92060  Biso   1.000  H
  H461     1.0000 0.91150  0.00600  0.57940  Biso   1.000  H
  H462     1.0000 0.08850  0.99400  0.57940  Biso   1.000  H
  H463     1.0000 0.49400  0.41150  0.92060  Biso   1.000  H
  H464     1.0000 0.50600  0.58850  0.92060  Biso   1.000  H
  C513     1.0000 0.34560  0.55660  0.55040  Biso   1.000  C
  C514     1.0000 0.65440  0.44340  0.55040  Biso   1.000  C
  C515     1.0000 0.94340  0.84560  0.94960  Biso   1.000  C
  C516     1.0000 0.05660  0.15440  0.94960  Biso   1.000  C
  C517     1.0000 0.84560  0.05660  0.55040  Biso   1.000  C
  C518     1.0000 0.15440  0.94340  0.55040  Biso   1.000  C
  C519     1.0000 0.44340  0.34560  0.94960  Biso   1.000  C
  C520     1.0000 0.55660  0.65440  0.94960  Biso   1.000  C
  H465     1.0000 0.31620  0.52540  0.54590  Biso   1.000  H
  H466     1.0000 0.68380  0.47460  0.54590  Biso   1.000  H
  H467     1.0000 0.97460  0.81620  0.95410  Biso   1.000  H
  H468     1.0000 0.02540  0.18380  0.95410  Biso   1.000  H
  H469     1.0000 0.81620  0.02540  0.54590  Biso   1.000  H
  H470     1.0000 0.18380  0.97460  0.54590  Biso   1.000  H
  H471     1.0000 0.47460  0.31620  0.95410  Biso   1.000  H
  H472     1.0000 0.52540  0.68380  0.95410  Biso   1.000  H
  C521     1.0000 0.33370  0.61610  0.54090  Biso   1.000  C
  C522     1.0000 0.66630  0.38390  0.54090  Biso   1.000  C
  C523     1.0000 0.88390  0.83370  0.95910  Biso   1.000  C
  C524     1.0000 0.11610  0.16630  0.95910  Biso   1.000  C
  C525     1.0000 0.83370  0.11610  0.54090  Biso   1.000  C
  C526     1.0000 0.16630  0.88390  0.54090  Biso   1.000  C
  C527     1.0000 0.38390  0.33370  0.95910  Biso   1.000  C
  C528     1.0000 0.61610  0.66630  0.95910  Biso   1.000  C
  H473     1.0000 0.29270  0.62520  0.53320  Biso   1.000  H
  H474     1.0000 0.70730  0.37480  0.53320  Biso   1.000  H
  H475     1.0000 0.87480  0.79270  0.96680  Biso   1.000  H
  H476     1.0000 0.12520  0.20730  0.96680  Biso   1.000  H
  H477     1.0000 0.79270  0.12520  0.53320  Biso   1.000  H
  H478     1.0000 0.20730  0.87480  0.53320  Biso   1.000  H
  H479     1.0000 0.37480  0.29270  0.96680  Biso   1.000  H
  H480     1.0000 0.62520  0.70730  0.96680  Biso   1.000  H
  N81      1.0000 0.44420  0.76110  0.54600  Biso   1.000  N
  N82      1.0000 0.55580  0.23890  0.54600  Biso   1.000  N
  N83      1.0000 0.73890  0.94420  0.95400  Biso   1.000  N
  N84      1.0000 0.26110  0.05580  0.95400  Biso   1.000  N
  N85      1.0000 0.94420  0.26110  0.54600  Biso   1.000  N
  N86      1.0000 0.05580  0.73890  0.54600  Biso   1.000  N
  N87      1.0000 0.23890  0.44420  0.95400  Biso   1.000  N
  N88      1.0000 0.76110  0.55580  0.95400  Biso   1.000  N
  N89      1.0000 0.37170  0.66270  0.54100  Biso   1.000  N
  N90      1.0000 0.62830  0.33730  0.54100  Biso   1.000  N
  N91      1.0000 0.83730  0.87170  0.95900  Biso   1.000  N
  N92      1.0000 0.16270  0.12830  0.95900  Biso   1.000  N
  N93      1.0000 0.87170  0.16270  0.54100  Biso   1.000  N
  N94      1.0000 0.12830  0.83730  0.54100  Biso   1.000  N
  N95      1.0000 0.33730  0.37170  0.95900  Biso   1.000  N
  N96      1.0000 0.66270  0.62830  0.95900  Biso   1.000  N
  Cu25     1.0000 0.75342  0.85164  0.28773  Biso   1.000  Cu
  Cu26     1.0000 0.24658  0.14836  0.28773  Biso   1.000  Cu
  Cu27     1.0000 0.64836  0.25342  0.21227  Biso   1.000  Cu
  Cu28     1.0000 0.35164  0.74658  0.21227  Biso   1.000  Cu
  Cl13     1.0000 0.83525  0.25000  0.62500  Biso   1.000  Cl
  Cl14     1.0000 0.16475  0.75000  0.62500  Biso   1.000  Cl
  Cl15     1.0000 0.25000  0.33525  0.87500  Biso   1.000  Cl
  Cl16     1.0000 0.75000  0.66475  0.87500  Biso   1.000  Cl
