data_image0
_cell_length_a       38.6764
_cell_length_b       22.1804
_cell_length_c       21.8948
_cell_angle_alpha    90
_cell_angle_beta     96.284
_cell_angle_gamma    90

_symmetry_space_group_name_H-M    "P 1"
_symmetry_int_tables_number       1

loop_
  _symmetry_equiv_pos_as_xyz
  'x, y, z'

loop_
  _atom_site_label
  _atom_site_occupancy
  _atom_site_fract_x
  _atom_site_fract_y
  _atom_site_fract_z
  _atom_site_thermal_displace_type
  _atom_site_B_iso_or_equiv
  _atom_site_type_symbol
  Cu1      1.0000 0.25561  0.28578  0.25382  Biso   1.000  Cu
  Cu2      1.0000 0.74439  0.28578  0.24618  Biso   1.000  Cu
  Cu3      1.0000 0.75561  0.78578  0.25382  Biso   1.000  Cu
  Cu4      1.0000 0.24439  0.78578  0.24618  Biso   1.000  Cu
  Cu5      1.0000 0.74439  0.71422  0.74618  Biso   1.000  Cu
  Cu6      1.0000 0.25561  0.71422  0.75382  Biso   1.000  Cu
  Cu7      1.0000 0.24439  0.21422  0.74618  Biso   1.000  Cu
  Cu8      1.0000 0.75561  0.21422  0.75382  Biso   1.000  Cu
  O1       1.0000 0.26338  0.50010  0.05060  Biso   1.000  O
  O2       1.0000 0.73662  0.50010  0.44940  Biso   1.000  O
  O3       1.0000 0.76338  0.00010  0.05060  Biso   1.000  O
  O4       1.0000 0.23662  0.00010  0.44940  Biso   1.000  O
  O5       1.0000 0.73662  0.49990  0.94940  Biso   1.000  O
  O6       1.0000 0.26338  0.49990  0.55060  Biso   1.000  O
  O7       1.0000 0.23662  0.99990  0.94940  Biso   1.000  O
  O8       1.0000 0.76338  0.99990  0.55060  Biso   1.000  O
  O9       1.0000 0.21994  0.43510  0.06460  Biso   1.000  O
  O10      1.0000 0.78006  0.43510  0.43540  Biso   1.000  O
  O11      1.0000 0.71994  0.93510  0.06460  Biso   1.000  O
  O12      1.0000 0.28006  0.93510  0.43540  Biso   1.000  O
  O13      1.0000 0.78006  0.56490  0.93540  Biso   1.000  O
  O14      1.0000 0.21994  0.56490  0.56460  Biso   1.000  O
  O15      1.0000 0.28006  0.06490  0.93540  Biso   1.000  O
  O16      1.0000 0.71994  0.06490  0.56460  Biso   1.000  O
  O17      1.0000 0.18351  0.36250  0.89870  Biso   1.000  O
  O18      1.0000 0.81649  0.36250  0.60130  Biso   1.000  O
  O19      1.0000 0.68351  0.86250  0.89870  Biso   1.000  O
  O20      1.0000 0.31649  0.86250  0.60130  Biso   1.000  O
  O21      1.0000 0.81649  0.63750  0.10130  Biso   1.000  O
  O22      1.0000 0.18351  0.63750  0.39870  Biso   1.000  O
  O23      1.0000 0.31649  0.13750  0.10130  Biso   1.000  O
  O24      1.0000 0.68351  0.13750  0.39870  Biso   1.000  O
  O25      1.0000 0.22266  0.43050  0.93950  Biso   1.000  O
  O26      1.0000 0.77734  0.43050  0.56050  Biso   1.000  O
  O27      1.0000 0.72266  0.93050  0.93950  Biso   1.000  O
  O28      1.0000 0.27734  0.93050  0.56050  Biso   1.000  O
  O29      1.0000 0.77734  0.56950  0.06050  Biso   1.000  O
  O30      1.0000 0.22266  0.56950  0.43950  Biso   1.000  O
  O31      1.0000 0.27734  0.06950  0.06050  Biso   1.000  O
  O32      1.0000 0.72266  0.06950  0.43950  Biso   1.000  O
  O33      1.0000 0.15564  0.29740  0.41050  Biso   1.000  O
  O34      1.0000 0.84436  0.29740  0.08950  Biso   1.000  O
  O35      1.0000 0.65564  0.79740  0.41050  Biso   1.000  O
  O36      1.0000 0.34436  0.79740  0.08950  Biso   1.000  O
  O37      1.0000 0.84436  0.70260  0.58950  Biso   1.000  O
  O38      1.0000 0.15564  0.70260  0.91050  Biso   1.000  O
  O39      1.0000 0.34436  0.20260  0.58950  Biso   1.000  O
  O40      1.0000 0.65564  0.20260  0.91050  Biso   1.000  O
  O41      1.0000 0.13979  0.20270  0.43090  Biso   1.000  O
  O42      1.0000 0.86021  0.20270  0.06910  Biso   1.000  O
  O43      1.0000 0.63979  0.70270  0.43090  Biso   1.000  O
  O44      1.0000 0.36021  0.70270  0.06910  Biso   1.000  O
  O45      1.0000 0.86021  0.79730  0.56910  Biso   1.000  O
  O46      1.0000 0.13979  0.79730  0.93090  Biso   1.000  O
  O47      1.0000 0.36021  0.29730  0.56910  Biso   1.000  O
  O48      1.0000 0.63979  0.29730  0.93090  Biso   1.000  O
  O49      1.0000 0.14280  0.10050  0.51790  Biso   1.000  O
  O50      1.0000 0.85720  0.10050  0.98210  Biso   1.000  O
  O51      1.0000 0.64280  0.60050  0.51790  Biso   1.000  O
  O52      1.0000 0.35720  0.60050  0.98210  Biso   1.000  O
  O53      1.0000 0.85720  0.89950  0.48210  Biso   1.000  O
  O54      1.0000 0.14280  0.89950  0.01790  Biso   1.000  O
  O55      1.0000 0.35720  0.39950  0.48210  Biso   1.000  O
  O56      1.0000 0.64280  0.39950  0.01790  Biso   1.000  O
  O57      1.0000 0.14883  0.19440  0.55730  Biso   1.000  O
  O58      1.0000 0.85117  0.19440  0.94270  Biso   1.000  O
  O59      1.0000 0.64883  0.69440  0.55730  Biso   1.000  O
  O60      1.0000 0.35117  0.69440  0.94270  Biso   1.000  O
  O61      1.0000 0.85117  0.80560  0.44270  Biso   1.000  O
  O62      1.0000 0.14883  0.80560  0.05730  Biso   1.000  O
  O63      1.0000 0.35117  0.30560  0.44270  Biso   1.000  O
  O64      1.0000 0.64883  0.30560  0.05730  Biso   1.000  O
  O65      1.0000 0.19827  0.33730  0.23010  Biso   1.000  O
  O66      1.0000 0.80173  0.33730  0.26990  Biso   1.000  O
  O67      1.0000 0.69827  0.83730  0.23010  Biso   1.000  O
  O68      1.0000 0.30173  0.83730  0.26990  Biso   1.000  O
  O69      1.0000 0.80173  0.66270  0.76990  Biso   1.000  O
  O70      1.0000 0.19827  0.66270  0.73010  Biso   1.000  O
  O71      1.0000 0.30173  0.16270  0.76990  Biso   1.000  O
  O72      1.0000 0.69827  0.16270  0.73010  Biso   1.000  O
  N1       1.0000 0.27869  0.34170  0.19740  Biso   1.000  N
  N2       1.0000 0.72131  0.34170  0.30260  Biso   1.000  N
  N3       1.0000 0.77869  0.84170  0.19740  Biso   1.000  N
  N4       1.0000 0.22131  0.84170  0.30260  Biso   1.000  N
  N5       1.0000 0.72131  0.65830  0.80260  Biso   1.000  N
  N6       1.0000 0.27869  0.65830  0.69740  Biso   1.000  N
  N7       1.0000 0.22131  0.15830  0.80260  Biso   1.000  N
  N8       1.0000 0.77869  0.15830  0.69740  Biso   1.000  N
  N9       1.0000 0.25942  0.27320  0.81610  Biso   1.000  N
  N10      1.0000 0.74058  0.27320  0.68390  Biso   1.000  N
  N11      1.0000 0.75942  0.77320  0.81610  Biso   1.000  N
  N12      1.0000 0.24058  0.77320  0.68390  Biso   1.000  N
  N13      1.0000 0.74058  0.72680  0.18390  Biso   1.000  N
  N14      1.0000 0.25942  0.72680  0.31610  Biso   1.000  N
  N15      1.0000 0.24058  0.22680  0.18390  Biso   1.000  N
  N16      1.0000 0.75942  0.22680  0.31610  Biso   1.000  N
  N17      1.0000 0.23260  0.23090  0.31150  Biso   1.000  N
  N18      1.0000 0.76740  0.23090  0.18850  Biso   1.000  N
  N19      1.0000 0.73260  0.73090  0.31150  Biso   1.000  N
  N20      1.0000 0.26740  0.73090  0.18850  Biso   1.000  N
  N21      1.0000 0.76740  0.76910  0.68850  Biso   1.000  N
  N22      1.0000 0.23260  0.76910  0.81150  Biso   1.000  N
  N23      1.0000 0.26740  0.26910  0.68850  Biso   1.000  N
  N24      1.0000 0.73260  0.26910  0.81150  Biso   1.000  N
  N25      1.0000 0.23093  0.15430  0.67690  Biso   1.000  N
  N26      1.0000 0.76907  0.15430  0.82310  Biso   1.000  N
  N27      1.0000 0.73093  0.65430  0.67690  Biso   1.000  N
  N28      1.0000 0.26907  0.65430  0.82310  Biso   1.000  N
  N29      1.0000 0.76907  0.84570  0.32310  Biso   1.000  N
  N30      1.0000 0.23093  0.84570  0.17690  Biso   1.000  N
  N31      1.0000 0.26907  0.34570  0.32310  Biso   1.000  N
  N32      1.0000 0.73093  0.34570  0.17690  Biso   1.000  N
  N33      1.0000 0.31040  0.22690  0.27590  Biso   1.000  N
  N34      1.0000 0.68960  0.22690  0.22410  Biso   1.000  N
  N35      1.0000 0.81040  0.72690  0.27590  Biso   1.000  N
  N36      1.0000 0.18960  0.72690  0.22410  Biso   1.000  N
  N37      1.0000 0.68960  0.77310  0.72410  Biso   1.000  N
  N38      1.0000 0.31040  0.77310  0.77590  Biso   1.000  N
  N39      1.0000 0.18960  0.27310  0.72410  Biso   1.000  N
  N40      1.0000 0.81040  0.27310  0.77590  Biso   1.000  N
  C1       1.0000 0.25950  0.37480  0.15440  Biso   1.000  C
  C2       1.0000 0.74050  0.37480  0.34560  Biso   1.000  C
  C3       1.0000 0.75950  0.87480  0.15440  Biso   1.000  C
  C4       1.0000 0.24050  0.87480  0.34560  Biso   1.000  C
  C5       1.0000 0.74050  0.62520  0.84560  Biso   1.000  C
  C6       1.0000 0.25950  0.62520  0.65440  Biso   1.000  C
  C7       1.0000 0.24050  0.12520  0.84560  Biso   1.000  C
  C8       1.0000 0.75950  0.12520  0.65440  Biso   1.000  C
  H1       1.0000 0.23520  0.36800  0.14760  Biso   1.000  H
  H2       1.0000 0.76480  0.36800  0.35240  Biso   1.000  H
  H3       1.0000 0.73520  0.86800  0.14760  Biso   1.000  H
  H4       1.0000 0.26480  0.86800  0.35240  Biso   1.000  H
  H5       1.0000 0.76480  0.63200  0.85240  Biso   1.000  H
  H6       1.0000 0.23520  0.63200  0.64760  Biso   1.000  H
  H7       1.0000 0.26480  0.13200  0.85240  Biso   1.000  H
  H8       1.0000 0.73520  0.13200  0.64760  Biso   1.000  H
  C9       1.0000 0.27420  0.41790  0.12030  Biso   1.000  C
  C10      1.0000 0.72580  0.41790  0.37970  Biso   1.000  C
  C11      1.0000 0.77420  0.91790  0.12030  Biso   1.000  C
  C12      1.0000 0.22580  0.91790  0.37970  Biso   1.000  C
  C13      1.0000 0.72580  0.58210  0.87970  Biso   1.000  C
  C14      1.0000 0.27420  0.58210  0.62030  Biso   1.000  C
  C15      1.0000 0.22580  0.08210  0.87970  Biso   1.000  C
  C16      1.0000 0.77420  0.08210  0.62030  Biso   1.000  C
  C17      1.0000 0.30980  0.42660  0.12770  Biso   1.000  C
  C18      1.0000 0.69020  0.42660  0.37230  Biso   1.000  C
  C19      1.0000 0.80980  0.92660  0.12770  Biso   1.000  C
  C20      1.0000 0.19020  0.92660  0.37230  Biso   1.000  C
  C21      1.0000 0.69020  0.57340  0.87230  Biso   1.000  C
  C22      1.0000 0.30980  0.57340  0.62770  Biso   1.000  C
  C23      1.0000 0.19020  0.07340  0.87230  Biso   1.000  C
  C24      1.0000 0.80980  0.07340  0.62770  Biso   1.000  C
  H9       1.0000 0.32050  0.45590  0.10440  Biso   1.000  H
  H10      1.0000 0.67950  0.45590  0.39560  Biso   1.000  H
  H11      1.0000 0.82050  0.95590  0.10440  Biso   1.000  H
  H12      1.0000 0.17950  0.95590  0.39560  Biso   1.000  H
  H13      1.0000 0.67950  0.54410  0.89560  Biso   1.000  H
  H14      1.0000 0.32050  0.54410  0.60440  Biso   1.000  H
  H15      1.0000 0.17950  0.04410  0.89560  Biso   1.000  H
  H16      1.0000 0.82050  0.04410  0.60440  Biso   1.000  H
  C25      1.0000 0.32940  0.39040  0.17090  Biso   1.000  C
  C26      1.0000 0.67060  0.39040  0.32910  Biso   1.000  C
  C27      1.0000 0.82940  0.89040  0.17090  Biso   1.000  C
  C28      1.0000 0.17060  0.89040  0.32910  Biso   1.000  C
  C29      1.0000 0.67060  0.60960  0.82910  Biso   1.000  C
  C30      1.0000 0.32940  0.60960  0.67090  Biso   1.000  C
  C31      1.0000 0.17060  0.10960  0.82910  Biso   1.000  C
  C32      1.0000 0.82940  0.10960  0.67090  Biso   1.000  C
  H17      1.0000 0.35410  0.39350  0.17620  Biso   1.000  H
  H18      1.0000 0.64590  0.39350  0.32380  Biso   1.000  H
  H19      1.0000 0.85410  0.89350  0.17620  Biso   1.000  H
  H20      1.0000 0.14590  0.89350  0.32380  Biso   1.000  H
  H21      1.0000 0.64590  0.60650  0.82380  Biso   1.000  H
  H22      1.0000 0.35410  0.60650  0.67620  Biso   1.000  H
  H23      1.0000 0.14590  0.10650  0.82380  Biso   1.000  H
  H24      1.0000 0.85410  0.10650  0.67620  Biso   1.000  H
  C33      1.0000 0.31300  0.35090  0.20520  Biso   1.000  C
  C34      1.0000 0.68700  0.35090  0.29480  Biso   1.000  C
  C35      1.0000 0.81300  0.85090  0.20520  Biso   1.000  C
  C36      1.0000 0.18700  0.85090  0.29480  Biso   1.000  C
  C37      1.0000 0.68700  0.64910  0.79480  Biso   1.000  C
  C38      1.0000 0.31300  0.64910  0.70520  Biso   1.000  C
  C39      1.0000 0.18700  0.14910  0.79480  Biso   1.000  C
  C40      1.0000 0.81300  0.14910  0.70520  Biso   1.000  C
  H25      1.0000 0.32650  0.32870  0.23620  Biso   1.000  H
  H26      1.0000 0.67350  0.32870  0.26380  Biso   1.000  H
  H27      1.0000 0.82650  0.82870  0.23620  Biso   1.000  H
  H28      1.0000 0.17350  0.82870  0.26380  Biso   1.000  H
  H29      1.0000 0.67350  0.67130  0.76380  Biso   1.000  H
  H30      1.0000 0.32650  0.67130  0.73620  Biso   1.000  H
  H31      1.0000 0.17350  0.17130  0.76380  Biso   1.000  H
  H32      1.0000 0.82650  0.17130  0.73620  Biso   1.000  H
  C41      1.0000 0.25270  0.45650  0.07500  Biso   1.000  C
  C42      1.0000 0.74730  0.45650  0.42500  Biso   1.000  C
  C43      1.0000 0.75270  0.95650  0.07500  Biso   1.000  C
  C44      1.0000 0.24730  0.95650  0.42500  Biso   1.000  C
  C45      1.0000 0.74730  0.54350  0.92500  Biso   1.000  C
  C46      1.0000 0.25270  0.54350  0.57500  Biso   1.000  C
  C47      1.0000 0.24730  0.04350  0.92500  Biso   1.000  C
  C48      1.0000 0.75270  0.04350  0.57500  Biso   1.000  C
  C49      1.0000 0.19590  0.46810  0.02630  Biso   1.000  C
  C50      1.0000 0.80410  0.46810  0.47370  Biso   1.000  C
  C51      1.0000 0.69590  0.96810  0.02630  Biso   1.000  C
  C52      1.0000 0.30410  0.96810  0.47370  Biso   1.000  C
  C53      1.0000 0.80410  0.53190  0.97370  Biso   1.000  C
  C54      1.0000 0.19590  0.53190  0.52630  Biso   1.000  C
  C55      1.0000 0.30410  0.03190  0.97370  Biso   1.000  C
  C56      1.0000 0.69590  0.03190  0.52630  Biso   1.000  C
  C57      1.0000 0.17170  0.50050  0.05180  Biso   1.000  C
  C58      1.0000 0.82830  0.50050  0.44820  Biso   1.000  C
  C59      1.0000 0.67170  0.00050  0.05180  Biso   1.000  C
  C60      1.0000 0.32830  0.00050  0.44820  Biso   1.000  C
  C61      1.0000 0.82830  0.49950  0.94820  Biso   1.000  C
  C62      1.0000 0.17170  0.49950  0.55180  Biso   1.000  C
  C63      1.0000 0.32830  0.99950  0.94820  Biso   1.000  C
  C64      1.0000 0.67170  0.99950  0.55180  Biso   1.000  C
  H33      1.0000 0.17270  0.50380  0.09520  Biso   1.000  H
  H34      1.0000 0.82730  0.50380  0.40480  Biso   1.000  H
  H35      1.0000 0.67270  0.00380  0.09520  Biso   1.000  H
  H36      1.0000 0.32730  0.00380  0.40480  Biso   1.000  H
  H37      1.0000 0.82730  0.49620  0.90480  Biso   1.000  H
  H38      1.0000 0.17270  0.49620  0.59520  Biso   1.000  H
  H39      1.0000 0.32730  0.99620  0.90480  Biso   1.000  H
  H40      1.0000 0.67270  0.99620  0.59520  Biso   1.000  H
  C65      1.0000 0.14470  0.52950  0.01350  Biso   1.000  C
  C66      1.0000 0.85530  0.52950  0.48650  Biso   1.000  C
  C67      1.0000 0.64470  0.02950  0.01350  Biso   1.000  C
  C68      1.0000 0.35530  0.02950  0.48650  Biso   1.000  C
  C69      1.0000 0.85530  0.47050  0.98650  Biso   1.000  C
  C70      1.0000 0.14470  0.47050  0.51350  Biso   1.000  C
  C71      1.0000 0.35530  0.97050  0.98650  Biso   1.000  C
  C72      1.0000 0.64470  0.97050  0.51350  Biso   1.000  C
  C73      1.0000 0.11750  0.56120  0.03780  Biso   1.000  C
  C74      1.0000 0.88250  0.56120  0.46220  Biso   1.000  C
  C75      1.0000 0.61750  0.06120  0.03780  Biso   1.000  C
  C76      1.0000 0.38250  0.06120  0.46220  Biso   1.000  C
  C77      1.0000 0.88250  0.43880  0.96220  Biso   1.000  C
  C78      1.0000 0.11750  0.43880  0.53780  Biso   1.000  C
  C79      1.0000 0.38250  0.93880  0.96220  Biso   1.000  C
  C80      1.0000 0.61750  0.93880  0.53780  Biso   1.000  C
  H41      1.0000 0.11710  0.56420  0.08100  Biso   1.000  H
  H42      1.0000 0.88290  0.56420  0.41900  Biso   1.000  H
  H43      1.0000 0.61710  0.06420  0.08100  Biso   1.000  H
  H44      1.0000 0.38290  0.06420  0.41900  Biso   1.000  H
  H45      1.0000 0.88290  0.43580  0.91900  Biso   1.000  H
  H46      1.0000 0.11710  0.43580  0.58100  Biso   1.000  H
  H47      1.0000 0.38290  0.93580  0.91900  Biso   1.000  H
  H48      1.0000 0.61710  0.93580  0.58100  Biso   1.000  H
  C81      1.0000 0.09240  0.58680  0.00000  Biso   1.000  C
  C82      1.0000 0.90760  0.58680  0.50000  Biso   1.000  C
  C83      1.0000 0.59240  0.08680  0.00000  Biso   1.000  C
  C84      1.0000 0.40760  0.08680  0.50000  Biso   1.000  C
  C85      1.0000 0.90760  0.41320  0.00000  Biso   1.000  C
  C86      1.0000 0.09240  0.41320  0.50000  Biso   1.000  C
  C87      1.0000 0.40760  0.91320  0.00000  Biso   1.000  C
  C88      1.0000 0.59240  0.91320  0.50000  Biso   1.000  C
  H49      1.0000 0.07430  0.60760  0.01710  Biso   1.000  H
  H50      1.0000 0.92570  0.60760  0.48290  Biso   1.000  H
  H51      1.0000 0.57430  0.10760  0.01710  Biso   1.000  H
  H52      1.0000 0.42570  0.10760  0.48290  Biso   1.000  H
  H53      1.0000 0.92570  0.39240  0.98290  Biso   1.000  H
  H54      1.0000 0.07430  0.39240  0.51710  Biso   1.000  H
  H55      1.0000 0.42570  0.89240  0.98290  Biso   1.000  H
  H56      1.0000 0.57430  0.89240  0.51710  Biso   1.000  H
  C89      1.0000 0.09180  0.58440  0.93680  Biso   1.000  C
  C90      1.0000 0.90820  0.58440  0.56320  Biso   1.000  C
  C91      1.0000 0.59180  0.08440  0.93680  Biso   1.000  C
  C92      1.0000 0.40820  0.08440  0.56320  Biso   1.000  C
  C93      1.0000 0.90820  0.41560  0.06320  Biso   1.000  C
  C94      1.0000 0.09180  0.41560  0.43680  Biso   1.000  C
  C95      1.0000 0.40820  0.91560  0.06320  Biso   1.000  C
  C96      1.0000 0.59180  0.91560  0.43680  Biso   1.000  C
  H57      1.0000 0.07350  0.60320  0.91120  Biso   1.000  H
  H58      1.0000 0.92650  0.60320  0.58880  Biso   1.000  H
  H59      1.0000 0.57350  0.10320  0.91120  Biso   1.000  H
  H60      1.0000 0.42650  0.10320  0.58880  Biso   1.000  H
  H61      1.0000 0.92650  0.39680  0.08880  Biso   1.000  H
  H62      1.0000 0.07350  0.39680  0.41120  Biso   1.000  H
  H63      1.0000 0.42650  0.89680  0.08880  Biso   1.000  H
  H64      1.0000 0.57350  0.89680  0.41120  Biso   1.000  H
  C97      1.0000 0.11770  0.55470  0.91150  Biso   1.000  C
  C98      1.0000 0.88230  0.55470  0.58850  Biso   1.000  C
  C99      1.0000 0.61770  0.05470  0.91150  Biso   1.000  C
  C100     1.0000 0.38230  0.05470  0.58850  Biso   1.000  C
  C101     1.0000 0.88230  0.44530  0.08850  Biso   1.000  C
  C102     1.0000 0.11770  0.44530  0.41150  Biso   1.000  C
  C103     1.0000 0.38230  0.94530  0.08850  Biso   1.000  C
  C104     1.0000 0.61770  0.94530  0.41150  Biso   1.000  C
  H65      1.0000 0.11740  0.55340  0.86800  Biso   1.000  H
  H66      1.0000 0.88260  0.55340  0.63200  Biso   1.000  H
  H67      1.0000 0.61740  0.05340  0.86800  Biso   1.000  H
  H68      1.0000 0.38260  0.05340  0.63200  Biso   1.000  H
  H69      1.0000 0.88260  0.44660  0.13200  Biso   1.000  H
  H70      1.0000 0.11740  0.44660  0.36800  Biso   1.000  H
  H71      1.0000 0.38260  0.94660  0.13200  Biso   1.000  H
  H72      1.0000 0.61740  0.94660  0.36800  Biso   1.000  H
  C105     1.0000 0.14440  0.52640  0.94800  Biso   1.000  C
  C106     1.0000 0.85560  0.52640  0.55200  Biso   1.000  C
  C107     1.0000 0.64440  0.02640  0.94800  Biso   1.000  C
  C108     1.0000 0.35560  0.02640  0.55200  Biso   1.000  C
  C109     1.0000 0.85560  0.47360  0.05200  Biso   1.000  C
  C110     1.0000 0.14440  0.47360  0.44800  Biso   1.000  C
  C111     1.0000 0.35560  0.97360  0.05200  Biso   1.000  C
  C112     1.0000 0.64440  0.97360  0.44800  Biso   1.000  C
  C113     1.0000 0.17140  0.49370  0.92390  Biso   1.000  C
  C114     1.0000 0.82860  0.49370  0.57610  Biso   1.000  C
  C115     1.0000 0.67140  0.99370  0.92390  Biso   1.000  C
  C116     1.0000 0.32860  0.99370  0.57610  Biso   1.000  C
  C117     1.0000 0.82860  0.50630  0.07610  Biso   1.000  C
  C118     1.0000 0.17140  0.50630  0.42390  Biso   1.000  C
  C119     1.0000 0.32860  0.00630  0.07610  Biso   1.000  C
  C120     1.0000 0.67140  0.00630  0.42390  Biso   1.000  C
  H73      1.0000 0.17240  0.49230  0.88070  Biso   1.000  H
  H74      1.0000 0.82760  0.49230  0.61930  Biso   1.000  H
  H75      1.0000 0.67240  0.99230  0.88070  Biso   1.000  H
  H76      1.0000 0.32760  0.99230  0.61930  Biso   1.000  H
  H77      1.0000 0.82760  0.50770  0.11930  Biso   1.000  H
  H78      1.0000 0.17240  0.50770  0.38070  Biso   1.000  H
  H79      1.0000 0.32760  0.00770  0.11930  Biso   1.000  H
  H80      1.0000 0.67240  0.00770  0.38070  Biso   1.000  H
  C121     1.0000 0.19610  0.46410  0.96230  Biso   1.000  C
  C122     1.0000 0.80390  0.46410  0.53770  Biso   1.000  C
  C123     1.0000 0.69610  0.96410  0.96230  Biso   1.000  C
  C124     1.0000 0.30390  0.96410  0.53770  Biso   1.000  C
  C125     1.0000 0.80390  0.53590  0.03770  Biso   1.000  C
  C126     1.0000 0.19610  0.53590  0.46230  Biso   1.000  C
  C127     1.0000 0.30390  0.03590  0.03770  Biso   1.000  C
  C128     1.0000 0.69610  0.03590  0.46230  Biso   1.000  C
  C129     1.0000 0.21250  0.38020  0.90720  Biso   1.000  C
  C130     1.0000 0.78750  0.38020  0.59280  Biso   1.000  C
  C131     1.0000 0.71250  0.88020  0.90720  Biso   1.000  C
  C132     1.0000 0.28750  0.88020  0.59280  Biso   1.000  C
  C133     1.0000 0.78750  0.61980  0.09280  Biso   1.000  C
  C134     1.0000 0.21250  0.61980  0.40720  Biso   1.000  C
  C135     1.0000 0.28750  0.11980  0.09280  Biso   1.000  C
  C136     1.0000 0.71250  0.11980  0.40720  Biso   1.000  C
  C137     1.0000 0.29270  0.29130  0.82760  Biso   1.000  C
  C138     1.0000 0.70730  0.29130  0.67240  Biso   1.000  C
  C139     1.0000 0.79270  0.79130  0.82760  Biso   1.000  C
  C140     1.0000 0.20730  0.79130  0.67240  Biso   1.000  C
  C141     1.0000 0.70730  0.70870  0.17240  Biso   1.000  C
  C142     1.0000 0.29270  0.70870  0.32760  Biso   1.000  C
  C143     1.0000 0.20730  0.20870  0.17240  Biso   1.000  C
  C144     1.0000 0.79270  0.20870  0.32760  Biso   1.000  C
  H81      1.0000 0.31000  0.27210  0.80690  Biso   1.000  H
  H82      1.0000 0.69000  0.27210  0.69310  Biso   1.000  H
  H83      1.0000 0.81000  0.77210  0.80690  Biso   1.000  H
  H84      1.0000 0.19000  0.77210  0.69310  Biso   1.000  H
  H85      1.0000 0.69000  0.72790  0.19310  Biso   1.000  H
  H86      1.0000 0.31000  0.72790  0.30690  Biso   1.000  H
  H87      1.0000 0.19000  0.22790  0.19310  Biso   1.000  H
  H88      1.0000 0.81000  0.22790  0.30690  Biso   1.000  H
  C145     1.0000 0.30250  0.33750  0.86890  Biso   1.000  C
  C146     1.0000 0.69750  0.33750  0.63110  Biso   1.000  C
  C147     1.0000 0.80250  0.83750  0.86890  Biso   1.000  C
  C148     1.0000 0.19750  0.83750  0.63110  Biso   1.000  C
  C149     1.0000 0.69750  0.66250  0.13110  Biso   1.000  C
  C150     1.0000 0.30250  0.66250  0.36890  Biso   1.000  C
  C151     1.0000 0.19750  0.16250  0.13110  Biso   1.000  C
  C152     1.0000 0.80250  0.16250  0.36890  Biso   1.000  C
  H89      1.0000 0.32630  0.34780  0.87830  Biso   1.000  H
  H90      1.0000 0.67370  0.34780  0.62170  Biso   1.000  H
  H91      1.0000 0.82630  0.84780  0.87830  Biso   1.000  H
  H92      1.0000 0.17370  0.84780  0.62170  Biso   1.000  H
  H93      1.0000 0.67370  0.65220  0.12170  Biso   1.000  H
  H94      1.0000 0.32630  0.65220  0.37830  Biso   1.000  H
  H95      1.0000 0.17370  0.15220  0.12170  Biso   1.000  H
  H96      1.0000 0.82630  0.15220  0.37830  Biso   1.000  H
  C153     1.0000 0.27700  0.36830  0.89610  Biso   1.000  C
  C154     1.0000 0.72300  0.36830  0.60390  Biso   1.000  C
  C155     1.0000 0.77700  0.86830  0.89610  Biso   1.000  C
  C156     1.0000 0.22300  0.86830  0.60390  Biso   1.000  C
  C157     1.0000 0.72300  0.63170  0.10390  Biso   1.000  C
  C158     1.0000 0.27700  0.63170  0.39610  Biso   1.000  C
  C159     1.0000 0.22300  0.13170  0.10390  Biso   1.000  C
  C160     1.0000 0.77700  0.13170  0.39610  Biso   1.000  C
  H97      1.0000 0.28290  0.40130  0.92290  Biso   1.000  H
  H98      1.0000 0.71710  0.40130  0.57710  Biso   1.000  H
  H99      1.0000 0.78290  0.90130  0.92290  Biso   1.000  H
  H100     1.0000 0.21710  0.90130  0.57710  Biso   1.000  H
  H101     1.0000 0.71710  0.59870  0.07710  Biso   1.000  H
  H102     1.0000 0.28290  0.59870  0.42290  Biso   1.000  H
  H103     1.0000 0.21710  0.09870  0.07710  Biso   1.000  H
  H104     1.0000 0.78290  0.09870  0.42290  Biso   1.000  H
  C161     1.0000 0.24290  0.35010  0.88350  Biso   1.000  C
  C162     1.0000 0.75710  0.35010  0.61650  Biso   1.000  C
  C163     1.0000 0.74290  0.85010  0.88350  Biso   1.000  C
  C164     1.0000 0.25710  0.85010  0.61650  Biso   1.000  C
  C165     1.0000 0.75710  0.64990  0.11650  Biso   1.000  C
  C166     1.0000 0.24290  0.64990  0.38350  Biso   1.000  C
  C167     1.0000 0.25710  0.14990  0.11650  Biso   1.000  C
  C168     1.0000 0.74290  0.14990  0.38350  Biso   1.000  C
  C169     1.0000 0.23510  0.30210  0.84400  Biso   1.000  C
  C170     1.0000 0.76490  0.30210  0.65600  Biso   1.000  C
  C171     1.0000 0.73510  0.80210  0.84400  Biso   1.000  C
  C172     1.0000 0.26490  0.80210  0.65600  Biso   1.000  C
  C173     1.0000 0.76490  0.69790  0.15600  Biso   1.000  C
  C174     1.0000 0.23510  0.69790  0.34400  Biso   1.000  C
  C175     1.0000 0.26490  0.19790  0.15600  Biso   1.000  C
  C176     1.0000 0.73510  0.19790  0.34400  Biso   1.000  C
  H105     1.0000 0.21160  0.28910  0.83630  Biso   1.000  H
  H106     1.0000 0.78840  0.28910  0.66370  Biso   1.000  H
  H107     1.0000 0.71160  0.78910  0.83630  Biso   1.000  H
  H108     1.0000 0.28840  0.78910  0.66370  Biso   1.000  H
  H109     1.0000 0.78840  0.71090  0.16370  Biso   1.000  H
  H110     1.0000 0.21160  0.71090  0.33630  Biso   1.000  H
  H111     1.0000 0.28840  0.21090  0.16370  Biso   1.000  H
  H112     1.0000 0.71160  0.21090  0.33630  Biso   1.000  H
  C177     1.0000 0.20761  0.25180  0.34240  Biso   1.000  C
  C178     1.0000 0.79239  0.25180  0.15760  Biso   1.000  C
  C179     1.0000 0.70761  0.75180  0.34240  Biso   1.000  C
  C180     1.0000 0.29239  0.75180  0.15760  Biso   1.000  C
  C181     1.0000 0.79239  0.74820  0.65760  Biso   1.000  C
  C182     1.0000 0.20761  0.74820  0.84240  Biso   1.000  C
  C183     1.0000 0.29239  0.24820  0.65760  Biso   1.000  C
  C184     1.0000 0.70761  0.24820  0.84240  Biso   1.000  C
  H113     1.0000 0.20270  0.29370  0.34070  Biso   1.000  H
  H114     1.0000 0.79730  0.29370  0.15930  Biso   1.000  H
  H115     1.0000 0.70270  0.79370  0.34070  Biso   1.000  H
  H116     1.0000 0.29730  0.79370  0.15930  Biso   1.000  H
  H117     1.0000 0.79730  0.70630  0.65930  Biso   1.000  H
  H118     1.0000 0.20270  0.70630  0.84070  Biso   1.000  H
  H119     1.0000 0.29730  0.20630  0.65930  Biso   1.000  H
  H120     1.0000 0.70270  0.20630  0.84070  Biso   1.000  H
  C185     1.0000 0.18837  0.21510  0.37690  Biso   1.000  C
  C186     1.0000 0.81163  0.21510  0.12310  Biso   1.000  C
  C187     1.0000 0.68837  0.71510  0.37690  Biso   1.000  C
  C188     1.0000 0.31163  0.71510  0.12310  Biso   1.000  C
  C189     1.0000 0.81163  0.78490  0.62310  Biso   1.000  C
  C190     1.0000 0.18837  0.78490  0.87690  Biso   1.000  C
  C191     1.0000 0.31163  0.28490  0.62310  Biso   1.000  C
  C192     1.0000 0.68837  0.28490  0.87690  Biso   1.000  C
  C193     1.0000 0.19670  0.15440  0.38170  Biso   1.000  C
  C194     1.0000 0.80330  0.15440  0.11830  Biso   1.000  C
  C195     1.0000 0.69670  0.65440  0.38170  Biso   1.000  C
  C196     1.0000 0.30330  0.65440  0.11830  Biso   1.000  C
  C197     1.0000 0.80330  0.84560  0.61830  Biso   1.000  C
  C198     1.0000 0.19670  0.84560  0.88170  Biso   1.000  C
  C199     1.0000 0.30330  0.34560  0.61830  Biso   1.000  C
  C200     1.0000 0.69670  0.34560  0.88170  Biso   1.000  C
  H121     1.0000 0.18420  0.12810  0.40560  Biso   1.000  H
  H122     1.0000 0.81580  0.12810  0.09440  Biso   1.000  H
  H123     1.0000 0.68420  0.62810  0.40560  Biso   1.000  H
  H124     1.0000 0.31580  0.62810  0.09440  Biso   1.000  H
  H125     1.0000 0.81580  0.87190  0.59440  Biso   1.000  H
  H126     1.0000 0.18420  0.87190  0.90560  Biso   1.000  H
  H127     1.0000 0.31580  0.37190  0.59440  Biso   1.000  H
  H128     1.0000 0.68420  0.37190  0.90560  Biso   1.000  H
  C201     1.0000 0.22300  0.13320  0.35190  Biso   1.000  C
  C202     1.0000 0.77700  0.13320  0.14810  Biso   1.000  C
  C203     1.0000 0.72300  0.63320  0.35190  Biso   1.000  C
  C204     1.0000 0.27700  0.63320  0.14810  Biso   1.000  C
  C205     1.0000 0.77700  0.86680  0.64810  Biso   1.000  C
  C206     1.0000 0.22300  0.86680  0.85190  Biso   1.000  C
  C207     1.0000 0.27700  0.36680  0.64810  Biso   1.000  C
  C208     1.0000 0.72300  0.36680  0.85190  Biso   1.000  C
  H129     1.0000 0.22930  0.09190  0.35490  Biso   1.000  H
  H130     1.0000 0.77070  0.09190  0.14510  Biso   1.000  H
  H131     1.0000 0.72930  0.59190  0.35490  Biso   1.000  H
  H132     1.0000 0.27070  0.59190  0.14510  Biso   1.000  H
  H133     1.0000 0.77070  0.90810  0.64510  Biso   1.000  H
  H134     1.0000 0.22930  0.90810  0.85490  Biso   1.000  H
  H135     1.0000 0.27070  0.40810  0.64510  Biso   1.000  H
  H136     1.0000 0.72930  0.40810  0.85490  Biso   1.000  H
  C209     1.0000 0.24060  0.17180  0.31700  Biso   1.000  C
  C210     1.0000 0.75940  0.17180  0.18300  Biso   1.000  C
  C211     1.0000 0.74060  0.67180  0.31700  Biso   1.000  C
  C212     1.0000 0.25940  0.67180  0.18300  Biso   1.000  C
  C213     1.0000 0.75940  0.82820  0.68300  Biso   1.000  C
  C214     1.0000 0.24060  0.82820  0.81700  Biso   1.000  C
  C215     1.0000 0.25940  0.32820  0.68300  Biso   1.000  C
  C216     1.0000 0.74060  0.32820  0.81700  Biso   1.000  C
  H137     1.0000 0.25890  0.15630  0.29620  Biso   1.000  H
  H138     1.0000 0.74110  0.15630  0.20380  Biso   1.000  H
  H139     1.0000 0.75890  0.65630  0.29620  Biso   1.000  H
  H140     1.0000 0.24110  0.65630  0.20380  Biso   1.000  H
  H141     1.0000 0.74110  0.84370  0.70380  Biso   1.000  H
  H142     1.0000 0.25890  0.84370  0.79620  Biso   1.000  H
  H143     1.0000 0.24110  0.34370  0.70380  Biso   1.000  H
  H144     1.0000 0.75890  0.34370  0.79620  Biso   1.000  H
  C217     1.0000 0.16020  0.24460  0.40680  Biso   1.000  C
  C218     1.0000 0.83980  0.24460  0.09320  Biso   1.000  C
  C219     1.0000 0.66020  0.74460  0.40680  Biso   1.000  C
  C220     1.0000 0.33980  0.74460  0.09320  Biso   1.000  C
  C221     1.0000 0.83980  0.75540  0.59320  Biso   1.000  C
  C222     1.0000 0.16020  0.75540  0.90680  Biso   1.000  C
  C223     1.0000 0.33980  0.25540  0.59320  Biso   1.000  C
  C224     1.0000 0.66020  0.25540  0.90680  Biso   1.000  C
  C225     1.0000 0.11300  0.22390  0.46340  Biso   1.000  C
  C226     1.0000 0.88700  0.22390  0.03660  Biso   1.000  C
  C227     1.0000 0.61300  0.72390  0.46340  Biso   1.000  C
  C228     1.0000 0.38700  0.72390  0.03660  Biso   1.000  C
  C229     1.0000 0.88700  0.77610  0.53660  Biso   1.000  C
  C230     1.0000 0.11300  0.77610  0.96340  Biso   1.000  C
  C231     1.0000 0.38700  0.27610  0.53660  Biso   1.000  C
  C232     1.0000 0.61300  0.27610  0.96340  Biso   1.000  C
  C233     1.0000 0.08390  0.24990  0.43550  Biso   1.000  C
  C234     1.0000 0.91610  0.24990  0.06450  Biso   1.000  C
  C235     1.0000 0.58390  0.74990  0.43550  Biso   1.000  C
  C236     1.0000 0.41610  0.74990  0.06450  Biso   1.000  C
  C237     1.0000 0.91610  0.75010  0.56450  Biso   1.000  C
  C238     1.0000 0.08390  0.75010  0.93550  Biso   1.000  C
  C239     1.0000 0.41610  0.25010  0.56450  Biso   1.000  C
  C240     1.0000 0.58390  0.25010  0.93550  Biso   1.000  C
  H145     1.0000 0.08130  0.25490  0.39210  Biso   1.000  H
  H146     1.0000 0.91870  0.25490  0.10790  Biso   1.000  H
  H147     1.0000 0.58130  0.75490  0.39210  Biso   1.000  H
  H148     1.0000 0.41870  0.75490  0.10790  Biso   1.000  H
  H149     1.0000 0.91870  0.74510  0.60790  Biso   1.000  H
  H150     1.0000 0.08130  0.74510  0.89210  Biso   1.000  H
  H151     1.0000 0.41870  0.24510  0.60790  Biso   1.000  H
  H152     1.0000 0.58130  0.24510  0.89210  Biso   1.000  H
  C241     1.0000 0.05740  0.26950  0.47000  Biso   1.000  C
  C242     1.0000 0.94260  0.26950  0.03000  Biso   1.000  C
  C243     1.0000 0.55740  0.76950  0.47000  Biso   1.000  C
  C244     1.0000 0.44260  0.76950  0.03000  Biso   1.000  C
  C245     1.0000 0.94260  0.73050  0.53000  Biso   1.000  C
  C246     1.0000 0.05740  0.73050  0.97000  Biso   1.000  C
  C247     1.0000 0.44260  0.23050  0.53000  Biso   1.000  C
  C248     1.0000 0.55740  0.23050  0.97000  Biso   1.000  C
  C249     1.0000 0.02690  0.29850  0.44330  Biso   1.000  C
  C250     1.0000 0.97310  0.29850  0.05670  Biso   1.000  C
  C251     1.0000 0.52690  0.79850  0.44330  Biso   1.000  C
  C252     1.0000 0.47310  0.79850  0.05670  Biso   1.000  C
  C253     1.0000 0.97310  0.70150  0.55670  Biso   1.000  C
  C254     1.0000 0.02690  0.70150  0.94330  Biso   1.000  C
  C255     1.0000 0.47310  0.20150  0.55670  Biso   1.000  C
  C256     1.0000 0.52690  0.20150  0.94330  Biso   1.000  C
  H153     1.0000 0.02330  0.30450  0.40010  Biso   1.000  H
  H154     1.0000 0.97670  0.30450  0.09990  Biso   1.000  H
  H155     1.0000 0.52330  0.80450  0.40010  Biso   1.000  H
  H156     1.0000 0.47670  0.80450  0.09990  Biso   1.000  H
  H157     1.0000 0.97670  0.69550  0.59990  Biso   1.000  H
  H158     1.0000 0.02330  0.69550  0.90010  Biso   1.000  H
  H159     1.0000 0.47670  0.19550  0.59990  Biso   1.000  H
  H160     1.0000 0.52330  0.19550  0.90010  Biso   1.000  H
  C257     1.0000 0.00230  0.31830  0.48020  Biso   1.000  C
  C258     1.0000 0.99770  0.31830  0.01980  Biso   1.000  C
  C259     1.0000 0.50230  0.81830  0.48020  Biso   1.000  C
  C260     1.0000 0.49770  0.81830  0.01980  Biso   1.000  C
  C261     1.0000 0.99770  0.68170  0.51980  Biso   1.000  C
  C262     1.0000 0.00230  0.68170  0.98020  Biso   1.000  C
  C263     1.0000 0.49770  0.18170  0.51980  Biso   1.000  C
  C264     1.0000 0.50230  0.18170  0.98020  Biso   1.000  C
  H161     1.0000 0.98220  0.33890  0.46210  Biso   1.000  H
  H162     1.0000 0.01780  0.33890  0.03790  Biso   1.000  H
  H163     1.0000 0.48220  0.83890  0.46210  Biso   1.000  H
  H164     1.0000 0.51780  0.83890  0.03790  Biso   1.000  H
  H165     1.0000 0.01780  0.66110  0.53790  Biso   1.000  H
  H166     1.0000 0.98220  0.66110  0.96210  Biso   1.000  H
  H167     1.0000 0.51780  0.16110  0.53790  Biso   1.000  H
  H168     1.0000 0.48220  0.16110  0.96210  Biso   1.000  H
  C265     1.0000 0.00640  0.30900  0.54050  Biso   1.000  C
  C266     1.0000 0.99360  0.30900  0.95950  Biso   1.000  C
  C267     1.0000 0.50640  0.80900  0.54050  Biso   1.000  C
  C268     1.0000 0.49360  0.80900  0.95950  Biso   1.000  C
  C269     1.0000 0.99360  0.69100  0.45950  Biso   1.000  C
  C270     1.0000 0.00640  0.69100  0.04050  Biso   1.000  C
  C271     1.0000 0.49360  0.19100  0.45950  Biso   1.000  C
  C272     1.0000 0.50640  0.19100  0.04050  Biso   1.000  C
  H169     1.0000 0.98860  0.32220  0.56410  Biso   1.000  H
  H170     1.0000 0.01140  0.32220  0.93590  Biso   1.000  H
  H171     1.0000 0.48860  0.82220  0.56410  Biso   1.000  H
  H172     1.0000 0.51140  0.82220  0.93590  Biso   1.000  H
  H173     1.0000 0.01140  0.67780  0.43590  Biso   1.000  H
  H174     1.0000 0.98860  0.67780  0.06410  Biso   1.000  H
  H175     1.0000 0.51140  0.17780  0.43590  Biso   1.000  H
  H176     1.0000 0.48860  0.17780  0.06410  Biso   1.000  H
  C273     1.0000 0.03460  0.28140  0.56980  Biso   1.000  C
  C274     1.0000 0.96540  0.28140  0.93020  Biso   1.000  C
  C275     1.0000 0.53460  0.78140  0.56980  Biso   1.000  C
  C276     1.0000 0.46540  0.78140  0.93020  Biso   1.000  C
  C277     1.0000 0.96540  0.71860  0.43020  Biso   1.000  C
  C278     1.0000 0.03460  0.71860  0.06980  Biso   1.000  C
  C279     1.0000 0.46540  0.21860  0.43020  Biso   1.000  C
  C280     1.0000 0.53460  0.21860  0.06980  Biso   1.000  C
  H177     1.0000 0.03660  0.27560  0.61300  Biso   1.000  H
  H178     1.0000 0.96340  0.27560  0.88700  Biso   1.000  H
  H179     1.0000 0.53660  0.77560  0.61300  Biso   1.000  H
  H180     1.0000 0.46340  0.77560  0.88700  Biso   1.000  H
  H181     1.0000 0.96340  0.72440  0.38700  Biso   1.000  H
  H182     1.0000 0.03660  0.72440  0.11300  Biso   1.000  H
  H183     1.0000 0.46340  0.22440  0.38700  Biso   1.000  H
  H184     1.0000 0.53660  0.22440  0.11300  Biso   1.000  H
  C281     1.0000 0.06170  0.26100  0.53460  Biso   1.000  C
  C282     1.0000 0.93830  0.26100  0.96540  Biso   1.000  C
  C283     1.0000 0.56170  0.76100  0.53460  Biso   1.000  C
  C284     1.0000 0.43830  0.76100  0.96540  Biso   1.000  C
  C285     1.0000 0.93830  0.73900  0.46540  Biso   1.000  C
  C286     1.0000 0.06170  0.73900  0.03460  Biso   1.000  C
  C287     1.0000 0.43830  0.23900  0.46540  Biso   1.000  C
  C288     1.0000 0.56170  0.23900  0.03460  Biso   1.000  C
  C289     1.0000 0.09220  0.23320  0.56220  Biso   1.000  C
  C290     1.0000 0.90780  0.23320  0.93780  Biso   1.000  C
  C291     1.0000 0.59220  0.73320  0.56220  Biso   1.000  C
  C292     1.0000 0.40780  0.73320  0.93780  Biso   1.000  C
  C293     1.0000 0.90780  0.76680  0.43780  Biso   1.000  C
  C294     1.0000 0.09220  0.76680  0.06220  Biso   1.000  C
  C295     1.0000 0.40780  0.26680  0.43780  Biso   1.000  C
  C296     1.0000 0.59220  0.26680  0.06220  Biso   1.000  C
  H185     1.0000 0.09510  0.22670  0.60530  Biso   1.000  H
  H186     1.0000 0.90490  0.22670  0.89470  Biso   1.000  H
  H187     1.0000 0.59510  0.72670  0.60530  Biso   1.000  H
  H188     1.0000 0.40490  0.72670  0.89470  Biso   1.000  H
  H189     1.0000 0.90490  0.77330  0.39470  Biso   1.000  H
  H190     1.0000 0.09510  0.77330  0.10530  Biso   1.000  H
  H191     1.0000 0.40490  0.27330  0.39470  Biso   1.000  H
  H192     1.0000 0.59510  0.27330  0.10530  Biso   1.000  H
  C297     1.0000 0.11730  0.21560  0.52750  Biso   1.000  C
  C298     1.0000 0.88270  0.21560  0.97250  Biso   1.000  C
  C299     1.0000 0.61730  0.71560  0.52750  Biso   1.000  C
  C300     1.0000 0.38270  0.71560  0.97250  Biso   1.000  C
  C301     1.0000 0.88270  0.78440  0.47250  Biso   1.000  C
  C302     1.0000 0.11730  0.78440  0.02750  Biso   1.000  C
  C303     1.0000 0.38270  0.28440  0.47250  Biso   1.000  C
  C304     1.0000 0.61730  0.28440  0.02750  Biso   1.000  C
  C305     1.0000 0.15860  0.13660  0.55040  Biso   1.000  C
  C306     1.0000 0.84140  0.13660  0.94960  Biso   1.000  C
  C307     1.0000 0.65860  0.63660  0.55040  Biso   1.000  C
  C308     1.0000 0.34140  0.63660  0.94960  Biso   1.000  C
  C309     1.0000 0.84140  0.86340  0.44960  Biso   1.000  C
  C310     1.0000 0.15860  0.86340  0.05040  Biso   1.000  C
  C311     1.0000 0.34140  0.36340  0.44960  Biso   1.000  C
  C312     1.0000 0.65860  0.36340  0.05040  Biso   1.000  C
  C313     1.0000 0.20340  0.16570  0.63650  Biso   1.000  C
  C314     1.0000 0.79660  0.16570  0.86350  Biso   1.000  C
  C315     1.0000 0.70340  0.66570  0.63650  Biso   1.000  C
  C316     1.0000 0.29660  0.66570  0.86350  Biso   1.000  C
  C317     1.0000 0.79660  0.83430  0.36350  Biso   1.000  C
  C318     1.0000 0.20340  0.83430  0.13650  Biso   1.000  C
  C319     1.0000 0.29660  0.33430  0.36350  Biso   1.000  C
  C320     1.0000 0.70340  0.33430  0.13650  Biso   1.000  C
  H193     1.0000 0.19190  0.20350  0.63830  Biso   1.000  H
  H194     1.0000 0.80810  0.20350  0.86170  Biso   1.000  H
  H195     1.0000 0.69190  0.70350  0.63830  Biso   1.000  H
  H196     1.0000 0.30810  0.70350  0.86170  Biso   1.000  H
  H197     1.0000 0.80810  0.79650  0.36170  Biso   1.000  H
  H198     1.0000 0.19190  0.79650  0.13830  Biso   1.000  H
  H199     1.0000 0.30810  0.29650  0.36170  Biso   1.000  H
  H200     1.0000 0.69190  0.29650  0.13830  Biso   1.000  H
  C321     1.0000 0.19070  0.12440  0.59170  Biso   1.000  C
  C322     1.0000 0.80930  0.12440  0.90830  Biso   1.000  C
  C323     1.0000 0.69070  0.62440  0.59170  Biso   1.000  C
  C324     1.0000 0.30930  0.62440  0.90830  Biso   1.000  C
  C325     1.0000 0.80930  0.87560  0.40830  Biso   1.000  C
  C326     1.0000 0.19070  0.87560  0.09170  Biso   1.000  C
  C327     1.0000 0.30930  0.37560  0.40830  Biso   1.000  C
  C328     1.0000 0.69070  0.37560  0.09170  Biso   1.000  C
  C329     1.0000 0.20790  0.06880  0.58800  Biso   1.000  C
  C330     1.0000 0.79210  0.06880  0.91200  Biso   1.000  C
  C331     1.0000 0.70790  0.56880  0.58800  Biso   1.000  C
  C332     1.0000 0.29210  0.56880  0.91200  Biso   1.000  C
  C333     1.0000 0.79210  0.93120  0.41200  Biso   1.000  C
  C334     1.0000 0.20790  0.93120  0.08800  Biso   1.000  C
  C335     1.0000 0.29210  0.43120  0.41200  Biso   1.000  C
  C336     1.0000 0.70790  0.43120  0.08800  Biso   1.000  C
  H201     1.0000 0.19980  0.03990  0.55780  Biso   1.000  H
  H202     1.0000 0.80020  0.03990  0.94220  Biso   1.000  H
  H203     1.0000 0.69980  0.53990  0.55780  Biso   1.000  H
  H204     1.0000 0.30020  0.53990  0.94220  Biso   1.000  H
  H205     1.0000 0.80020  0.96010  0.44220  Biso   1.000  H
  H206     1.0000 0.19980  0.96010  0.05780  Biso   1.000  H
  H207     1.0000 0.30020  0.46010  0.44220  Biso   1.000  H
  H208     1.0000 0.69980  0.46010  0.05780  Biso   1.000  H
  C337     1.0000 0.23660  0.05730  0.62930  Biso   1.000  C
  C338     1.0000 0.76340  0.05730  0.87070  Biso   1.000  C
  C339     1.0000 0.73660  0.55730  0.62930  Biso   1.000  C
  C340     1.0000 0.26340  0.55730  0.87070  Biso   1.000  C
  C341     1.0000 0.76340  0.94270  0.37070  Biso   1.000  C
  C342     1.0000 0.23660  0.94270  0.12930  Biso   1.000  C
  C343     1.0000 0.26340  0.44270  0.37070  Biso   1.000  C
  C344     1.0000 0.73660  0.44270  0.12930  Biso   1.000  C
  H209     1.0000 0.24890  0.02040  0.62760  Biso   1.000  H
  H210     1.0000 0.75110  0.02040  0.87240  Biso   1.000  H
  H211     1.0000 0.74890  0.52040  0.62760  Biso   1.000  H
  H212     1.0000 0.25110  0.52040  0.87240  Biso   1.000  H
  H213     1.0000 0.75110  0.97960  0.37240  Biso   1.000  H
  H214     1.0000 0.24890  0.97960  0.12760  Biso   1.000  H
  H215     1.0000 0.25110  0.47960  0.37240  Biso   1.000  H
  H216     1.0000 0.74890  0.47960  0.12760  Biso   1.000  H
  C345     1.0000 0.24730  0.10040  0.67340  Biso   1.000  C
  C346     1.0000 0.75270  0.10040  0.82660  Biso   1.000  C
  C347     1.0000 0.74730  0.60040  0.67340  Biso   1.000  C
  C348     1.0000 0.25270  0.60040  0.82660  Biso   1.000  C
  C349     1.0000 0.75270  0.89960  0.32660  Biso   1.000  C
  C350     1.0000 0.24730  0.89960  0.17340  Biso   1.000  C
  C351     1.0000 0.25270  0.39960  0.32660  Biso   1.000  C
  C352     1.0000 0.74730  0.39960  0.17340  Biso   1.000  C
  H217     1.0000 0.26690  0.09180  0.70220  Biso   1.000  H
  H218     1.0000 0.73310  0.09180  0.79780  Biso   1.000  H
  H219     1.0000 0.76690  0.59180  0.70220  Biso   1.000  H
  H220     1.0000 0.23310  0.59180  0.79780  Biso   1.000  H
  H221     1.0000 0.73310  0.90820  0.29780  Biso   1.000  H
  H222     1.0000 0.26690  0.90820  0.20220  Biso   1.000  H
  H223     1.0000 0.23310  0.40820  0.29780  Biso   1.000  H
  H224     1.0000 0.76690  0.40820  0.20220  Biso   1.000  H
  C353     1.0000 0.33340  0.19610  0.28320  Biso   1.000  C
  C354     1.0000 0.66660  0.19610  0.21680  Biso   1.000  C
  C355     1.0000 0.83340  0.69610  0.28320  Biso   1.000  C
  C356     1.0000 0.16660  0.69610  0.21680  Biso   1.000  C
  C357     1.0000 0.66660  0.80390  0.71680  Biso   1.000  C
  C358     1.0000 0.33340  0.80390  0.78320  Biso   1.000  C
  C359     1.0000 0.16660  0.30390  0.71680  Biso   1.000  C
  C360     1.0000 0.83340  0.30390  0.78320  Biso   1.000  C
  C361     1.0000 0.36120  0.15880  0.28420  Biso   1.000  C
  C362     1.0000 0.63880  0.15880  0.21580  Biso   1.000  C
  C363     1.0000 0.86120  0.65880  0.28420  Biso   1.000  C
  C364     1.0000 0.13880  0.65880  0.21580  Biso   1.000  C
  C365     1.0000 0.63880  0.84120  0.71580  Biso   1.000  C
  C366     1.0000 0.36120  0.84120  0.78420  Biso   1.000  C
  C367     1.0000 0.13880  0.34120  0.71580  Biso   1.000  C
  C368     1.0000 0.86120  0.34120  0.78420  Biso   1.000  C
  H225     1.0000 0.36300  0.13440  0.32180  Biso   1.000  H
  H226     1.0000 0.63700  0.13440  0.17820  Biso   1.000  H
  H227     1.0000 0.86300  0.63440  0.32180  Biso   1.000  H
  H228     1.0000 0.13700  0.63440  0.17820  Biso   1.000  H
  H229     1.0000 0.63700  0.86560  0.67820  Biso   1.000  H
  H230     1.0000 0.36300  0.86560  0.82180  Biso   1.000  H
  H231     1.0000 0.13700  0.36560  0.67820  Biso   1.000  H
  H232     1.0000 0.86300  0.36560  0.82180  Biso   1.000  H
  H233     1.0000 0.38250  0.18270  0.28330  Biso   1.000  H
  H234     1.0000 0.61750  0.18270  0.21670  Biso   1.000  H
  H235     1.0000 0.88250  0.68270  0.28330  Biso   1.000  H
  H236     1.0000 0.11750  0.68270  0.21670  Biso   1.000  H
  H237     1.0000 0.61750  0.81730  0.71670  Biso   1.000  H
  H238     1.0000 0.38250  0.81730  0.78330  Biso   1.000  H
  H239     1.0000 0.11750  0.31730  0.71670  Biso   1.000  H
  H240     1.0000 0.88250  0.31730  0.78330  Biso   1.000  H
  H241     1.0000 0.35830  0.13210  0.24830  Biso   1.000  H
  H242     1.0000 0.64170  0.13210  0.25170  Biso   1.000  H
  H243     1.0000 0.85830  0.63210  0.24830  Biso   1.000  H
  H244     1.0000 0.14170  0.63210  0.25170  Biso   1.000  H
  H245     1.0000 0.64170  0.86790  0.75170  Biso   1.000  H
  H246     1.0000 0.35830  0.86790  0.74830  Biso   1.000  H
  H247     1.0000 0.14170  0.36790  0.75170  Biso   1.000  H
  H248     1.0000 0.85830  0.36790  0.74830  Biso   1.000  H
  C369     1.0000 0.15260  0.36470  0.15640  Biso   1.000  C
  C370     1.0000 0.84740  0.36470  0.34360  Biso   1.000  C
  C371     1.0000 0.65260  0.86470  0.15640  Biso   1.000  C
  C372     1.0000 0.34740  0.86470  0.34360  Biso   1.000  C
  C373     1.0000 0.84740  0.63530  0.84360  Biso   1.000  C
  C374     1.0000 0.15260  0.63530  0.65640  Biso   1.000  C
  C375     1.0000 0.34740  0.13530  0.84360  Biso   1.000  C
  C376     1.0000 0.65260  0.13530  0.65640  Biso   1.000  C
  H249     1.0000 0.16820  0.34960  0.12760  Biso   1.000  H
  H250     1.0000 0.83180  0.34960  0.37240  Biso   1.000  H
  H251     1.0000 0.66820  0.84960  0.12760  Biso   1.000  H
  H252     1.0000 0.33180  0.84960  0.37240  Biso   1.000  H
  H253     1.0000 0.83180  0.65040  0.87240  Biso   1.000  H
  H254     1.0000 0.16820  0.65040  0.62760  Biso   1.000  H
  H255     1.0000 0.33180  0.15040  0.87240  Biso   1.000  H
  H256     1.0000 0.66820  0.15040  0.62760  Biso   1.000  H
  H257     1.0000 0.14730  0.40720  0.14770  Biso   1.000  H
  H258     1.0000 0.85270  0.40720  0.35230  Biso   1.000  H
  H259     1.0000 0.64730  0.90720  0.14770  Biso   1.000  H
  H260     1.0000 0.35270  0.90720  0.35230  Biso   1.000  H
  H261     1.0000 0.85270  0.59280  0.85230  Biso   1.000  H
  H262     1.0000 0.14730  0.59280  0.64770  Biso   1.000  H
  H263     1.0000 0.35270  0.09280  0.85230  Biso   1.000  H
  H264     1.0000 0.64730  0.09280  0.64770  Biso   1.000  H
  H265     1.0000 0.13100  0.34120  0.15180  Biso   1.000  H
  H266     1.0000 0.86900  0.34120  0.34820  Biso   1.000  H
  H267     1.0000 0.63100  0.84120  0.15180  Biso   1.000  H
  H268     1.0000 0.36900  0.84120  0.34820  Biso   1.000  H
  H269     1.0000 0.86900  0.65880  0.84820  Biso   1.000  H
  H270     1.0000 0.13100  0.65880  0.65180  Biso   1.000  H
  H271     1.0000 0.36900  0.15880  0.84820  Biso   1.000  H
  H272     1.0000 0.63100  0.15880  0.65180  Biso   1.000  H
  C377     1.0000 0.16920  0.35880  0.21860  Biso   1.000  C
  C378     1.0000 0.83080  0.35880  0.28140  Biso   1.000  C
  C379     1.0000 0.66920  0.85880  0.21860  Biso   1.000  C
  C380     1.0000 0.33080  0.85880  0.28140  Biso   1.000  C
  C381     1.0000 0.83080  0.64120  0.78140  Biso   1.000  C
  C382     1.0000 0.16920  0.64120  0.71860  Biso   1.000  C
  C383     1.0000 0.33080  0.14120  0.78140  Biso   1.000  C
  C384     1.0000 0.66920  0.14120  0.71860  Biso   1.000  C
  C385     1.0000 0.14920  0.37950  0.27010  Biso   1.000  C
  C386     1.0000 0.85080  0.37950  0.22990  Biso   1.000  C
  C387     1.0000 0.64920  0.87950  0.27010  Biso   1.000  C
  C388     1.0000 0.35080  0.87950  0.22990  Biso   1.000  C
  C389     1.0000 0.85080  0.62050  0.72990  Biso   1.000  C
  C390     1.0000 0.14920  0.62050  0.77010  Biso   1.000  C
  C391     1.0000 0.35080  0.12050  0.72990  Biso   1.000  C
  C392     1.0000 0.64920  0.12050  0.77010  Biso   1.000  C
  H273     1.0000 0.16320  0.37300  0.30960  Biso   1.000  H
  H274     1.0000 0.83680  0.37300  0.19040  Biso   1.000  H
  H275     1.0000 0.66320  0.87300  0.30960  Biso   1.000  H
  H276     1.0000 0.33680  0.87300  0.19040  Biso   1.000  H
  H277     1.0000 0.83680  0.62700  0.69040  Biso   1.000  H
  H278     1.0000 0.16320  0.62700  0.80960  Biso   1.000  H
  H279     1.0000 0.33680  0.12700  0.69040  Biso   1.000  H
  H280     1.0000 0.66320  0.12700  0.80960  Biso   1.000  H
  H281     1.0000 0.12750  0.35650  0.26910  Biso   1.000  H
  H282     1.0000 0.87250  0.35650  0.23090  Biso   1.000  H
  H283     1.0000 0.62750  0.85650  0.26910  Biso   1.000  H
  H284     1.0000 0.37250  0.85650  0.23090  Biso   1.000  H
  H285     1.0000 0.87250  0.64350  0.73090  Biso   1.000  H
  H286     1.0000 0.12750  0.64350  0.76910  Biso   1.000  H
  H287     1.0000 0.37250  0.14350  0.73090  Biso   1.000  H
  H288     1.0000 0.62750  0.14350  0.76910  Biso   1.000  H
  H289     1.0000 0.14380  0.42250  0.26500  Biso   1.000  H
  H290     1.0000 0.85620  0.42250  0.23500  Biso   1.000  H
  H291     1.0000 0.64380  0.92250  0.26500  Biso   1.000  H
  H292     1.0000 0.35620  0.92250  0.23500  Biso   1.000  H
  H293     1.0000 0.85620  0.57750  0.73500  Biso   1.000  H
  H294     1.0000 0.14380  0.57750  0.76500  Biso   1.000  H
  H295     1.0000 0.35620  0.07750  0.73500  Biso   1.000  H
  H296     1.0000 0.64380  0.07750  0.76500  Biso   1.000  H
  Cu9      1.0000 0.00000  0.98404  0.75000  Biso   1.000  Cu
  Cu10     1.0000 0.50000  0.48404  0.75000  Biso   1.000  Cu
  Cu11     1.0000 0.00000  0.01596  0.25000  Biso   1.000  Cu
  Cu12     1.0000 0.50000  0.51596  0.25000  Biso   1.000  Cu
  O73      1.0000 0.12514  0.08270  0.95300  Biso   1.000  O
  O74      1.0000 0.87486  0.08270  0.54700  Biso   1.000  O
  O75      1.0000 0.62514  0.58270  0.95300  Biso   1.000  O
  O76      1.0000 0.37486  0.58270  0.54700  Biso   1.000  O
  O77      1.0000 0.87486  0.91730  0.04700  Biso   1.000  O
  O78      1.0000 0.12514  0.91730  0.45300  Biso   1.000  O
  O79      1.0000 0.37486  0.41730  0.04700  Biso   1.000  O
  O80      1.0000 0.62514  0.41730  0.45300  Biso   1.000  O
  O81      1.0000 0.07467  0.12420  0.91230  Biso   1.000  O
  O82      1.0000 0.92533  0.12420  0.58770  Biso   1.000  O
  O83      1.0000 0.57467  0.62420  0.91230  Biso   1.000  O
  O84      1.0000 0.42533  0.62420  0.58770  Biso   1.000  O
  O85      1.0000 0.92533  0.87580  0.08770  Biso   1.000  O
  O86      1.0000 0.07467  0.87580  0.41230  Biso   1.000  O
  O87      1.0000 0.42533  0.37580  0.08770  Biso   1.000  O
  O88      1.0000 0.57467  0.37580  0.41230  Biso   1.000  O
  O89      1.0000 0.02981  0.16790  0.06790  Biso   1.000  O
  O90      1.0000 0.97019  0.16790  0.43210  Biso   1.000  O
  O91      1.0000 0.52981  0.66790  0.06790  Biso   1.000  O
  O92      1.0000 0.47019  0.66790  0.43210  Biso   1.000  O
  O93      1.0000 0.97019  0.83210  0.93210  Biso   1.000  O
  O94      1.0000 0.02981  0.83210  0.56790  Biso   1.000  O
  O95      1.0000 0.47019  0.33210  0.93210  Biso   1.000  O
  O96      1.0000 0.52981  0.33210  0.56790  Biso   1.000  O
  O97      1.0000 0.08091  0.13730  0.03750  Biso   1.000  O
  O98      1.0000 0.91909  0.13730  0.46250  Biso   1.000  O
  O99      1.0000 0.58091  0.63730  0.03750  Biso   1.000  O
  O100     1.0000 0.41909  0.63730  0.46250  Biso   1.000  O
  O101     1.0000 0.91909  0.86270  0.96250  Biso   1.000  O
  O102     1.0000 0.08091  0.86270  0.53750  Biso   1.000  O
  O103     1.0000 0.41909  0.36270  0.96250  Biso   1.000  O
  O104     1.0000 0.58091  0.36270  0.53750  Biso   1.000  O
  O105     1.0000 0.00000  0.86780  0.75000  Biso   1.000  O
  O106     1.0000 0.50000  0.36780  0.75000  Biso   1.000  O
  O107     1.0000 0.00000  0.13220  0.25000  Biso   1.000  O
  O108     1.0000 0.50000  0.63220  0.25000  Biso   1.000  O
  N41      1.0000 0.04415  0.97820  0.81110  Biso   1.000  N
  N42      1.0000 0.95585  0.97820  0.68890  Biso   1.000  N
  N43      1.0000 0.54415  0.47820  0.81110  Biso   1.000  N
  N44      1.0000 0.45585  0.47820  0.68890  Biso   1.000  N
  N45      1.0000 0.95585  0.02180  0.18890  Biso   1.000  N
  N46      1.0000 0.04415  0.02180  0.31110  Biso   1.000  N
  N47      1.0000 0.45585  0.52180  0.18890  Biso   1.000  N
  N48      1.0000 0.54415  0.52180  0.31110  Biso   1.000  N
  N49      1.0000 0.03117  0.01830  0.18230  Biso   1.000  N
  N50      1.0000 0.96883  0.01830  0.31770  Biso   1.000  N
  N51      1.0000 0.53117  0.51830  0.18230  Biso   1.000  N
  N52      1.0000 0.46883  0.51830  0.31770  Biso   1.000  N
  N53      1.0000 0.96883  0.98170  0.81770  Biso   1.000  N
  N54      1.0000 0.03117  0.98170  0.68230  Biso   1.000  N
  N55      1.0000 0.46883  0.48170  0.81770  Biso   1.000  N
  N56      1.0000 0.53117  0.48170  0.68230  Biso   1.000  N
  N57      1.0000 0.00000  0.09080  0.75000  Biso   1.000  N
  N58      1.0000 0.50000  0.59080  0.75000  Biso   1.000  N
  N59      1.0000 0.00000  0.90920  0.25000  Biso   1.000  N
  N60      1.0000 0.50000  0.40920  0.25000  Biso   1.000  N
  C393     1.0000 0.06510  0.92870  0.81490  Biso   1.000  C
  C394     1.0000 0.93490  0.92870  0.68510  Biso   1.000  C
  C395     1.0000 0.56510  0.42870  0.81490  Biso   1.000  C
  C396     1.0000 0.43490  0.42870  0.68510  Biso   1.000  C
  C397     1.0000 0.93490  0.07130  0.18510  Biso   1.000  C
  C398     1.0000 0.06510  0.07130  0.31490  Biso   1.000  C
  C399     1.0000 0.43490  0.57130  0.18510  Biso   1.000  C
  C400     1.0000 0.56510  0.57130  0.31490  Biso   1.000  C
  H297     1.0000 0.05850  0.89560  0.78860  Biso   1.000  H
  H298     1.0000 0.94150  0.89560  0.71140  Biso   1.000  H
  H299     1.0000 0.55850  0.39560  0.78860  Biso   1.000  H
  H300     1.0000 0.44150  0.39560  0.71140  Biso   1.000  H
  H301     1.0000 0.94150  0.10440  0.21140  Biso   1.000  H
  H302     1.0000 0.05850  0.10440  0.28860  Biso   1.000  H
  H303     1.0000 0.44150  0.60440  0.21140  Biso   1.000  H
  H304     1.0000 0.55850  0.60440  0.28860  Biso   1.000  H
  C401     1.0000 0.09450  0.92380  0.85360  Biso   1.000  C
  C402     1.0000 0.90550  0.92380  0.64640  Biso   1.000  C
  C403     1.0000 0.59450  0.42380  0.85360  Biso   1.000  C
  C404     1.0000 0.40550  0.42380  0.64640  Biso   1.000  C
  C405     1.0000 0.90550  0.07620  0.14640  Biso   1.000  C
  C406     1.0000 0.09450  0.07620  0.35360  Biso   1.000  C
  C407     1.0000 0.40550  0.57620  0.14640  Biso   1.000  C
  C408     1.0000 0.59450  0.57620  0.35360  Biso   1.000  C
  H305     1.0000 0.10770  0.88770  0.85480  Biso   1.000  H
  H306     1.0000 0.89230  0.88770  0.64520  Biso   1.000  H
  H307     1.0000 0.60770  0.38770  0.85480  Biso   1.000  H
  H308     1.0000 0.39230  0.38770  0.64520  Biso   1.000  H
  H309     1.0000 0.89230  0.11230  0.14520  Biso   1.000  H
  H310     1.0000 0.10770  0.11230  0.35480  Biso   1.000  H
  H311     1.0000 0.39230  0.61230  0.14520  Biso   1.000  H
  H312     1.0000 0.60770  0.61230  0.35480  Biso   1.000  H
  C409     1.0000 0.10550  0.97180  0.89200  Biso   1.000  C
  C410     1.0000 0.89450  0.97180  0.60800  Biso   1.000  C
  C411     1.0000 0.60550  0.47180  0.89200  Biso   1.000  C
  C412     1.0000 0.39450  0.47180  0.60800  Biso   1.000  C
  C413     1.0000 0.89450  0.02820  0.10800  Biso   1.000  C
  C414     1.0000 0.10550  0.02820  0.39200  Biso   1.000  C
  C415     1.0000 0.39450  0.52820  0.10800  Biso   1.000  C
  C416     1.0000 0.60550  0.52820  0.39200  Biso   1.000  C
  H313     1.0000 0.12570  0.96870  0.92070  Biso   1.000  H
  H314     1.0000 0.87430  0.96870  0.57930  Biso   1.000  H
  H315     1.0000 0.62570  0.46870  0.92070  Biso   1.000  H
  H316     1.0000 0.37430  0.46870  0.57930  Biso   1.000  H
  H317     1.0000 0.87430  0.03130  0.07930  Biso   1.000  H
  H318     1.0000 0.12570  0.03130  0.42070  Biso   1.000  H
  H319     1.0000 0.37430  0.53130  0.07930  Biso   1.000  H
  H320     1.0000 0.62570  0.53130  0.42070  Biso   1.000  H
  C417     1.0000 0.08560  0.02510  0.88650  Biso   1.000  C
  C418     1.0000 0.91440  0.02510  0.61350  Biso   1.000  C
  C419     1.0000 0.58560  0.52510  0.88650  Biso   1.000  C
  C420     1.0000 0.41440  0.52510  0.61350  Biso   1.000  C
  C421     1.0000 0.91440  0.97490  0.11350  Biso   1.000  C
  C422     1.0000 0.08560  0.97490  0.38650  Biso   1.000  C
  C423     1.0000 0.41440  0.47490  0.11350  Biso   1.000  C
  C424     1.0000 0.58560  0.47490  0.38650  Biso   1.000  C
  C425     1.0000 0.05500  0.02460  0.84700  Biso   1.000  C
  C426     1.0000 0.94500  0.02460  0.65300  Biso   1.000  C
  C427     1.0000 0.55500  0.52460  0.84700  Biso   1.000  C
  C428     1.0000 0.44500  0.52460  0.65300  Biso   1.000  C
  C429     1.0000 0.94500  0.97540  0.15300  Biso   1.000  C
  C430     1.0000 0.05500  0.97540  0.34700  Biso   1.000  C
  C431     1.0000 0.44500  0.47540  0.15300  Biso   1.000  C
  C432     1.0000 0.55500  0.47540  0.34700  Biso   1.000  C
  H321     1.0000 0.04080  0.05960  0.84550  Biso   1.000  H
  H322     1.0000 0.95920  0.05960  0.65450  Biso   1.000  H
  H323     1.0000 0.54080  0.55960  0.84550  Biso   1.000  H
  H324     1.0000 0.45920  0.55960  0.65450  Biso   1.000  H
  H325     1.0000 0.95920  0.94040  0.15450  Biso   1.000  H
  H326     1.0000 0.04080  0.94040  0.34550  Biso   1.000  H
  H327     1.0000 0.45920  0.44040  0.15450  Biso   1.000  H
  H328     1.0000 0.54080  0.44040  0.34550  Biso   1.000  H
  C433     1.0000 0.09820  0.07850  0.92200  Biso   1.000  C
  C434     1.0000 0.90180  0.07850  0.57800  Biso   1.000  C
  C435     1.0000 0.59820  0.57850  0.92200  Biso   1.000  C
  C436     1.0000 0.40180  0.57850  0.57800  Biso   1.000  C
  C437     1.0000 0.90180  0.92150  0.07800  Biso   1.000  C
  C438     1.0000 0.09820  0.92150  0.42200  Biso   1.000  C
  C439     1.0000 0.40180  0.42150  0.07800  Biso   1.000  C
  C440     1.0000 0.59820  0.42150  0.42200  Biso   1.000  C
  C441     1.0000 0.08170  0.18140  0.93830  Biso   1.000  C
  C442     1.0000 0.91830  0.18140  0.56170  Biso   1.000  C
  C443     1.0000 0.58170  0.68140  0.93830  Biso   1.000  C
  C444     1.0000 0.41830  0.68140  0.56170  Biso   1.000  C
  C445     1.0000 0.91830  0.81860  0.06170  Biso   1.000  C
  C446     1.0000 0.08170  0.81860  0.43830  Biso   1.000  C
  C447     1.0000 0.41830  0.31860  0.06170  Biso   1.000  C
  C448     1.0000 0.58170  0.31860  0.43830  Biso   1.000  C
  C449     1.0000 0.08460  0.22790  0.90010  Biso   1.000  C
  C450     1.0000 0.91540  0.22790  0.59990  Biso   1.000  C
  C451     1.0000 0.58460  0.72790  0.90010  Biso   1.000  C
  C452     1.0000 0.41540  0.72790  0.59990  Biso   1.000  C
  C453     1.0000 0.91540  0.77210  0.09990  Biso   1.000  C
  C454     1.0000 0.08460  0.77210  0.40010  Biso   1.000  C
  C455     1.0000 0.41540  0.27210  0.09990  Biso   1.000  C
  C456     1.0000 0.58460  0.27210  0.40010  Biso   1.000  C
  H329     1.0000 0.08440  0.22110  0.85720  Biso   1.000  H
  H330     1.0000 0.91560  0.22110  0.64280  Biso   1.000  H
  H331     1.0000 0.58440  0.72110  0.85720  Biso   1.000  H
  H332     1.0000 0.41560  0.72110  0.64280  Biso   1.000  H
  H333     1.0000 0.91560  0.77890  0.14280  Biso   1.000  H
  H334     1.0000 0.08440  0.77890  0.35720  Biso   1.000  H
  H335     1.0000 0.41560  0.27890  0.14280  Biso   1.000  H
  H336     1.0000 0.58440  0.27890  0.35720  Biso   1.000  H
  C457     1.0000 0.08790  0.28730  0.92370  Biso   1.000  C
  C458     1.0000 0.91210  0.28730  0.57630  Biso   1.000  C
  C459     1.0000 0.58790  0.78730  0.92370  Biso   1.000  C
  C460     1.0000 0.41210  0.78730  0.57630  Biso   1.000  C
  C461     1.0000 0.91210  0.71270  0.07630  Biso   1.000  C
  C462     1.0000 0.08790  0.71270  0.42370  Biso   1.000  C
  C463     1.0000 0.41210  0.21270  0.07630  Biso   1.000  C
  C464     1.0000 0.58790  0.21270  0.42370  Biso   1.000  C
  C465     1.0000 0.08970  0.33870  0.88560  Biso   1.000  C
  C466     1.0000 0.91030  0.33870  0.61440  Biso   1.000  C
  C467     1.0000 0.58970  0.83870  0.88560  Biso   1.000  C
  C468     1.0000 0.41030  0.83870  0.61440  Biso   1.000  C
  C469     1.0000 0.91030  0.66130  0.11440  Biso   1.000  C
  C470     1.0000 0.08970  0.66130  0.38560  Biso   1.000  C
  C471     1.0000 0.41030  0.16130  0.11440  Biso   1.000  C
  C472     1.0000 0.58970  0.16130  0.38560  Biso   1.000  C
  H337     1.0000 0.09010  0.33280  0.84270  Biso   1.000  H
  H338     1.0000 0.90990  0.33280  0.65730  Biso   1.000  H
  H339     1.0000 0.59010  0.83280  0.84270  Biso   1.000  H
  H340     1.0000 0.40990  0.83280  0.65730  Biso   1.000  H
  H341     1.0000 0.90990  0.66720  0.15730  Biso   1.000  H
  H342     1.0000 0.09010  0.66720  0.34270  Biso   1.000  H
  H343     1.0000 0.40990  0.16720  0.15730  Biso   1.000  H
  H344     1.0000 0.59010  0.16720  0.34270  Biso   1.000  H
  C473     1.0000 0.09080  0.39490  0.90750  Biso   1.000  C
  C474     1.0000 0.90920  0.39490  0.59250  Biso   1.000  C
  C475     1.0000 0.59080  0.89490  0.90750  Biso   1.000  C
  C476     1.0000 0.40920  0.89490  0.59250  Biso   1.000  C
  C477     1.0000 0.90920  0.60510  0.09250  Biso   1.000  C
  C478     1.0000 0.09080  0.60510  0.40750  Biso   1.000  C
  C479     1.0000 0.40920  0.10510  0.09250  Biso   1.000  C
  C480     1.0000 0.59080  0.10510  0.40750  Biso   1.000  C
  H345     1.0000 0.09150  0.42840  0.88070  Biso   1.000  H
  H346     1.0000 0.90850  0.42840  0.61930  Biso   1.000  H
  H347     1.0000 0.59150  0.92840  0.88070  Biso   1.000  H
  H348     1.0000 0.40850  0.92840  0.61930  Biso   1.000  H
  H349     1.0000 0.90850  0.57160  0.11930  Biso   1.000  H
  H350     1.0000 0.09150  0.57160  0.38070  Biso   1.000  H
  H351     1.0000 0.40850  0.07160  0.11930  Biso   1.000  H
  H352     1.0000 0.59150  0.07160  0.38070  Biso   1.000  H
  C481     1.0000 0.09070  0.40360  0.97100  Biso   1.000  C
  C482     1.0000 0.90930  0.40360  0.52900  Biso   1.000  C
  C483     1.0000 0.59070  0.90360  0.97100  Biso   1.000  C
  C484     1.0000 0.40930  0.90360  0.52900  Biso   1.000  C
  C485     1.0000 0.90930  0.59640  0.02900  Biso   1.000  C
  C486     1.0000 0.09070  0.59640  0.47100  Biso   1.000  C
  C487     1.0000 0.40930  0.09640  0.02900  Biso   1.000  C
  C488     1.0000 0.59070  0.09640  0.47100  Biso   1.000  C
  H353     1.0000 0.09090  0.44340  0.98700  Biso   1.000  H
  H354     1.0000 0.90910  0.44340  0.51300  Biso   1.000  H
  H355     1.0000 0.59090  0.94340  0.98700  Biso   1.000  H
  H356     1.0000 0.40910  0.94340  0.51300  Biso   1.000  H
  H357     1.0000 0.90910  0.55660  0.01300  Biso   1.000  H
  H358     1.0000 0.09090  0.55660  0.48700  Biso   1.000  H
  H359     1.0000 0.40910  0.05660  0.01300  Biso   1.000  H
  H360     1.0000 0.59090  0.05660  0.48700  Biso   1.000  H
  C489     1.0000 0.09040  0.35610  0.00970  Biso   1.000  C
  C490     1.0000 0.90960  0.35610  0.49030  Biso   1.000  C
  C491     1.0000 0.59040  0.85610  0.00970  Biso   1.000  C
  C492     1.0000 0.40960  0.85610  0.49030  Biso   1.000  C
  C493     1.0000 0.90960  0.64390  0.99030  Biso   1.000  C
  C494     1.0000 0.09040  0.64390  0.50970  Biso   1.000  C
  C495     1.0000 0.40960  0.14390  0.99030  Biso   1.000  C
  C496     1.0000 0.59040  0.14390  0.50970  Biso   1.000  C
  H361     1.0000 0.09150  0.36330  0.05270  Biso   1.000  H
  H362     1.0000 0.90850  0.36330  0.44730  Biso   1.000  H
  H363     1.0000 0.59150  0.86330  0.05270  Biso   1.000  H
  H364     1.0000 0.40850  0.86330  0.44730  Biso   1.000  H
  H365     1.0000 0.90850  0.63670  0.94730  Biso   1.000  H
  H366     1.0000 0.09150  0.63670  0.55270  Biso   1.000  H
  H367     1.0000 0.40850  0.13670  0.94730  Biso   1.000  H
  H368     1.0000 0.59150  0.13670  0.55270  Biso   1.000  H
  C497     1.0000 0.08830  0.29550  0.98780  Biso   1.000  C
  C498     1.0000 0.91170  0.29550  0.51220  Biso   1.000  C
  C499     1.0000 0.58830  0.79550  0.98780  Biso   1.000  C
  C500     1.0000 0.41170  0.79550  0.51220  Biso   1.000  C
  C501     1.0000 0.91170  0.70450  0.01220  Biso   1.000  C
  C502     1.0000 0.08830  0.70450  0.48780  Biso   1.000  C
  C503     1.0000 0.41170  0.20450  0.01220  Biso   1.000  C
  C504     1.0000 0.58830  0.20450  0.48780  Biso   1.000  C
  C505     1.0000 0.08670  0.24600  0.02650  Biso   1.000  C
  C506     1.0000 0.91330  0.24600  0.47350  Biso   1.000  C
  C507     1.0000 0.58670  0.74600  0.02650  Biso   1.000  C
  C508     1.0000 0.41330  0.74600  0.47350  Biso   1.000  C
  C509     1.0000 0.91330  0.75400  0.97350  Biso   1.000  C
  C510     1.0000 0.08670  0.75400  0.52650  Biso   1.000  C
  C511     1.0000 0.41330  0.25400  0.97350  Biso   1.000  C
  C512     1.0000 0.58670  0.25400  0.52650  Biso   1.000  C
  H369     1.0000 0.08800  0.25130  0.06970  Biso   1.000  H
  H370     1.0000 0.91200  0.25130  0.43030  Biso   1.000  H
  H371     1.0000 0.58800  0.75130  0.06970  Biso   1.000  H
  H372     1.0000 0.41200  0.75130  0.43030  Biso   1.000  H
  H373     1.0000 0.91200  0.74870  0.93030  Biso   1.000  H
  H374     1.0000 0.08800  0.74870  0.56970  Biso   1.000  H
  H375     1.0000 0.41200  0.24870  0.93030  Biso   1.000  H
  H376     1.0000 0.58800  0.24870  0.56970  Biso   1.000  H
  C513     1.0000 0.08300  0.18920  0.00130  Biso   1.000  C
  C514     1.0000 0.91700  0.18920  0.49870  Biso   1.000  C
  C515     1.0000 0.58300  0.68920  0.00130  Biso   1.000  C
  C516     1.0000 0.41700  0.68920  0.49870  Biso   1.000  C
  C517     1.0000 0.91700  0.81080  0.99870  Biso   1.000  C
  C518     1.0000 0.08300  0.81080  0.50130  Biso   1.000  C
  C519     1.0000 0.41700  0.31080  0.99870  Biso   1.000  C
  C520     1.0000 0.58300  0.31080  0.50130  Biso   1.000  C
  C521     1.0000 0.05310  0.13180  0.06840  Biso   1.000  C
  C522     1.0000 0.94690  0.13180  0.43160  Biso   1.000  C
  C523     1.0000 0.55310  0.63180  0.06840  Biso   1.000  C
  C524     1.0000 0.44690  0.63180  0.43160  Biso   1.000  C
  C525     1.0000 0.94690  0.86820  0.93160  Biso   1.000  C
  C526     1.0000 0.05310  0.86820  0.56840  Biso   1.000  C
  C527     1.0000 0.44690  0.36820  0.93160  Biso   1.000  C
  C528     1.0000 0.55310  0.36820  0.56840  Biso   1.000  C
  C529     1.0000 0.03030  0.06730  0.14530  Biso   1.000  C
  C530     1.0000 0.96970  0.06730  0.35470  Biso   1.000  C
  C531     1.0000 0.53030  0.56730  0.14530  Biso   1.000  C
  C532     1.0000 0.46970  0.56730  0.35470  Biso   1.000  C
  C533     1.0000 0.96970  0.93270  0.85470  Biso   1.000  C
  C534     1.0000 0.03030  0.93270  0.64530  Biso   1.000  C
  C535     1.0000 0.46970  0.43270  0.85470  Biso   1.000  C
  C536     1.0000 0.53030  0.43270  0.64530  Biso   1.000  C
  H377     1.0000 0.01290  0.09720  0.14800  Biso   1.000  H
  H378     1.0000 0.98710  0.09720  0.35200  Biso   1.000  H
  H379     1.0000 0.51290  0.59720  0.14800  Biso   1.000  H
  H380     1.0000 0.48710  0.59720  0.35200  Biso   1.000  H
  H381     1.0000 0.98710  0.90280  0.85200  Biso   1.000  H
  H382     1.0000 0.01290  0.90280  0.64800  Biso   1.000  H
  H383     1.0000 0.48710  0.40280  0.85200  Biso   1.000  H
  H384     1.0000 0.51290  0.40280  0.64800  Biso   1.000  H
  C537     1.0000 0.05450  0.07420  0.10360  Biso   1.000  C
  C538     1.0000 0.94550  0.07420  0.39640  Biso   1.000  C
  C539     1.0000 0.55450  0.57420  0.10360  Biso   1.000  C
  C540     1.0000 0.44550  0.57420  0.39640  Biso   1.000  C
  C541     1.0000 0.94550  0.92580  0.89640  Biso   1.000  C
  C542     1.0000 0.05450  0.92580  0.60360  Biso   1.000  C
  C543     1.0000 0.44550  0.42580  0.89640  Biso   1.000  C
  C544     1.0000 0.55450  0.42580  0.60360  Biso   1.000  C
  C545     1.0000 0.07980  0.03060  0.09930  Biso   1.000  C
  C546     1.0000 0.92020  0.03060  0.40070  Biso   1.000  C
  C547     1.0000 0.57980  0.53060  0.09930  Biso   1.000  C
  C548     1.0000 0.42020  0.53060  0.40070  Biso   1.000  C
  C549     1.0000 0.92020  0.96940  0.90070  Biso   1.000  C
  C550     1.0000 0.07980  0.96940  0.59930  Biso   1.000  C
  C551     1.0000 0.42020  0.46940  0.90070  Biso   1.000  C
  C552     1.0000 0.57980  0.46940  0.59930  Biso   1.000  C
  H385     1.0000 0.09680  0.03530  0.07160  Biso   1.000  H
  H386     1.0000 0.90320  0.03530  0.42840  Biso   1.000  H
  H387     1.0000 0.59680  0.53530  0.07160  Biso   1.000  H
  H388     1.0000 0.40320  0.53530  0.42840  Biso   1.000  H
  H389     1.0000 0.90320  0.96470  0.92840  Biso   1.000  H
  H390     1.0000 0.09680  0.96470  0.57160  Biso   1.000  H
  H391     1.0000 0.40320  0.46470  0.92840  Biso   1.000  H
  H392     1.0000 0.59680  0.46470  0.57160  Biso   1.000  H
  C553     1.0000 0.07950  0.98130  0.13540  Biso   1.000  C
  C554     1.0000 0.92050  0.98130  0.36460  Biso   1.000  C
  C555     1.0000 0.57950  0.48130  0.13540  Biso   1.000  C
  C556     1.0000 0.42050  0.48130  0.36460  Biso   1.000  C
  C557     1.0000 0.92050  0.01870  0.86460  Biso   1.000  C
  C558     1.0000 0.07950  0.01870  0.63540  Biso   1.000  C
  C559     1.0000 0.42050  0.51870  0.86460  Biso   1.000  C
  C560     1.0000 0.57950  0.51870  0.63540  Biso   1.000  C
  H393     1.0000 0.09620  0.95030  0.13250  Biso   1.000  H
  H394     1.0000 0.90380  0.95030  0.36750  Biso   1.000  H
  H395     1.0000 0.59620  0.45030  0.13250  Biso   1.000  H
  H396     1.0000 0.40380  0.45030  0.36750  Biso   1.000  H
  H397     1.0000 0.90380  0.04970  0.86750  Biso   1.000  H
  H398     1.0000 0.09620  0.04970  0.63250  Biso   1.000  H
  H399     1.0000 0.40380  0.54970  0.86750  Biso   1.000  H
  H400     1.0000 0.59620  0.54970  0.63250  Biso   1.000  H
  C561     1.0000 0.05480  0.97570  0.17670  Biso   1.000  C
  C562     1.0000 0.94520  0.97570  0.32330  Biso   1.000  C
  C563     1.0000 0.55480  0.47570  0.17670  Biso   1.000  C
  C564     1.0000 0.44520  0.47570  0.32330  Biso   1.000  C
  C565     1.0000 0.94520  0.02430  0.82330  Biso   1.000  C
  C566     1.0000 0.05480  0.02430  0.67670  Biso   1.000  C
  C567     1.0000 0.44520  0.52430  0.82330  Biso   1.000  C
  C568     1.0000 0.55480  0.52430  0.67670  Biso   1.000  C
  H401     1.0000 0.05490  0.94060  0.20160  Biso   1.000  H
  H402     1.0000 0.94510  0.94060  0.29840  Biso   1.000  H
  H403     1.0000 0.55490  0.44060  0.20160  Biso   1.000  H
  H404     1.0000 0.44510  0.44060  0.29840  Biso   1.000  H
  H405     1.0000 0.94510  0.05940  0.79840  Biso   1.000  H
  H406     1.0000 0.05490  0.05940  0.70160  Biso   1.000  H
  H407     1.0000 0.44510  0.55940  0.79840  Biso   1.000  H
  H408     1.0000 0.55490  0.55940  0.70160  Biso   1.000  H
  C569     1.0000 0.00000  0.14270  0.75000  Biso   1.000  C
  C570     1.0000 0.50000  0.64270  0.75000  Biso   1.000  C
  C571     1.0000 0.00000  0.85730  0.25000  Biso   1.000  C
  C572     1.0000 0.50000  0.35730  0.25000  Biso   1.000  C
  C573     1.0000 0.00000  0.20310  0.75000  Biso   1.000  C
  C574     1.0000 0.50000  0.70310  0.75000  Biso   1.000  C
  C575     1.0000 0.00000  0.79690  0.25000  Biso   1.000  C
  C576     1.0000 0.50000  0.29690  0.25000  Biso   1.000  C
  C577     1.0000 0.00000  0.81370  0.75000  Biso   1.000  C
  C578     1.0000 0.50000  0.31370  0.75000  Biso   1.000  C
  C579     1.0000 0.00000  0.18630  0.25000  Biso   1.000  C
  C580     1.0000 0.50000  0.68630  0.25000  Biso   1.000  C
  C581     1.0000 0.99190  0.77610  0.69240  Biso   1.000  C
  C582     1.0000 0.00810  0.77610  0.80760  Biso   1.000  C
  C583     1.0000 0.49190  0.27610  0.69240  Biso   1.000  C
  C584     1.0000 0.50810  0.27610  0.80760  Biso   1.000  C
  C585     1.0000 0.00810  0.22390  0.30760  Biso   1.000  C
  C586     1.0000 0.99190  0.22390  0.19240  Biso   1.000  C
  C587     1.0000 0.50810  0.72390  0.30760  Biso   1.000  C
  C588     1.0000 0.49190  0.72390  0.19240  Biso   1.000  C
  H409     1.0000 0.99340  0.73320  0.70310  Biso   1.000  H
  H410     1.0000 0.00660  0.73320  0.79690  Biso   1.000  H
  H411     1.0000 0.49340  0.23320  0.70310  Biso   1.000  H
  H412     1.0000 0.50660  0.23320  0.79690  Biso   1.000  H
  H413     1.0000 0.00660  0.26680  0.29690  Biso   1.000  H
  H414     1.0000 0.99340  0.26680  0.20310  Biso   1.000  H
  H415     1.0000 0.50660  0.76680  0.29690  Biso   1.000  H
  H416     1.0000 0.49340  0.76680  0.20310  Biso   1.000  H
  H417     1.0000 0.00860  0.78550  0.66320  Biso   1.000  H
  H418     1.0000 0.99140  0.78550  0.83680  Biso   1.000  H
  H419     1.0000 0.50860  0.28550  0.66320  Biso   1.000  H
  H420     1.0000 0.49140  0.28550  0.83680  Biso   1.000  H
  H421     1.0000 0.99140  0.21450  0.33680  Biso   1.000  H
  H422     1.0000 0.00860  0.21450  0.16320  Biso   1.000  H
  H423     1.0000 0.49140  0.71450  0.33680  Biso   1.000  H
  H424     1.0000 0.50860  0.71450  0.16320  Biso   1.000  H
  H425     1.0000 0.96830  0.78530  0.67360  Biso   1.000  H
  H426     1.0000 0.03170  0.78530  0.82640  Biso   1.000  H
  H427     1.0000 0.46830  0.28530  0.67360  Biso   1.000  H
  H428     1.0000 0.53170  0.28530  0.82640  Biso   1.000  H
  H429     1.0000 0.03170  0.21470  0.32640  Biso   1.000  H
  H430     1.0000 0.96830  0.21470  0.17360  Biso   1.000  H
  H431     1.0000 0.53170  0.71470  0.32640  Biso   1.000  H
  H432     1.0000 0.46830  0.71470  0.17360  Biso   1.000  H
  F1       1.0000 0.08975  0.13130  0.77060  Biso   1.000  F
  F2       1.0000 0.91025  0.13130  0.72940  Biso   1.000  F
  F3       1.0000 0.58975  0.63130  0.77060  Biso   1.000  F
  F4       1.0000 0.41025  0.63130  0.72940  Biso   1.000  F
  F5       1.0000 0.91025  0.86870  0.22940  Biso   1.000  F
  F6       1.0000 0.08975  0.86870  0.27060  Biso   1.000  F
  F7       1.0000 0.41025  0.36870  0.22940  Biso   1.000  F
  F8       1.0000 0.58975  0.36870  0.27060  Biso   1.000  F
  F9       1.0000 0.06562  0.16890  0.68220  Biso   1.000  F
  F10      1.0000 0.93438  0.16890  0.81780  Biso   1.000  F
  F11      1.0000 0.56562  0.66890  0.68220  Biso   1.000  F
  F12      1.0000 0.43438  0.66890  0.81780  Biso   1.000  F
  F13      1.0000 0.93438  0.83110  0.31780  Biso   1.000  F
  F14      1.0000 0.06562  0.83110  0.18220  Biso   1.000  F
  F15      1.0000 0.43438  0.33110  0.31780  Biso   1.000  F
  F16      1.0000 0.56562  0.33110  0.18220  Biso   1.000  F
  F17      1.0000 0.12118  0.15310  0.69260  Biso   1.000  F
  F18      1.0000 0.87882  0.15310  0.80740  Biso   1.000  F
  F19      1.0000 0.62118  0.65310  0.69260  Biso   1.000  F
  F20      1.0000 0.37882  0.65310  0.80740  Biso   1.000  F
  F21      1.0000 0.87882  0.84690  0.30740  Biso   1.000  F
  F22      1.0000 0.12118  0.84690  0.19260  Biso   1.000  F
  F23      1.0000 0.37882  0.34690  0.30740  Biso   1.000  F
  F24      1.0000 0.62118  0.34690  0.19260  Biso   1.000  F
  F25      1.0000 0.10290  0.22270  0.75060  Biso   1.000  F
  F26      1.0000 0.89710  0.22270  0.74940  Biso   1.000  F
  F27      1.0000 0.60290  0.72270  0.75060  Biso   1.000  F
  F28      1.0000 0.39710  0.72270  0.74940  Biso   1.000  F
  F29      1.0000 0.89710  0.77730  0.24940  Biso   1.000  F
  F30      1.0000 0.10290  0.77730  0.25060  Biso   1.000  F
  F31      1.0000 0.39710  0.27730  0.24940  Biso   1.000  F
  F32      1.0000 0.60290  0.27730  0.25060  Biso   1.000  F
  B1       1.0000 0.09530  0.17050  0.72610  Biso   1.000  B
  B2       1.0000 0.90470  0.17050  0.77390  Biso   1.000  B
  B3       1.0000 0.59530  0.67050  0.72610  Biso   1.000  B
  B4       1.0000 0.40470  0.67050  0.77390  Biso   1.000  B
  B5       1.0000 0.90470  0.82950  0.27390  Biso   1.000  B
  B6       1.0000 0.09530  0.82950  0.22610  Biso   1.000  B
  B7       1.0000 0.40470  0.32950  0.27390  Biso   1.000  B
  B8       1.0000 0.59530  0.32950  0.22610  Biso   1.000  B
  F33      1.0000 0.29530  0.92240  0.79600  Biso   1.000  F
  F34      1.0000 0.70470  0.92240  0.70400  Biso   1.000  F
  F35      1.0000 0.79530  0.42240  0.79600  Biso   1.000  F
  F36      1.0000 0.20470  0.42240  0.70400  Biso   1.000  F
  F37      1.0000 0.70470  0.07760  0.20400  Biso   1.000  F
  F38      1.0000 0.29530  0.07760  0.29600  Biso   1.000  F
  F39      1.0000 0.20470  0.57760  0.20400  Biso   1.000  F
  F40      1.0000 0.79530  0.57760  0.29600  Biso   1.000  F
  F41      1.0000 0.28130  0.01670  0.79410  Biso   1.000  F
  F42      1.0000 0.71870  0.01670  0.70590  Biso   1.000  F
  F43      1.0000 0.78130  0.51670  0.79410  Biso   1.000  F
  F44      1.0000 0.21870  0.51670  0.70590  Biso   1.000  F
  F45      1.0000 0.71870  0.98330  0.20590  Biso   1.000  F
  F46      1.0000 0.28130  0.98330  0.29410  Biso   1.000  F
  F47      1.0000 0.21870  0.48330  0.20590  Biso   1.000  F
  F48      1.0000 0.78130  0.48330  0.29410  Biso   1.000  F
  F49      1.0000 0.29340  0.97280  0.71110  Biso   1.000  F
  F50      1.0000 0.70660  0.97280  0.78890  Biso   1.000  F
  F51      1.0000 0.79340  0.47280  0.71110  Biso   1.000  F
  F52      1.0000 0.20660  0.47280  0.78890  Biso   1.000  F
  F53      1.0000 0.70660  0.02720  0.28890  Biso   1.000  F
  F54      1.0000 0.29340  0.02720  0.21110  Biso   1.000  F
  F55      1.0000 0.20660  0.52720  0.28890  Biso   1.000  F
  F56      1.0000 0.79340  0.52720  0.21110  Biso   1.000  F
  F57      1.0000 0.33430  0.98960  0.78460  Biso   1.000  F
  F58      1.0000 0.66570  0.98960  0.71540  Biso   1.000  F
  F59      1.0000 0.83430  0.48960  0.78460  Biso   1.000  F
  F60      1.0000 0.16570  0.48960  0.71540  Biso   1.000  F
  F61      1.0000 0.66570  0.01040  0.21540  Biso   1.000  F
  F62      1.0000 0.33430  0.01040  0.28460  Biso   1.000  F
  F63      1.0000 0.16570  0.51040  0.21540  Biso   1.000  F
  F64      1.0000 0.83430  0.51040  0.28460  Biso   1.000  F
  B9       1.0000 0.30100  0.97540  0.77130  Biso   1.000  B
  B10      1.0000 0.69900  0.97540  0.72870  Biso   1.000  B
  B11      1.0000 0.80100  0.47540  0.77130  Biso   1.000  B
  B12      1.0000 0.19900  0.47540  0.72870  Biso   1.000  B
  B13      1.0000 0.69900  0.02460  0.22870  Biso   1.000  B
  B14      1.0000 0.30100  0.02460  0.27130  Biso   1.000  B
  B15      1.0000 0.19900  0.52460  0.22870  Biso   1.000  B
  B16      1.0000 0.80100  0.52460  0.27130  Biso   1.000  B
  F65      1.0000 0.08070  0.82360  0.70850  Biso   1.000  F
  F66      1.0000 0.91930  0.82360  0.79150  Biso   1.000  F
  F67      1.0000 0.58070  0.32360  0.70850  Biso   1.000  F
  F68      1.0000 0.41930  0.32360  0.79150  Biso   1.000  F
  F69      1.0000 0.91930  0.17640  0.29150  Biso   1.000  F
  F70      1.0000 0.08070  0.17640  0.20850  Biso   1.000  F
  F71      1.0000 0.41930  0.67640  0.29150  Biso   1.000  F
  F72      1.0000 0.58070  0.67640  0.20850  Biso   1.000  F
  F73      1.0000 0.10740  0.77900  0.78760  Biso   1.000  F
  F74      1.0000 0.89260  0.77900  0.71240  Biso   1.000  F
  F75      1.0000 0.60740  0.27900  0.78760  Biso   1.000  F
  F76      1.0000 0.39260  0.27900  0.71240  Biso   1.000  F
  F77      1.0000 0.89260  0.22100  0.21240  Biso   1.000  F
  F78      1.0000 0.10740  0.22100  0.28760  Biso   1.000  F
  F79      1.0000 0.39260  0.72100  0.21240  Biso   1.000  F
  F80      1.0000 0.60740  0.72100  0.28760  Biso   1.000  F
  F81      1.0000 0.08210  0.72610  0.71250  Biso   1.000  F
  F82      1.0000 0.91790  0.72610  0.78750  Biso   1.000  F
  F83      1.0000 0.58210  0.22610  0.71250  Biso   1.000  F
  F84      1.0000 0.41790  0.22610  0.78750  Biso   1.000  F
  F85      1.0000 0.91790  0.27390  0.28750  Biso   1.000  F
  F86      1.0000 0.08210  0.27390  0.21250  Biso   1.000  F
  F87      1.0000 0.41790  0.77390  0.28750  Biso   1.000  F
  F88      1.0000 0.58210  0.77390  0.21250  Biso   1.000  F
  F89      1.0000 0.12890  0.77570  0.70080  Biso   1.000  F
  F90      1.0000 0.87110  0.77570  0.79920  Biso   1.000  F
  F91      1.0000 0.62890  0.27570  0.70080  Biso   1.000  F
  F92      1.0000 0.37110  0.27570  0.79920  Biso   1.000  F
  F93      1.0000 0.87110  0.22430  0.29920  Biso   1.000  F
  F94      1.0000 0.12890  0.22430  0.20080  Biso   1.000  F
  F95      1.0000 0.37110  0.72430  0.29920  Biso   1.000  F
  F96      1.0000 0.62890  0.72430  0.20080  Biso   1.000  F
  B17      1.0000 0.09980  0.77630  0.72720  Biso   1.000  B
  B18      1.0000 0.90020  0.77630  0.77280  Biso   1.000  B
  B19      1.0000 0.59980  0.27630  0.72720  Biso   1.000  B
  B20      1.0000 0.40020  0.27630  0.77280  Biso   1.000  B
  B21      1.0000 0.90020  0.22370  0.27280  Biso   1.000  B
  B22      1.0000 0.09980  0.22370  0.22720  Biso   1.000  B
  B23      1.0000 0.40020  0.72370  0.27280  Biso   1.000  B
  B24      1.0000 0.59980  0.72370  0.22720  Biso   1.000  B
  Cl1      1.0000 0.94866  0.09460  0.02090  Biso   1.000  Cl
  Cl2      1.0000 0.05134  0.09460  0.47910  Biso   1.000  Cl
  Cl3      1.0000 0.44866  0.59460  0.02090  Biso   1.000  Cl
  Cl4      1.0000 0.55134  0.59460  0.47910  Biso   1.000  Cl
  Cl5      1.0000 0.05134  0.90540  0.97910  Biso   1.000  Cl
  Cl6      1.0000 0.94866  0.90540  0.52090  Biso   1.000  Cl
  Cl7      1.0000 0.55134  0.40540  0.97910  Biso   1.000  Cl
  Cl8      1.0000 0.44866  0.40540  0.52090  Biso   1.000  Cl
  Cl9      1.0000 0.00319  0.06610  0.95170  Biso   1.000  Cl
  Cl10     1.0000 0.99681  0.06610  0.54830  Biso   1.000  Cl
  Cl11     1.0000 0.50319  0.56610  0.95170  Biso   1.000  Cl
  Cl12     1.0000 0.49681  0.56610  0.54830  Biso   1.000  Cl
  Cl13     1.0000 0.99681  0.93390  0.04830  Biso   1.000  Cl
  Cl14     1.0000 0.00319  0.93390  0.45170  Biso   1.000  Cl
  Cl15     1.0000 0.49681  0.43390  0.04830  Biso   1.000  Cl
  Cl16     1.0000 0.50319  0.43390  0.45170  Biso   1.000  Cl
  C589     1.0000 0.97540  0.11270  0.96550  Biso   1.000  C
  C590     1.0000 0.02460  0.11270  0.53450  Biso   1.000  C
  C591     1.0000 0.47540  0.61270  0.96550  Biso   1.000  C
  C592     1.0000 0.52460  0.61270  0.53450  Biso   1.000  C
  C593     1.0000 0.02460  0.88730  0.03450  Biso   1.000  C
  C594     1.0000 0.97540  0.88730  0.46550  Biso   1.000  C
  C595     1.0000 0.52460  0.38730  0.03450  Biso   1.000  C
  C596     1.0000 0.47540  0.38730  0.46550  Biso   1.000  C
  H433     1.0000 0.96050  0.12090  0.92670  Biso   1.000  H
  H434     1.0000 0.03950  0.12090  0.57330  Biso   1.000  H
  H435     1.0000 0.46050  0.62090  0.92670  Biso   1.000  H
  H436     1.0000 0.53950  0.62090  0.57330  Biso   1.000  H
  H437     1.0000 0.03950  0.87910  0.07330  Biso   1.000  H
  H438     1.0000 0.96050  0.87910  0.42670  Biso   1.000  H
  H439     1.0000 0.53950  0.37910  0.07330  Biso   1.000  H
  H440     1.0000 0.46050  0.37910  0.42670  Biso   1.000  H
  H441     1.0000 0.98750  0.15080  0.97800  Biso   1.000  H
  H442     1.0000 0.01250  0.15080  0.52200  Biso   1.000  H
  H443     1.0000 0.48750  0.65080  0.97800  Biso   1.000  H
  H444     1.0000 0.51250  0.65080  0.52200  Biso   1.000  H
  H445     1.0000 0.01250  0.84920  0.02200  Biso   1.000  H
  H446     1.0000 0.98750  0.84920  0.47800  Biso   1.000  H
  H447     1.0000 0.51250  0.34920  0.02200  Biso   1.000  H
  H448     1.0000 0.48750  0.34920  0.47800  Biso   1.000  H
  Cl17     1.0000 0.28710  0.20813  0.96570  Biso   1.000  Cl
  Cl18     1.0000 0.71290  0.20813  0.53430  Biso   1.000  Cl
  Cl19     1.0000 0.78710  0.70813  0.96570  Biso   1.000  Cl
  Cl20     1.0000 0.21290  0.70813  0.53430  Biso   1.000  Cl
  Cl21     1.0000 0.71290  0.79187  0.03430  Biso   1.000  Cl
  Cl22     1.0000 0.28710  0.79187  0.46570  Biso   1.000  Cl
  Cl23     1.0000 0.21290  0.29187  0.03430  Biso   1.000  Cl
  Cl24     1.0000 0.78710  0.29187  0.46570  Biso   1.000  Cl
  Cl25     1.0000 0.31060  0.29800  0.04520  Biso   1.000  Cl
  Cl26     1.0000 0.68940  0.29800  0.45480  Biso   1.000  Cl
  Cl27     1.0000 0.81060  0.79800  0.04520  Biso   1.000  Cl
  Cl28     1.0000 0.18940  0.79800  0.45480  Biso   1.000  Cl
  Cl29     1.0000 0.68940  0.70200  0.95480  Biso   1.000  Cl
  Cl30     1.0000 0.31060  0.70200  0.54520  Biso   1.000  Cl
  Cl31     1.0000 0.18940  0.20200  0.95480  Biso   1.000  Cl
  Cl32     1.0000 0.81060  0.20200  0.54520  Biso   1.000  Cl
  C597     1.0000 0.32320  0.23880  0.00120  Biso   1.000  C
  C598     1.0000 0.67680  0.23880  0.49880  Biso   1.000  C
  C599     1.0000 0.82320  0.73880  0.00120  Biso   1.000  C
  C600     1.0000 0.17680  0.73880  0.49880  Biso   1.000  C
  C601     1.0000 0.67680  0.76120  0.99880  Biso   1.000  C
  C602     1.0000 0.32320  0.76120  0.50120  Biso   1.000  C
  C603     1.0000 0.17680  0.26120  0.99880  Biso   1.000  C
  C604     1.0000 0.82320  0.26120  0.50120  Biso   1.000  C
  H449     1.0000 0.33830  0.25370  0.97060  Biso   1.000  H
  H450     1.0000 0.66170  0.25370  0.52940  Biso   1.000  H
  H451     1.0000 0.83830  0.75370  0.97060  Biso   1.000  H
  H452     1.0000 0.16170  0.75370  0.52940  Biso   1.000  H
  H453     1.0000 0.66170  0.74630  0.02940  Biso   1.000  H
  H454     1.0000 0.33830  0.74630  0.47060  Biso   1.000  H
  H455     1.0000 0.16170  0.24630  0.02940  Biso   1.000  H
  H456     1.0000 0.83830  0.24630  0.47060  Biso   1.000  H
  H457     1.0000 0.33640  0.20860  0.02760  Biso   1.000  H
  H458     1.0000 0.66360  0.20860  0.47240  Biso   1.000  H
  H459     1.0000 0.83640  0.70860  0.02760  Biso   1.000  H
  H460     1.0000 0.16360  0.70860  0.47240  Biso   1.000  H
  H461     1.0000 0.66360  0.79140  0.97240  Biso   1.000  H
  H462     1.0000 0.33640  0.79140  0.52760  Biso   1.000  H
  H463     1.0000 0.16360  0.29140  0.97240  Biso   1.000  H
  H464     1.0000 0.83640  0.29140  0.52760  Biso   1.000  H
  Cl33     1.0000 0.18970  0.32780  0.56500  Biso   1.000  Cl
  Cl34     1.0000 0.81030  0.32780  0.93500  Biso   1.000  Cl
  Cl35     1.0000 0.68970  0.82780  0.56500  Biso   1.000  Cl
  Cl36     1.0000 0.31030  0.82780  0.93500  Biso   1.000  Cl
  Cl37     1.0000 0.81030  0.67220  0.43500  Biso   1.000  Cl
  Cl38     1.0000 0.18970  0.67220  0.06500  Biso   1.000  Cl
  Cl39     1.0000 0.31030  0.17220  0.43500  Biso   1.000  Cl
  Cl40     1.0000 0.68970  0.17220  0.06500  Biso   1.000  Cl
  Cl41     1.0000 0.23050  0.34410  0.48860  Biso   1.000  Cl
  Cl42     1.0000 0.76950  0.34410  0.01140  Biso   1.000  Cl
  Cl43     1.0000 0.73050  0.84410  0.48860  Biso   1.000  Cl
  Cl44     1.0000 0.26950  0.84410  0.01140  Biso   1.000  Cl
  Cl45     1.0000 0.76950  0.65590  0.51140  Biso   1.000  Cl
  Cl46     1.0000 0.23050  0.65590  0.98860  Biso   1.000  Cl
  Cl47     1.0000 0.26950  0.15590  0.51140  Biso   1.000  Cl
  Cl48     1.0000 0.73050  0.15590  0.98860  Biso   1.000  Cl
  C605     1.0000 0.22080  0.28420  0.53450  Biso   1.000  C
  C606     1.0000 0.77920  0.28420  0.96550  Biso   1.000  C
  C607     1.0000 0.72080  0.78420  0.53450  Biso   1.000  C
  C608     1.0000 0.27920  0.78420  0.96550  Biso   1.000  C
  C609     1.0000 0.77920  0.71580  0.46550  Biso   1.000  C
  C610     1.0000 0.22080  0.71580  0.03450  Biso   1.000  C
  C611     1.0000 0.27920  0.21580  0.46550  Biso   1.000  C
  C612     1.0000 0.72080  0.21580  0.03450  Biso   1.000  C
  H465     1.0000 0.24040  0.27220  0.56510  Biso   1.000  H
  H466     1.0000 0.75960  0.27220  0.93490  Biso   1.000  H
  H467     1.0000 0.74040  0.77220  0.56510  Biso   1.000  H
  H468     1.0000 0.25960  0.77220  0.93490  Biso   1.000  H
  H469     1.0000 0.75960  0.72780  0.43490  Biso   1.000  H
  H470     1.0000 0.24040  0.72780  0.06510  Biso   1.000  H
  H471     1.0000 0.25960  0.22780  0.43490  Biso   1.000  H
  H472     1.0000 0.74040  0.22780  0.06510  Biso   1.000  H
  H473     1.0000 0.21110  0.24880  0.51110  Biso   1.000  H
  H474     1.0000 0.78890  0.24880  0.98890  Biso   1.000  H
  H475     1.0000 0.71110  0.74880  0.51110  Biso   1.000  H
  H476     1.0000 0.28890  0.74880  0.98890  Biso   1.000  H
  H477     1.0000 0.78890  0.75120  0.48890  Biso   1.000  H
  H478     1.0000 0.21110  0.75120  0.01110  Biso   1.000  H
  H479     1.0000 0.28890  0.25120  0.48890  Biso   1.000  H
  H480     1.0000 0.71110  0.25120  0.01110  Biso   1.000  H
  O109     1.0000 0.16140  0.97530  0.64010  Biso   1.000  O
  O110     1.0000 0.83860  0.97530  0.85990  Biso   1.000  O
  O111     1.0000 0.66140  0.47530  0.64010  Biso   1.000  O
  O112     1.0000 0.33860  0.47530  0.85990  Biso   1.000  O
  O113     1.0000 0.83860  0.02470  0.35990  Biso   1.000  O
  O114     1.0000 0.16140  0.02470  0.14010  Biso   1.000  O
  O115     1.0000 0.33860  0.52470  0.35990  Biso   1.000  O
  O116     1.0000 0.66140  0.52470  0.14010  Biso   1.000  O
  H481     1.0000 0.15950  0.97080  0.60180  Biso   1.000  H
  H482     1.0000 0.84050  0.97080  0.89820  Biso   1.000  H
  H483     1.0000 0.65950  0.47080  0.60180  Biso   1.000  H
  H484     1.0000 0.34050  0.47080  0.89820  Biso   1.000  H
  H485     1.0000 0.84050  0.02920  0.39820  Biso   1.000  H
  H486     1.0000 0.15950  0.02920  0.10180  Biso   1.000  H
  H487     1.0000 0.34050  0.52920  0.39820  Biso   1.000  H
  H488     1.0000 0.65950  0.52920  0.10180  Biso   1.000  H
  H489     1.0000 0.14530  0.99750  0.64990  Biso   1.000  H
  H490     1.0000 0.85470  0.99750  0.85010  Biso   1.000  H
  H491     1.0000 0.64530  0.49750  0.64990  Biso   1.000  H
  H492     1.0000 0.35470  0.49750  0.85010  Biso   1.000  H
  H493     1.0000 0.85470  0.00250  0.35010  Biso   1.000  H
  H494     1.0000 0.14530  0.00250  0.14990  Biso   1.000  H
  H495     1.0000 0.35470  0.50250  0.35010  Biso   1.000  H
  H496     1.0000 0.64530  0.50250  0.14990  Biso   1.000  H
  O117     1.0000 0.14710  0.92230  0.73720  Biso   1.000  O
  O118     1.0000 0.85290  0.92230  0.76280  Biso   1.000  O
  O119     1.0000 0.64710  0.42230  0.73720  Biso   1.000  O
  O120     1.0000 0.35290  0.42230  0.76280  Biso   1.000  O
  O121     1.0000 0.85290  0.07770  0.26280  Biso   1.000  O
  O122     1.0000 0.14710  0.07770  0.23720  Biso   1.000  O
  O123     1.0000 0.35290  0.57770  0.26280  Biso   1.000  O
  O124     1.0000 0.64710  0.57770  0.23720  Biso   1.000  O
  H497     1.0000 0.13910  0.90080  0.70740  Biso   1.000  H
  H498     1.0000 0.86090  0.90080  0.79260  Biso   1.000  H
  H499     1.0000 0.63910  0.40080  0.70740  Biso   1.000  H
  H500     1.0000 0.36090  0.40080  0.79260  Biso   1.000  H
  H501     1.0000 0.86090  0.09920  0.29260  Biso   1.000  H
  H502     1.0000 0.13910  0.09920  0.20740  Biso   1.000  H
  H503     1.0000 0.36090  0.59920  0.29260  Biso   1.000  H
  H504     1.0000 0.63910  0.59920  0.20740  Biso   1.000  H
  H505     1.0000 0.13520  0.91730  0.76660  Biso   1.000  H
  H506     1.0000 0.86480  0.91730  0.73340  Biso   1.000  H
  H507     1.0000 0.63520  0.41730  0.76660  Biso   1.000  H
  H508     1.0000 0.36480  0.41730  0.73340  Biso   1.000  H
  H509     1.0000 0.86480  0.08270  0.23340  Biso   1.000  H
  H510     1.0000 0.13520  0.08270  0.26660  Biso   1.000  H
  H511     1.0000 0.36480  0.58270  0.23340  Biso   1.000  H
  H512     1.0000 0.63520  0.58270  0.26660  Biso   1.000  H
  O125     1.0000 0.20020  0.98570  0.74400  Biso   1.000  O
  O126     1.0000 0.79980  0.98570  0.75600  Biso   1.000  O
  O127     1.0000 0.70020  0.48570  0.74400  Biso   1.000  O
  O128     1.0000 0.29980  0.48570  0.75600  Biso   1.000  O
  O129     1.0000 0.79980  0.01430  0.25600  Biso   1.000  O
  O130     1.0000 0.20020  0.01430  0.24400  Biso   1.000  O
  O131     1.0000 0.29980  0.51430  0.25600  Biso   1.000  O
  O132     1.0000 0.70020  0.51430  0.24400  Biso   1.000  O
  H513     1.0000 0.22040  0.97350  0.73980  Biso   1.000  H
  H514     1.0000 0.77960  0.97350  0.76020  Biso   1.000  H
  H515     1.0000 0.72040  0.47350  0.73980  Biso   1.000  H
  H516     1.0000 0.27960  0.47350  0.76020  Biso   1.000  H
  H517     1.0000 0.77960  0.02650  0.26020  Biso   1.000  H
  H518     1.0000 0.22040  0.02650  0.23980  Biso   1.000  H
  H519     1.0000 0.27960  0.52650  0.26020  Biso   1.000  H
  H520     1.0000 0.72040  0.52650  0.23980  Biso   1.000  H
  H521     1.0000 0.18850  0.95650  0.76270  Biso   1.000  H
  H522     1.0000 0.81150  0.95650  0.73730  Biso   1.000  H
  H523     1.0000 0.68850  0.45650  0.76270  Biso   1.000  H
  H524     1.0000 0.31150  0.45650  0.73730  Biso   1.000  H
  H525     1.0000 0.81150  0.04350  0.23730  Biso   1.000  H
  H526     1.0000 0.18850  0.04350  0.26270  Biso   1.000  H
  H527     1.0000 0.31150  0.54350  0.23730  Biso   1.000  H
  H528     1.0000 0.68850  0.54350  0.26270  Biso   1.000  H
  O133     1.0000 0.02390  0.63270  0.22530  Biso   1.000  O
  O134     1.0000 0.97610  0.63270  0.27470  Biso   1.000  O
  O135     1.0000 0.52390  0.13270  0.22530  Biso   1.000  O
  O136     1.0000 0.47610  0.13270  0.27470  Biso   1.000  O
  O137     1.0000 0.97610  0.36730  0.77470  Biso   1.000  O
  O138     1.0000 0.02390  0.36730  0.72530  Biso   1.000  O
  O139     1.0000 0.47610  0.86730  0.77470  Biso   1.000  O
  O140     1.0000 0.52390  0.86730  0.72530  Biso   1.000  O
  H529     1.0000 0.04110  0.64380  0.23090  Biso   1.000  H
  H530     1.0000 0.95890  0.64380  0.26910  Biso   1.000  H
  H531     1.0000 0.54110  0.14380  0.23090  Biso   1.000  H
  H532     1.0000 0.45890  0.14380  0.26910  Biso   1.000  H
  H533     1.0000 0.95890  0.35620  0.76910  Biso   1.000  H
  H534     1.0000 0.04110  0.35620  0.73090  Biso   1.000  H
  H535     1.0000 0.45890  0.85620  0.76910  Biso   1.000  H
  H536     1.0000 0.54110  0.85620  0.73090  Biso   1.000  H
  H537     1.0000 0.01540  0.61800  0.19110  Biso   1.000  H
  H538     1.0000 0.98460  0.61800  0.30890  Biso   1.000  H
  H539     1.0000 0.51540  0.11800  0.19110  Biso   1.000  H
  H540     1.0000 0.48460  0.11800  0.30890  Biso   1.000  H
  H541     1.0000 0.98460  0.38200  0.80890  Biso   1.000  H
  H542     1.0000 0.01540  0.38200  0.69110  Biso   1.000  H
  H543     1.0000 0.48460  0.88200  0.80890  Biso   1.000  H
  H544     1.0000 0.51540  0.88200  0.69110  Biso   1.000  H
  O141     1.0000 0.04610  0.40350  0.26690  Biso   1.000  O
  O142     1.0000 0.95390  0.40350  0.23310  Biso   1.000  O
  O143     1.0000 0.54610  0.90350  0.26690  Biso   1.000  O
  O144     1.0000 0.45390  0.90350  0.23310  Biso   1.000  O
  O145     1.0000 0.95390  0.59650  0.73310  Biso   1.000  O
  O146     1.0000 0.04610  0.59650  0.76690  Biso   1.000  O
  O147     1.0000 0.45390  0.09650  0.73310  Biso   1.000  O
  O148     1.0000 0.54610  0.09650  0.76690  Biso   1.000  O
  H545     1.0000 0.02740  0.39280  0.27990  Biso   1.000  H
  H546     1.0000 0.97260  0.39280  0.22010  Biso   1.000  H
  H547     1.0000 0.52740  0.89280  0.27990  Biso   1.000  H
  H548     1.0000 0.47260  0.89280  0.22010  Biso   1.000  H
  H549     1.0000 0.97260  0.60720  0.72010  Biso   1.000  H
  H550     1.0000 0.02740  0.60720  0.77990  Biso   1.000  H
  H551     1.0000 0.47260  0.10720  0.72010  Biso   1.000  H
  H552     1.0000 0.52740  0.10720  0.77990  Biso   1.000  H
  H553     1.0000 0.04460  0.39600  0.22070  Biso   1.000  H
  H554     1.0000 0.95540  0.39600  0.27930  Biso   1.000  H
  H555     1.0000 0.54460  0.89600  0.22070  Biso   1.000  H
  H556     1.0000 0.45540  0.89600  0.27930  Biso   1.000  H
  H557     1.0000 0.95540  0.60400  0.77930  Biso   1.000  H
  H558     1.0000 0.04460  0.60400  0.72070  Biso   1.000  H
  H559     1.0000 0.45540  0.10400  0.77930  Biso   1.000  H
  H560     1.0000 0.54460  0.10400  0.72070  Biso   1.000  H
  O149     1.0000 0.00000  0.50000  0.00000  Biso   1.000  O
  O150     1.0000 0.00000  0.50000  0.50000  Biso   1.000  O
  O151     1.0000 0.50000  0.00000  0.00000  Biso   1.000  O
  O152     1.0000 0.50000  0.00000  0.50000  Biso   1.000  O
  H561     1.0000 0.98630  0.47950  0.97570  Biso   1.000  H
  H562     1.0000 0.01370  0.47950  0.52430  Biso   1.000  H
  H563     1.0000 0.48630  0.97950  0.97570  Biso   1.000  H
  H564     1.0000 0.51370  0.97950  0.52430  Biso   1.000  H
  H565     1.0000 0.01370  0.52050  0.02430  Biso   1.000  H
  H566     1.0000 0.98630  0.52050  0.47570  Biso   1.000  H
  H567     1.0000 0.51370  0.02050  0.02430  Biso   1.000  H
  H568     1.0000 0.48630  0.02050  0.47570  Biso   1.000  H
  O153     1.0000 0.08290  0.51630  0.23000  Biso   1.000  O
  O154     1.0000 0.91710  0.51630  0.27000  Biso   1.000  O
  O155     1.0000 0.58290  0.01630  0.23000  Biso   1.000  O
  O156     1.0000 0.41710  0.01630  0.27000  Biso   1.000  O
  O157     1.0000 0.91710  0.48370  0.77000  Biso   1.000  O
  O158     1.0000 0.08290  0.48370  0.73000  Biso   1.000  O
  O159     1.0000 0.41710  0.98370  0.77000  Biso   1.000  O
  O160     1.0000 0.58290  0.98370  0.73000  Biso   1.000  O
  H569     1.0000 0.06660  0.53660  0.24210  Biso   1.000  H
  H570     1.0000 0.93340  0.53660  0.25790  Biso   1.000  H
  H571     1.0000 0.56660  0.03660  0.24210  Biso   1.000  H
  H572     1.0000 0.43340  0.03660  0.25790  Biso   1.000  H
  H573     1.0000 0.93340  0.46340  0.75790  Biso   1.000  H
  H574     1.0000 0.06660  0.46340  0.74210  Biso   1.000  H
  H575     1.0000 0.43340  0.96340  0.75790  Biso   1.000  H
  H576     1.0000 0.56660  0.96340  0.74210  Biso   1.000  H
  H577     1.0000 0.07990  0.51300  0.19180  Biso   1.000  H
  H578     1.0000 0.92010  0.51300  0.30820  Biso   1.000  H
  H579     1.0000 0.57990  0.01300  0.19180  Biso   1.000  H
  H580     1.0000 0.42010  0.01300  0.30820  Biso   1.000  H
  H581     1.0000 0.92010  0.48700  0.80820  Biso   1.000  H
  H582     1.0000 0.07990  0.48700  0.69180  Biso   1.000  H
  H583     1.0000 0.42010  0.98700  0.80820  Biso   1.000  H
  H584     1.0000 0.57990  0.98700  0.69180  Biso   1.000  H
  O161     1.0000 0.05860  0.44660  0.14590  Biso   1.000  O
  O162     1.0000 0.94140  0.44660  0.35410  Biso   1.000  O
  O163     1.0000 0.55860  0.94660  0.14590  Biso   1.000  O
  O164     1.0000 0.44140  0.94660  0.35410  Biso   1.000  O
  O165     1.0000 0.94140  0.55340  0.85410  Biso   1.000  O
  O166     1.0000 0.05860  0.55340  0.64590  Biso   1.000  O
  O167     1.0000 0.44140  0.05340  0.85410  Biso   1.000  O
  O168     1.0000 0.55860  0.05340  0.64590  Biso   1.000  O
  H585     1.0000 0.04140  0.46380  0.15870  Biso   1.000  H
  H586     1.0000 0.95860  0.46380  0.34130  Biso   1.000  H
  H587     1.0000 0.54140  0.96380  0.15870  Biso   1.000  H
  H588     1.0000 0.45860  0.96380  0.34130  Biso   1.000  H
  H589     1.0000 0.95860  0.53620  0.84130  Biso   1.000  H
  H590     1.0000 0.04140  0.53620  0.65870  Biso   1.000  H
  H591     1.0000 0.45860  0.03620  0.84130  Biso   1.000  H
  H592     1.0000 0.54140  0.03620  0.65870  Biso   1.000  H
  H593     1.0000 0.05490  0.44350  0.10170  Biso   1.000  H
  H594     1.0000 0.94510  0.44350  0.39830  Biso   1.000  H
  H595     1.0000 0.55490  0.94350  0.10170  Biso   1.000  H
  H596     1.0000 0.44510  0.94350  0.39830  Biso   1.000  H
  H597     1.0000 0.94510  0.55650  0.89830  Biso   1.000  H
  H598     1.0000 0.05490  0.55650  0.60170  Biso   1.000  H
  H599     1.0000 0.44510  0.05650  0.89830  Biso   1.000  H
  H600     1.0000 0.55490  0.05650  0.60170  Biso   1.000  H
  O169     1.0000 0.06020  0.59200  0.17000  Biso   1.000  O
  O170     1.0000 0.93980  0.59200  0.33000  Biso   1.000  O
  O171     1.0000 0.56020  0.09200  0.17000  Biso   1.000  O
  O172     1.0000 0.43980  0.09200  0.33000  Biso   1.000  O
  O173     1.0000 0.93980  0.40800  0.83000  Biso   1.000  O
  O174     1.0000 0.06020  0.40800  0.67000  Biso   1.000  O
  O175     1.0000 0.43980  0.90800  0.83000  Biso   1.000  O
  O176     1.0000 0.56020  0.90800  0.67000  Biso   1.000  O
  H601     1.0000 0.04600  0.56940  0.18480  Biso   1.000  H
  H602     1.0000 0.95400  0.56940  0.31520  Biso   1.000  H
  H603     1.0000 0.54600  0.06940  0.18480  Biso   1.000  H
  H604     1.0000 0.45400  0.06940  0.31520  Biso   1.000  H
  H605     1.0000 0.95400  0.43060  0.81520  Biso   1.000  H
  H606     1.0000 0.04600  0.43060  0.68480  Biso   1.000  H
  H607     1.0000 0.45400  0.93060  0.81520  Biso   1.000  H
  H608     1.0000 0.54600  0.93060  0.68480  Biso   1.000  H
  H609     1.0000 0.05810  0.58910  0.13170  Biso   1.000  H
  H610     1.0000 0.94190  0.58910  0.36830  Biso   1.000  H
  H611     1.0000 0.55810  0.08910  0.13170  Biso   1.000  H
  H612     1.0000 0.44190  0.08910  0.36830  Biso   1.000  H
  H613     1.0000 0.94190  0.41090  0.86830  Biso   1.000  H
  H614     1.0000 0.05810  0.41090  0.63170  Biso   1.000  H
  H615     1.0000 0.44190  0.91090  0.86830  Biso   1.000  H
  H616     1.0000 0.55810  0.91090  0.63170  Biso   1.000  H
  H617     1.0000 0.00730  0.50080  0.96180  Biso   1.000  H
  H618     1.0000 0.99270  0.50080  0.53820  Biso   1.000  H
  H619     1.0000 0.50730  0.00080  0.96180  Biso   1.000  H
  H620     1.0000 0.49270  0.00080  0.53820  Biso   1.000  H
  H621     1.0000 0.99270  0.49920  0.03820  Biso   1.000  H
  H622     1.0000 0.00730  0.49920  0.46180  Biso   1.000  H
  H623     1.0000 0.49270  0.99920  0.03820  Biso   1.000  H
  H624     1.0000 0.50730  0.99920  0.46180  Biso   1.000  H
  H625     1.0000 0.97900  0.21780  0.72550  Biso   1.000  H
  H626     1.0000 0.02100  0.21780  0.77450  Biso   1.000  H
  H627     1.0000 0.47900  0.71780  0.72550  Biso   1.000  H
  H628     1.0000 0.52100  0.71780  0.77450  Biso   1.000  H
  H629     1.0000 0.02100  0.78220  0.27450  Biso   1.000  H
  H630     1.0000 0.97900  0.78220  0.22550  Biso   1.000  H
  H631     1.0000 0.52100  0.28220  0.27450  Biso   1.000  H
  H632     1.0000 0.47900  0.28220  0.22550  Biso   1.000  H
  H633     1.0000 0.02060  0.21780  0.73220  Biso   1.000  H
  H634     1.0000 0.97940  0.21780  0.76780  Biso   1.000  H
  H635     1.0000 0.52060  0.71780  0.73220  Biso   1.000  H
  H636     1.0000 0.47940  0.71780  0.76780  Biso   1.000  H
  H637     1.0000 0.97940  0.78220  0.26780  Biso   1.000  H
  H638     1.0000 0.02060  0.78220  0.23220  Biso   1.000  H
  H639     1.0000 0.47940  0.28220  0.26780  Biso   1.000  H
  H640     1.0000 0.52060  0.28220  0.23220  Biso   1.000  H
  H641     1.0000 0.00040  0.21780  0.79230  Biso   1.000  H
  H642     1.0000 0.99960  0.21780  0.70770  Biso   1.000  H
  H643     1.0000 0.50040  0.71780  0.79230  Biso   1.000  H
  H644     1.0000 0.49960  0.71780  0.70770  Biso   1.000  H
  H645     1.0000 0.99960  0.78220  0.20770  Biso   1.000  H
  H646     1.0000 0.00040  0.78220  0.29230  Biso   1.000  H
  H647     1.0000 0.49960  0.28220  0.20770  Biso   1.000  H
  H648     1.0000 0.50040  0.28220  0.29230  Biso   1.000  H
