data_image0
_cell_length_a       21.9944
_cell_length_b       33.3369
_cell_length_c       10.3969
_cell_angle_alpha    90
_cell_angle_beta     90
_cell_angle_gamma    90

_symmetry_space_group_name_H-M    "P 1"
_symmetry_int_tables_number       1

loop_
  _symmetry_equiv_pos_as_xyz
  'x, y, z'

loop_
  _atom_site_label
  _atom_site_occupancy
  _atom_site_fract_x
  _atom_site_fract_y
  _atom_site_fract_z
  _atom_site_thermal_displace_type
  _atom_site_B_iso_or_equiv
  _atom_site_type_symbol
  H1       1.0000 0.50500  0.01890  0.92400  Biso   1.000  H
  H2       1.0000 0.49500  0.98110  0.92400  Biso   1.000  H
  H3       1.0000 0.75500  0.23110  0.17400  Biso   1.000  H
  H4       1.0000 0.74500  0.26890  0.17400  Biso   1.000  H
  H5       1.0000 0.50500  0.51890  0.42400  Biso   1.000  H
  H6       1.0000 0.49500  0.48110  0.42400  Biso   1.000  H
  H7       1.0000 0.75500  0.73110  0.67400  Biso   1.000  H
  H8       1.0000 0.74500  0.76890  0.67400  Biso   1.000  H
  H9       1.0000 0.00500  0.01890  0.42400  Biso   1.000  H
  H10      1.0000 0.99500  0.98110  0.42400  Biso   1.000  H
  H11      1.0000 0.25500  0.23110  0.67400  Biso   1.000  H
  H12      1.0000 0.24500  0.26890  0.67400  Biso   1.000  H
  H13      1.0000 0.00500  0.51890  0.92400  Biso   1.000  H
  H14      1.0000 0.99500  0.48110  0.92400  Biso   1.000  H
  H15      1.0000 0.25500  0.73110  0.17400  Biso   1.000  H
  H16      1.0000 0.24500  0.76890  0.17400  Biso   1.000  H
  O1       1.0000 0.50000  0.00000  0.86870  Biso   1.000  O
  O2       1.0000 0.75000  0.25000  0.11870  Biso   1.000  O
  O3       1.0000 0.50000  0.50000  0.36870  Biso   1.000  O
  O4       1.0000 0.75000  0.75000  0.61870  Biso   1.000  O
  O5       1.0000 0.00000  0.00000  0.36870  Biso   1.000  O
  O6       1.0000 0.25000  0.25000  0.61870  Biso   1.000  O
  O7       1.0000 0.00000  0.50000  0.86870  Biso   1.000  O
  O8       1.0000 0.25000  0.75000  0.11870  Biso   1.000  O
  H17      1.0000 0.27820  0.17500  0.90700  Biso   1.000  H
  H18      1.0000 0.72180  0.82500  0.90700  Biso   1.000  H
  H19      1.0000 0.52820  0.07500  0.15700  Biso   1.000  H
  H20      1.0000 0.97180  0.42500  0.15700  Biso   1.000  H
  H21      1.0000 0.27820  0.67500  0.40700  Biso   1.000  H
  H22      1.0000 0.72180  0.32500  0.40700  Biso   1.000  H
  H23      1.0000 0.52820  0.57500  0.65700  Biso   1.000  H
  H24      1.0000 0.97180  0.92500  0.65700  Biso   1.000  H
  H25      1.0000 0.77820  0.17500  0.40700  Biso   1.000  H
  H26      1.0000 0.22180  0.82500  0.40700  Biso   1.000  H
  H27      1.0000 0.02820  0.07500  0.65700  Biso   1.000  H
  H28      1.0000 0.47180  0.42500  0.65700  Biso   1.000  H
  H29      1.0000 0.77820  0.67500  0.90700  Biso   1.000  H
  H30      1.0000 0.22180  0.32500  0.90700  Biso   1.000  H
  H31      1.0000 0.02820  0.57500  0.15700  Biso   1.000  H
  H32      1.0000 0.47180  0.92500  0.15700  Biso   1.000  H
  O9       1.0000 0.30670  0.16620  0.95610  Biso   1.000  O
  O10      1.0000 0.69330  0.83380  0.95610  Biso   1.000  O
  O11      1.0000 0.55670  0.08380  0.20610  Biso   1.000  O
  O12      1.0000 0.94330  0.41620  0.20610  Biso   1.000  O
  O13      1.0000 0.30670  0.66620  0.45610  Biso   1.000  O
  O14      1.0000 0.69330  0.33380  0.45610  Biso   1.000  O
  O15      1.0000 0.55670  0.58380  0.70610  Biso   1.000  O
  O16      1.0000 0.94330  0.91620  0.70610  Biso   1.000  O
  O17      1.0000 0.80670  0.16620  0.45610  Biso   1.000  O
  O18      1.0000 0.19330  0.83380  0.45610  Biso   1.000  O
  O19      1.0000 0.05670  0.08380  0.70610  Biso   1.000  O
  O20      1.0000 0.44330  0.41620  0.70610  Biso   1.000  O
  O21      1.0000 0.80670  0.66620  0.95610  Biso   1.000  O
  O22      1.0000 0.19330  0.33380  0.95610  Biso   1.000  O
  O23      1.0000 0.05670  0.58380  0.20610  Biso   1.000  O
  O24      1.0000 0.44330  0.91620  0.20610  Biso   1.000  O
  H33      1.0000 0.33750  0.15950  0.91000  Biso   1.000  H
  H34      1.0000 0.66250  0.84050  0.91000  Biso   1.000  H
  H35      1.0000 0.58750  0.09050  0.16000  Biso   1.000  H
  H36      1.0000 0.91250  0.40950  0.16000  Biso   1.000  H
  H37      1.0000 0.33750  0.65950  0.41000  Biso   1.000  H
  H38      1.0000 0.66250  0.34050  0.41000  Biso   1.000  H
  H39      1.0000 0.58750  0.59050  0.66000  Biso   1.000  H
  H40      1.0000 0.91250  0.90950  0.66000  Biso   1.000  H
  H41      1.0000 0.83750  0.15950  0.41000  Biso   1.000  H
  H42      1.0000 0.16250  0.84050  0.41000  Biso   1.000  H
  H43      1.0000 0.08750  0.09050  0.66000  Biso   1.000  H
  H44      1.0000 0.41250  0.40950  0.66000  Biso   1.000  H
  H45      1.0000 0.83750  0.65950  0.91000  Biso   1.000  H
  H46      1.0000 0.16250  0.34050  0.91000  Biso   1.000  H
  H47      1.0000 0.08750  0.59050  0.16000  Biso   1.000  H
  H48      1.0000 0.41250  0.90950  0.16000  Biso   1.000  H
  O25      1.0000 0.47750  0.07380  0.99340  Biso   1.000  O
  O26      1.0000 0.52250  0.92620  0.99340  Biso   1.000  O
  O27      1.0000 0.72750  0.17620  0.24340  Biso   1.000  O
  O28      1.0000 0.77250  0.32380  0.24340  Biso   1.000  O
  O29      1.0000 0.47750  0.57380  0.49340  Biso   1.000  O
  O30      1.0000 0.52250  0.42620  0.49340  Biso   1.000  O
  O31      1.0000 0.72750  0.67620  0.74340  Biso   1.000  O
  O32      1.0000 0.77250  0.82380  0.74340  Biso   1.000  O
  O33      1.0000 0.97750  0.07380  0.49340  Biso   1.000  O
  O34      1.0000 0.02250  0.92620  0.49340  Biso   1.000  O
  O35      1.0000 0.22750  0.17620  0.74340  Biso   1.000  O
  O36      1.0000 0.27250  0.32380  0.74340  Biso   1.000  O
  O37      1.0000 0.97750  0.57380  0.99340  Biso   1.000  O
  O38      1.0000 0.02250  0.42620  0.99340  Biso   1.000  O
  O39      1.0000 0.22750  0.67620  0.24340  Biso   1.000  O
  O40      1.0000 0.27250  0.82380  0.24340  Biso   1.000  O
  H49      1.0000 0.47500  0.06000  0.06300  Biso   1.000  H
  H50      1.0000 0.52500  0.94000  0.06300  Biso   1.000  H
  H51      1.0000 0.72500  0.19000  0.31300  Biso   1.000  H
  H52      1.0000 0.77500  0.31000  0.31300  Biso   1.000  H
  H53      1.0000 0.47500  0.56000  0.56300  Biso   1.000  H
  H54      1.0000 0.52500  0.44000  0.56300  Biso   1.000  H
  H55      1.0000 0.72500  0.69000  0.81300  Biso   1.000  H
  H56      1.0000 0.77500  0.81000  0.81300  Biso   1.000  H
  H57      1.0000 0.97500  0.06000  0.56300  Biso   1.000  H
  H58      1.0000 0.02500  0.94000  0.56300  Biso   1.000  H
  H59      1.0000 0.22500  0.19000  0.81300  Biso   1.000  H
  H60      1.0000 0.27500  0.31000  0.81300  Biso   1.000  H
  H61      1.0000 0.97500  0.56000  0.06300  Biso   1.000  H
  H62      1.0000 0.02500  0.44000  0.06300  Biso   1.000  H
  H63      1.0000 0.22500  0.69000  0.31300  Biso   1.000  H
  H64      1.0000 0.27500  0.81000  0.31300  Biso   1.000  H
  O41      1.0000 0.26953  0.01380  0.20090  Biso   1.000  O
  O42      1.0000 0.73047  0.98620  0.20090  Biso   1.000  O
  O43      1.0000 0.51953  0.23620  0.45090  Biso   1.000  O
  O44      1.0000 0.98047  0.26380  0.45090  Biso   1.000  O
  O45      1.0000 0.26953  0.51380  0.70090  Biso   1.000  O
  O46      1.0000 0.73047  0.48620  0.70090  Biso   1.000  O
  O47      1.0000 0.51953  0.73620  0.95090  Biso   1.000  O
  O48      1.0000 0.98047  0.76380  0.95090  Biso   1.000  O
  O49      1.0000 0.76953  0.01380  0.70090  Biso   1.000  O
  O50      1.0000 0.23047  0.98620  0.70090  Biso   1.000  O
  O51      1.0000 0.01953  0.23620  0.95090  Biso   1.000  O
  O52      1.0000 0.48047  0.26380  0.95090  Biso   1.000  O
  O53      1.0000 0.76953  0.51380  0.20090  Biso   1.000  O
  O54      1.0000 0.23047  0.48620  0.20090  Biso   1.000  O
  O55      1.0000 0.01953  0.73620  0.45090  Biso   1.000  O
  O56      1.0000 0.48047  0.76380  0.45090  Biso   1.000  O
  Cu1      1.0000 0.30512  0.97543  0.48970  Biso   1.000  Cu
  Cu2      1.0000 0.69488  0.02457  0.48970  Biso   1.000  Cu
  Cu3      1.0000 0.55512  0.27457  0.73970  Biso   1.000  Cu
  Cu4      1.0000 0.94488  0.22543  0.73970  Biso   1.000  Cu
  Cu5      1.0000 0.30512  0.47543  0.98970  Biso   1.000  Cu
  Cu6      1.0000 0.69488  0.52457  0.98970  Biso   1.000  Cu
  Cu7      1.0000 0.55512  0.77457  0.23970  Biso   1.000  Cu
  Cu8      1.0000 0.94488  0.72543  0.23970  Biso   1.000  Cu
  Cu9      1.0000 0.80512  0.97543  0.98970  Biso   1.000  Cu
  Cu10     1.0000 0.19488  0.02457  0.98970  Biso   1.000  Cu
  Cu11     1.0000 0.05512  0.27457  0.23970  Biso   1.000  Cu
  Cu12     1.0000 0.44488  0.22543  0.23970  Biso   1.000  Cu
  Cu13     1.0000 0.80512  0.47543  0.48970  Biso   1.000  Cu
  Cu14     1.0000 0.19488  0.52457  0.48970  Biso   1.000  Cu
  Cu15     1.0000 0.05512  0.77457  0.73970  Biso   1.000  Cu
  Cu16     1.0000 0.44488  0.72543  0.73970  Biso   1.000  Cu
  O57      1.0000 0.33916  0.97171  0.27730  Biso   1.000  O
  O58      1.0000 0.66084  0.02829  0.27730  Biso   1.000  O
  O59      1.0000 0.58916  0.27829  0.52730  Biso   1.000  O
  O60      1.0000 0.91084  0.22171  0.52730  Biso   1.000  O
  O61      1.0000 0.33916  0.47171  0.77730  Biso   1.000  O
  O62      1.0000 0.66084  0.52829  0.77730  Biso   1.000  O
  O63      1.0000 0.58916  0.77829  0.02730  Biso   1.000  O
  O64      1.0000 0.91084  0.72171  0.02730  Biso   1.000  O
  O65      1.0000 0.83916  0.97171  0.77730  Biso   1.000  O
  O66      1.0000 0.16084  0.02829  0.77730  Biso   1.000  O
  O67      1.0000 0.08916  0.27829  0.02730  Biso   1.000  O
  O68      1.0000 0.41084  0.22171  0.02730  Biso   1.000  O
  O69      1.0000 0.83916  0.47171  0.27730  Biso   1.000  O
  O70      1.0000 0.16084  0.52829  0.27730  Biso   1.000  O
  O71      1.0000 0.08916  0.77829  0.52730  Biso   1.000  O
  O72      1.0000 0.41084  0.72171  0.52730  Biso   1.000  O
  C1       1.0000 0.42620  0.07404  0.46790  Biso   1.000  C
  C2       1.0000 0.57380  0.92596  0.46790  Biso   1.000  C
  C3       1.0000 0.67620  0.17596  0.71790  Biso   1.000  C
  C4       1.0000 0.82380  0.32404  0.71790  Biso   1.000  C
  C5       1.0000 0.42620  0.57404  0.96790  Biso   1.000  C
  C6       1.0000 0.57380  0.42596  0.96790  Biso   1.000  C
  C7       1.0000 0.67620  0.67596  0.21790  Biso   1.000  C
  C8       1.0000 0.82380  0.82404  0.21790  Biso   1.000  C
  C9       1.0000 0.92620  0.07404  0.96790  Biso   1.000  C
  C10      1.0000 0.07380  0.92596  0.96790  Biso   1.000  C
  C11      1.0000 0.17620  0.17596  0.21790  Biso   1.000  C
  C12      1.0000 0.32380  0.32404  0.21790  Biso   1.000  C
  C13      1.0000 0.92620  0.57404  0.46790  Biso   1.000  C
  C14      1.0000 0.07380  0.42596  0.46790  Biso   1.000  C
  C15      1.0000 0.17620  0.67596  0.71790  Biso   1.000  C
  C16      1.0000 0.32380  0.82404  0.71790  Biso   1.000  C
  H65      1.0000 0.45890  0.08050  0.41500  Biso   1.000  H
  H66      1.0000 0.54110  0.91950  0.41500  Biso   1.000  H
  H67      1.0000 0.70890  0.16950  0.66500  Biso   1.000  H
  H68      1.0000 0.79110  0.33050  0.66500  Biso   1.000  H
  H69      1.0000 0.45890  0.58050  0.91500  Biso   1.000  H
  H70      1.0000 0.54110  0.41950  0.91500  Biso   1.000  H
  H71      1.0000 0.70890  0.66950  0.16500  Biso   1.000  H
  H72      1.0000 0.79110  0.83050  0.16500  Biso   1.000  H
  H73      1.0000 0.95890  0.08050  0.91500  Biso   1.000  H
  H74      1.0000 0.04110  0.91950  0.91500  Biso   1.000  H
  H75      1.0000 0.20890  0.16950  0.16500  Biso   1.000  H
  H76      1.0000 0.29110  0.33050  0.16500  Biso   1.000  H
  H77      1.0000 0.95890  0.58050  0.41500  Biso   1.000  H
  H78      1.0000 0.04110  0.41950  0.41500  Biso   1.000  H
  H79      1.0000 0.20890  0.66950  0.66500  Biso   1.000  H
  H80      1.0000 0.29110  0.83050  0.66500  Biso   1.000  H
  C17      1.0000 0.48720  0.13994  0.67730  Biso   1.000  C
  C18      1.0000 0.51280  0.86006  0.67730  Biso   1.000  C
  C19      1.0000 0.73720  0.11006  0.92730  Biso   1.000  C
  C20      1.0000 0.76280  0.38994  0.92730  Biso   1.000  C
  C21      1.0000 0.48720  0.63994  0.17730  Biso   1.000  C
  C22      1.0000 0.51280  0.36006  0.17730  Biso   1.000  C
  C23      1.0000 0.73720  0.61006  0.42730  Biso   1.000  C
  C24      1.0000 0.76280  0.88994  0.42730  Biso   1.000  C
  C25      1.0000 0.98720  0.13994  0.17730  Biso   1.000  C
  C26      1.0000 0.01280  0.86006  0.17730  Biso   1.000  C
  C27      1.0000 0.23720  0.11006  0.42730  Biso   1.000  C
  C28      1.0000 0.26280  0.38994  0.42730  Biso   1.000  C
  C29      1.0000 0.98720  0.63994  0.67730  Biso   1.000  C
  C30      1.0000 0.01280  0.36006  0.67730  Biso   1.000  C
  C31      1.0000 0.23720  0.61006  0.92730  Biso   1.000  C
  C32      1.0000 0.26280  0.88994  0.92730  Biso   1.000  C
  H81      1.0000 0.50340  0.16670  0.69010  Biso   1.000  H
  H82      1.0000 0.49660  0.83330  0.69010  Biso   1.000  H
  H83      1.0000 0.75340  0.08330  0.94010  Biso   1.000  H
  H84      1.0000 0.74660  0.41670  0.94010  Biso   1.000  H
  H85      1.0000 0.50340  0.66670  0.19010  Biso   1.000  H
  H86      1.0000 0.49660  0.33330  0.19010  Biso   1.000  H
  H87      1.0000 0.75340  0.58330  0.44010  Biso   1.000  H
  H88      1.0000 0.74660  0.91670  0.44010  Biso   1.000  H
  H89      1.0000 0.00340  0.16670  0.19010  Biso   1.000  H
  H90      1.0000 0.99660  0.83330  0.19010  Biso   1.000  H
  H91      1.0000 0.25340  0.08330  0.44010  Biso   1.000  H
  H92      1.0000 0.24660  0.41670  0.44010  Biso   1.000  H
  H93      1.0000 0.00340  0.66670  0.69010  Biso   1.000  H
  H94      1.0000 0.99660  0.33330  0.69010  Biso   1.000  H
  H95      1.0000 0.25340  0.58330  0.94010  Biso   1.000  H
  H96      1.0000 0.24660  0.91670  0.94010  Biso   1.000  H
  H97      1.0000 0.47110  0.13060  0.75880  Biso   1.000  H
  H98      1.0000 0.52890  0.86940  0.75880  Biso   1.000  H
  H99      1.0000 0.72110  0.11940  0.00880  Biso   1.000  H
  H100     1.0000 0.77890  0.38060  0.00880  Biso   1.000  H
  H101     1.0000 0.47110  0.63060  0.25880  Biso   1.000  H
  H102     1.0000 0.52890  0.36940  0.25880  Biso   1.000  H
  H103     1.0000 0.72110  0.61940  0.50880  Biso   1.000  H
  H104     1.0000 0.77890  0.88060  0.50880  Biso   1.000  H
  H105     1.0000 0.97110  0.13060  0.25880  Biso   1.000  H
  H106     1.0000 0.02890  0.86940  0.25880  Biso   1.000  H
  H107     1.0000 0.22110  0.11940  0.50880  Biso   1.000  H
  H108     1.0000 0.27890  0.38060  0.50880  Biso   1.000  H
  H109     1.0000 0.97110  0.63060  0.75880  Biso   1.000  H
  H110     1.0000 0.02890  0.36940  0.75880  Biso   1.000  H
  H111     1.0000 0.22110  0.61940  0.00880  Biso   1.000  H
  H112     1.0000 0.27890  0.88060  0.00880  Biso   1.000  H
  C33      1.0000 0.40660  0.10144  0.55850  Biso   1.000  C
  C34      1.0000 0.59340  0.89856  0.55850  Biso   1.000  C
  C35      1.0000 0.65660  0.14856  0.80850  Biso   1.000  C
  C36      1.0000 0.84340  0.35144  0.80850  Biso   1.000  C
  C37      1.0000 0.40660  0.60144  0.05850  Biso   1.000  C
  C38      1.0000 0.59340  0.39856  0.05850  Biso   1.000  C
  C39      1.0000 0.65660  0.64856  0.30850  Biso   1.000  C
  C40      1.0000 0.84340  0.85144  0.30850  Biso   1.000  C
  C41      1.0000 0.90660  0.10144  0.05850  Biso   1.000  C
  C42      1.0000 0.09340  0.89856  0.05850  Biso   1.000  C
  C43      1.0000 0.15660  0.14856  0.30850  Biso   1.000  C
  C44      1.0000 0.34340  0.35144  0.30850  Biso   1.000  C
  C45      1.0000 0.90660  0.60144  0.55850  Biso   1.000  C
  C46      1.0000 0.09340  0.39856  0.55850  Biso   1.000  C
  C47      1.0000 0.15660  0.64856  0.80850  Biso   1.000  C
  C48      1.0000 0.34340  0.85144  0.80850  Biso   1.000  C
  C49      1.0000 0.35720  0.08918  0.63550  Biso   1.000  C
  C50      1.0000 0.64280  0.91082  0.63550  Biso   1.000  C
  C51      1.0000 0.60720  0.16082  0.88550  Biso   1.000  C
  C52      1.0000 0.89280  0.33918  0.88550  Biso   1.000  C
  C53      1.0000 0.35720  0.58918  0.13550  Biso   1.000  C
  C54      1.0000 0.64280  0.41082  0.13550  Biso   1.000  C
  C55      1.0000 0.60720  0.66082  0.38550  Biso   1.000  C
  C56      1.0000 0.89280  0.83918  0.38550  Biso   1.000  C
  C57      1.0000 0.85720  0.08918  0.13550  Biso   1.000  C
  C58      1.0000 0.14280  0.91082  0.13550  Biso   1.000  C
  C59      1.0000 0.10720  0.16082  0.38550  Biso   1.000  C
  C60      1.0000 0.39280  0.33918  0.38550  Biso   1.000  C
  C61      1.0000 0.85720  0.58918  0.63550  Biso   1.000  C
  C62      1.0000 0.14280  0.41082  0.63550  Biso   1.000  C
  C63      1.0000 0.10720  0.66082  0.88550  Biso   1.000  C
  C64      1.0000 0.39280  0.83918  0.88550  Biso   1.000  C
  H113     1.0000 0.34260  0.10600  0.69980  Biso   1.000  H
  H114     1.0000 0.65740  0.89400  0.69980  Biso   1.000  H
  H115     1.0000 0.59260  0.14400  0.94980  Biso   1.000  H
  H116     1.0000 0.90740  0.35600  0.94980  Biso   1.000  H
  H117     1.0000 0.34260  0.60600  0.19980  Biso   1.000  H
  H118     1.0000 0.65740  0.39400  0.19980  Biso   1.000  H
  H119     1.0000 0.59260  0.64400  0.44980  Biso   1.000  H
  H120     1.0000 0.90740  0.85600  0.44980  Biso   1.000  H
  H121     1.0000 0.84260  0.10600  0.19980  Biso   1.000  H
  H122     1.0000 0.15740  0.89400  0.19980  Biso   1.000  H
  H123     1.0000 0.09260  0.14400  0.44980  Biso   1.000  H
  H124     1.0000 0.40740  0.35600  0.44980  Biso   1.000  H
  H125     1.0000 0.84260  0.60600  0.69980  Biso   1.000  H
  H126     1.0000 0.15740  0.39400  0.69980  Biso   1.000  H
  H127     1.0000 0.09260  0.64400  0.94980  Biso   1.000  H
  H128     1.0000 0.40740  0.85600  0.94980  Biso   1.000  H
  C65      1.0000 0.43520  0.14132  0.57520  Biso   1.000  C
  C66      1.0000 0.56480  0.85868  0.57520  Biso   1.000  C
  C67      1.0000 0.68520  0.10868  0.82520  Biso   1.000  C
  C68      1.0000 0.81480  0.39132  0.82520  Biso   1.000  C
  C69      1.0000 0.43520  0.64132  0.07520  Biso   1.000  C
  C70      1.0000 0.56480  0.35868  0.07520  Biso   1.000  C
  C71      1.0000 0.68520  0.60868  0.32520  Biso   1.000  C
  C72      1.0000 0.81480  0.89132  0.32520  Biso   1.000  C
  C73      1.0000 0.93520  0.14132  0.07520  Biso   1.000  C
  C74      1.0000 0.06480  0.85868  0.07520  Biso   1.000  C
  C75      1.0000 0.18520  0.10868  0.32520  Biso   1.000  C
  C76      1.0000 0.31480  0.39132  0.32520  Biso   1.000  C
  C77      1.0000 0.93520  0.64132  0.57520  Biso   1.000  C
  C78      1.0000 0.06480  0.35868  0.57520  Biso   1.000  C
  C79      1.0000 0.18520  0.60868  0.82520  Biso   1.000  C
  C80      1.0000 0.31480  0.89132  0.82520  Biso   1.000  C
  H129     1.0000 0.40450  0.16050  0.60210  Biso   1.000  H
  H130     1.0000 0.59550  0.83950  0.60210  Biso   1.000  H
  H131     1.0000 0.65450  0.08950  0.85210  Biso   1.000  H
  H132     1.0000 0.84550  0.41050  0.85210  Biso   1.000  H
  H133     1.0000 0.40450  0.66050  0.10210  Biso   1.000  H
  H134     1.0000 0.59550  0.33950  0.10210  Biso   1.000  H
  H135     1.0000 0.65450  0.58950  0.35210  Biso   1.000  H
  H136     1.0000 0.84550  0.91050  0.35210  Biso   1.000  H
  H137     1.0000 0.90450  0.16050  0.10210  Biso   1.000  H
  H138     1.0000 0.09550  0.83950  0.10210  Biso   1.000  H
  H139     1.0000 0.15450  0.08950  0.35210  Biso   1.000  H
  H140     1.0000 0.34550  0.41050  0.35210  Biso   1.000  H
  H141     1.0000 0.90450  0.66050  0.60210  Biso   1.000  H
  H142     1.0000 0.09550  0.33950  0.60210  Biso   1.000  H
  H143     1.0000 0.15450  0.58950  0.85210  Biso   1.000  H
  H144     1.0000 0.34550  0.91050  0.85210  Biso   1.000  H
  H145     1.0000 0.45160  0.15030  0.49350  Biso   1.000  H
  H146     1.0000 0.54840  0.84970  0.49350  Biso   1.000  H
  H147     1.0000 0.70160  0.09970  0.74350  Biso   1.000  H
  H148     1.0000 0.79840  0.40030  0.74350  Biso   1.000  H
  H149     1.0000 0.45160  0.65030  0.99350  Biso   1.000  H
  H150     1.0000 0.54840  0.34970  0.99350  Biso   1.000  H
  H151     1.0000 0.70160  0.59970  0.24350  Biso   1.000  H
  H152     1.0000 0.79840  0.90030  0.24350  Biso   1.000  H
  H153     1.0000 0.95160  0.15030  0.99350  Biso   1.000  H
  H154     1.0000 0.04840  0.84970  0.99350  Biso   1.000  H
  H155     1.0000 0.20160  0.09970  0.24350  Biso   1.000  H
  H156     1.0000 0.29840  0.40030  0.24350  Biso   1.000  H
  H157     1.0000 0.95160  0.65030  0.49350  Biso   1.000  H
  H158     1.0000 0.04840  0.34970  0.49350  Biso   1.000  H
  H159     1.0000 0.20160  0.59970  0.74350  Biso   1.000  H
  H160     1.0000 0.29840  0.90030  0.74350  Biso   1.000  H
  C81      1.0000 0.33100  0.05261  0.61560  Biso   1.000  C
  C82      1.0000 0.66900  0.94739  0.61560  Biso   1.000  C
  C83      1.0000 0.58100  0.19739  0.86560  Biso   1.000  C
  C84      1.0000 0.91900  0.30261  0.86560  Biso   1.000  C
  C85      1.0000 0.33100  0.55261  0.11560  Biso   1.000  C
  C86      1.0000 0.66900  0.44739  0.11560  Biso   1.000  C
  C87      1.0000 0.58100  0.69739  0.36560  Biso   1.000  C
  C88      1.0000 0.91900  0.80261  0.36560  Biso   1.000  C
  C89      1.0000 0.83100  0.05261  0.11560  Biso   1.000  C
  C90      1.0000 0.16900  0.94739  0.11560  Biso   1.000  C
  C91      1.0000 0.08100  0.19739  0.36560  Biso   1.000  C
  C92      1.0000 0.41900  0.30261  0.36560  Biso   1.000  C
  C93      1.0000 0.83100  0.55261  0.61560  Biso   1.000  C
  C94      1.0000 0.16900  0.44739  0.61560  Biso   1.000  C
  C95      1.0000 0.08100  0.69739  0.86560  Biso   1.000  C
  C96      1.0000 0.41900  0.80261  0.86560  Biso   1.000  C
  H161     1.0000 0.29810  0.04540  0.66690  Biso   1.000  H
  H162     1.0000 0.70190  0.95460  0.66690  Biso   1.000  H
  H163     1.0000 0.54810  0.20460  0.91690  Biso   1.000  H
  H164     1.0000 0.95190  0.29540  0.91690  Biso   1.000  H
  H165     1.0000 0.29810  0.54540  0.16690  Biso   1.000  H
  H166     1.0000 0.70190  0.45460  0.16690  Biso   1.000  H
  H167     1.0000 0.54810  0.70460  0.41690  Biso   1.000  H
  H168     1.0000 0.95190  0.79540  0.41690  Biso   1.000  H
  H169     1.0000 0.79810  0.04540  0.16690  Biso   1.000  H
  H170     1.0000 0.20190  0.95460  0.16690  Biso   1.000  H
  H171     1.0000 0.04810  0.20460  0.41690  Biso   1.000  H
  H172     1.0000 0.45190  0.29540  0.41690  Biso   1.000  H
  H173     1.0000 0.79810  0.54540  0.66690  Biso   1.000  H
  H174     1.0000 0.20190  0.45460  0.66690  Biso   1.000  H
  H175     1.0000 0.04810  0.70460  0.91690  Biso   1.000  H
  H176     1.0000 0.45190  0.79540  0.91690  Biso   1.000  H
  C97      1.0000 0.39870  0.03789  0.45490  Biso   1.000  C
  C98      1.0000 0.60130  0.96211  0.45490  Biso   1.000  C
  C99      1.0000 0.64870  0.21211  0.70490  Biso   1.000  C
  C100     1.0000 0.85130  0.28789  0.70490  Biso   1.000  C
  C101     1.0000 0.39870  0.53789  0.95490  Biso   1.000  C
  C102     1.0000 0.60130  0.46211  0.95490  Biso   1.000  C
  C103     1.0000 0.64870  0.71211  0.20490  Biso   1.000  C
  C104     1.0000 0.85130  0.78789  0.20490  Biso   1.000  C
  C105     1.0000 0.89870  0.03789  0.95490  Biso   1.000  C
  C106     1.0000 0.10130  0.96211  0.95490  Biso   1.000  C
  C107     1.0000 0.14870  0.21211  0.20490  Biso   1.000  C
  C108     1.0000 0.35130  0.28789  0.20490  Biso   1.000  C
  C109     1.0000 0.89870  0.53789  0.45490  Biso   1.000  C
  C110     1.0000 0.10130  0.46211  0.45490  Biso   1.000  C
  C111     1.0000 0.14870  0.71211  0.70490  Biso   1.000  C
  C112     1.0000 0.35130  0.78789  0.70490  Biso   1.000  C
  H177     1.0000 0.41390  0.02000  0.39430  Biso   1.000  H
  H178     1.0000 0.58610  0.98000  0.39430  Biso   1.000  H
  H179     1.0000 0.66390  0.23000  0.64430  Biso   1.000  H
  H180     1.0000 0.83610  0.27000  0.64430  Biso   1.000  H
  H181     1.0000 0.41390  0.52000  0.89430  Biso   1.000  H
  H182     1.0000 0.58610  0.48000  0.89430  Biso   1.000  H
  H183     1.0000 0.66390  0.73000  0.14430  Biso   1.000  H
  H184     1.0000 0.83610  0.77000  0.14430  Biso   1.000  H
  H185     1.0000 0.91390  0.02000  0.89430  Biso   1.000  H
  H186     1.0000 0.08610  0.98000  0.89430  Biso   1.000  H
  H187     1.0000 0.16390  0.23000  0.14430  Biso   1.000  H
  H188     1.0000 0.33610  0.27000  0.14430  Biso   1.000  H
  H189     1.0000 0.91390  0.52000  0.39430  Biso   1.000  H
  H190     1.0000 0.08610  0.48000  0.39430  Biso   1.000  H
  H191     1.0000 0.16390  0.73000  0.64430  Biso   1.000  H
  H192     1.0000 0.33610  0.77000  0.64430  Biso   1.000  H
  N1       1.0000 0.34990  0.02674  0.52660  Biso   1.000  N
  N2       1.0000 0.65010  0.97326  0.52660  Biso   1.000  N
  N3       1.0000 0.59990  0.22326  0.77660  Biso   1.000  N
  N4       1.0000 0.90010  0.27674  0.77660  Biso   1.000  N
  N5       1.0000 0.34990  0.52674  0.02660  Biso   1.000  N
  N6       1.0000 0.65010  0.47326  0.02660  Biso   1.000  N
  N7       1.0000 0.59990  0.72326  0.27660  Biso   1.000  N
  N8       1.0000 0.90010  0.77674  0.27660  Biso   1.000  N
  N9       1.0000 0.84990  0.02674  0.02660  Biso   1.000  N
  N10      1.0000 0.15010  0.97326  0.02660  Biso   1.000  N
  N11      1.0000 0.09990  0.22326  0.27660  Biso   1.000  N
  N12      1.0000 0.40010  0.27674  0.27660  Biso   1.000  N
  N13      1.0000 0.84990  0.52674  0.52660  Biso   1.000  N
  N14      1.0000 0.15010  0.47326  0.52660  Biso   1.000  N
  N15      1.0000 0.09990  0.72326  0.77660  Biso   1.000  N
  N16      1.0000 0.40010  0.77674  0.77660  Biso   1.000  N
  N17      1.0000 0.62700  0.05949  0.55030  Biso   1.000  N
  N18      1.0000 0.37300  0.94051  0.55030  Biso   1.000  N
  N19      1.0000 0.87700  0.19051  0.80030  Biso   1.000  N
  N20      1.0000 0.62300  0.30949  0.80030  Biso   1.000  N
  N21      1.0000 0.62700  0.55949  0.05030  Biso   1.000  N
  N22      1.0000 0.37300  0.44051  0.05030  Biso   1.000  N
  N23      1.0000 0.87700  0.69051  0.30030  Biso   1.000  N
  N24      1.0000 0.62300  0.80949  0.30030  Biso   1.000  N
  N25      1.0000 0.12700  0.05949  0.05030  Biso   1.000  N
  N26      1.0000 0.87300  0.94051  0.05030  Biso   1.000  N
  N27      1.0000 0.37700  0.19051  0.30030  Biso   1.000  N
  N28      1.0000 0.12300  0.30949  0.30030  Biso   1.000  N
  N29      1.0000 0.12700  0.55949  0.55030  Biso   1.000  N
  N30      1.0000 0.87300  0.44051  0.55030  Biso   1.000  N
  N31      1.0000 0.37700  0.69051  0.80030  Biso   1.000  N
  N32      1.0000 0.12300  0.80949  0.80030  Biso   1.000  N
  C113     1.0000 0.62080  0.09590  0.49640  Biso   1.000  C
  C114     1.0000 0.37920  0.90410  0.49640  Biso   1.000  C
  C115     1.0000 0.87080  0.15410  0.74640  Biso   1.000  C
  C116     1.0000 0.62920  0.34590  0.74640  Biso   1.000  C
  C117     1.0000 0.62080  0.59590  0.99640  Biso   1.000  C
  C118     1.0000 0.37920  0.40410  0.99640  Biso   1.000  C
  C119     1.0000 0.87080  0.65410  0.24640  Biso   1.000  C
  C120     1.0000 0.62920  0.84590  0.24640  Biso   1.000  C
  C121     1.0000 0.12080  0.09590  0.99640  Biso   1.000  C
  C122     1.0000 0.87920  0.90410  0.99640  Biso   1.000  C
  C123     1.0000 0.37080  0.15410  0.24640  Biso   1.000  C
  C124     1.0000 0.12920  0.34590  0.24640  Biso   1.000  C
  C125     1.0000 0.12080  0.59590  0.49640  Biso   1.000  C
  C126     1.0000 0.87920  0.40410  0.49640  Biso   1.000  C
  C127     1.0000 0.37080  0.65410  0.74640  Biso   1.000  C
  C128     1.0000 0.12920  0.84590  0.74640  Biso   1.000  C
  H193     1.0000 0.64740  0.10340  0.43110  Biso   1.000  H
  H194     1.0000 0.35260  0.89660  0.43110  Biso   1.000  H
  H195     1.0000 0.89740  0.14660  0.68110  Biso   1.000  H
  H196     1.0000 0.60260  0.35340  0.68110  Biso   1.000  H
  H197     1.0000 0.64740  0.60340  0.93110  Biso   1.000  H
  H198     1.0000 0.35260  0.39660  0.93110  Biso   1.000  H
  H199     1.0000 0.89740  0.64660  0.18110  Biso   1.000  H
  H200     1.0000 0.60260  0.85340  0.18110  Biso   1.000  H
  H201     1.0000 0.14740  0.10340  0.93110  Biso   1.000  H
  H202     1.0000 0.85260  0.89660  0.93110  Biso   1.000  H
  H203     1.0000 0.39740  0.14660  0.18110  Biso   1.000  H
  H204     1.0000 0.10260  0.35340  0.18110  Biso   1.000  H
  H205     1.0000 0.14740  0.60340  0.43110  Biso   1.000  H
  H206     1.0000 0.85260  0.39660  0.43110  Biso   1.000  H
  H207     1.0000 0.39740  0.64660  0.68110  Biso   1.000  H
  H208     1.0000 0.10260  0.85340  0.68110  Biso   1.000  H
  C129     1.0000 0.57680  0.12236  0.53430  Biso   1.000  C
  C130     1.0000 0.42320  0.87764  0.53430  Biso   1.000  C
  C131     1.0000 0.82680  0.12764  0.78430  Biso   1.000  C
  C132     1.0000 0.67320  0.37236  0.78430  Biso   1.000  C
  C133     1.0000 0.57680  0.62236  0.03430  Biso   1.000  C
  C134     1.0000 0.42320  0.37764  0.03430  Biso   1.000  C
  C135     1.0000 0.82680  0.62764  0.28430  Biso   1.000  C
  C136     1.0000 0.67320  0.87236  0.28430  Biso   1.000  C
  C137     1.0000 0.07680  0.12236  0.03430  Biso   1.000  C
  C138     1.0000 0.92320  0.87764  0.03430  Biso   1.000  C
  C139     1.0000 0.32680  0.12764  0.28430  Biso   1.000  C
  C140     1.0000 0.17320  0.37236  0.28430  Biso   1.000  C
  C141     1.0000 0.07680  0.62236  0.53430  Biso   1.000  C
  C142     1.0000 0.92320  0.37764  0.53430  Biso   1.000  C
  C143     1.0000 0.32680  0.62764  0.78430  Biso   1.000  C
  C144     1.0000 0.17320  0.87236  0.78430  Biso   1.000  C
  H209     1.0000 0.57340  0.14710  0.49390  Biso   1.000  H
  H210     1.0000 0.42660  0.85290  0.49390  Biso   1.000  H
  H211     1.0000 0.82340  0.10290  0.74390  Biso   1.000  H
  H212     1.0000 0.67660  0.39710  0.74390  Biso   1.000  H
  H213     1.0000 0.57340  0.64710  0.99390  Biso   1.000  H
  H214     1.0000 0.42660  0.35290  0.99390  Biso   1.000  H
  H215     1.0000 0.82340  0.60290  0.24390  Biso   1.000  H
  H216     1.0000 0.67660  0.89710  0.24390  Biso   1.000  H
  H217     1.0000 0.07340  0.14710  0.99390  Biso   1.000  H
  H218     1.0000 0.92660  0.85290  0.99390  Biso   1.000  H
  H219     1.0000 0.32340  0.10290  0.24390  Biso   1.000  H
  H220     1.0000 0.17660  0.39710  0.24390  Biso   1.000  H
  H221     1.0000 0.07340  0.64710  0.49390  Biso   1.000  H
  H222     1.0000 0.92660  0.35290  0.49390  Biso   1.000  H
  H223     1.0000 0.32340  0.60290  0.74390  Biso   1.000  H
  H224     1.0000 0.17660  0.89710  0.74390  Biso   1.000  H
  C145     1.0000 0.54340  0.07474  0.68620  Biso   1.000  C
  C146     1.0000 0.45660  0.92526  0.68620  Biso   1.000  C
  C147     1.0000 0.79340  0.17526  0.93620  Biso   1.000  C
  C148     1.0000 0.70660  0.32474  0.93620  Biso   1.000  C
  C149     1.0000 0.54340  0.57474  0.18620  Biso   1.000  C
  C150     1.0000 0.45660  0.42526  0.18620  Biso   1.000  C
  C151     1.0000 0.79340  0.67526  0.43620  Biso   1.000  C
  C152     1.0000 0.70660  0.82474  0.43620  Biso   1.000  C
  C153     1.0000 0.04340  0.07474  0.18620  Biso   1.000  C
  C154     1.0000 0.95660  0.92526  0.18620  Biso   1.000  C
  C155     1.0000 0.29340  0.17526  0.43620  Biso   1.000  C
  C156     1.0000 0.20660  0.32474  0.43620  Biso   1.000  C
  C157     1.0000 0.04340  0.57474  0.68620  Biso   1.000  C
  C158     1.0000 0.95660  0.42526  0.68620  Biso   1.000  C
  C159     1.0000 0.29340  0.67526  0.93620  Biso   1.000  C
  C160     1.0000 0.20660  0.82474  0.93620  Biso   1.000  C
  H225     1.0000 0.51730  0.06650  0.75150  Biso   1.000  H
  H226     1.0000 0.48270  0.93350  0.75150  Biso   1.000  H
  H227     1.0000 0.76730  0.18350  0.00150  Biso   1.000  H
  H228     1.0000 0.73270  0.31650  0.00150  Biso   1.000  H
  H229     1.0000 0.51730  0.56650  0.25150  Biso   1.000  H
  H230     1.0000 0.48270  0.43350  0.25150  Biso   1.000  H
  H231     1.0000 0.76730  0.68350  0.50150  Biso   1.000  H
  H232     1.0000 0.73270  0.81650  0.50150  Biso   1.000  H
  H233     1.0000 0.01730  0.06650  0.25150  Biso   1.000  H
  H234     1.0000 0.98270  0.93350  0.25150  Biso   1.000  H
  H235     1.0000 0.26730  0.18350  0.50150  Biso   1.000  H
  H236     1.0000 0.23270  0.31650  0.50150  Biso   1.000  H
  H237     1.0000 0.01730  0.56650  0.75150  Biso   1.000  H
  H238     1.0000 0.98270  0.43350  0.75150  Biso   1.000  H
  H239     1.0000 0.26730  0.68350  0.00150  Biso   1.000  H
  H240     1.0000 0.23270  0.81650  0.00150  Biso   1.000  H
  C161     1.0000 0.58810  0.04949  0.64290  Biso   1.000  C
  C162     1.0000 0.41190  0.95051  0.64290  Biso   1.000  C
  C163     1.0000 0.83810  0.20051  0.89290  Biso   1.000  C
  C164     1.0000 0.66190  0.29949  0.89290  Biso   1.000  C
  C165     1.0000 0.58810  0.54949  0.14290  Biso   1.000  C
  C166     1.0000 0.41190  0.45051  0.14290  Biso   1.000  C
  C167     1.0000 0.83810  0.70051  0.39290  Biso   1.000  C
  C168     1.0000 0.66190  0.79949  0.39290  Biso   1.000  C
  C169     1.0000 0.08810  0.04949  0.14290  Biso   1.000  C
  C170     1.0000 0.91190  0.95051  0.14290  Biso   1.000  C
  C171     1.0000 0.33810  0.20051  0.39290  Biso   1.000  C
  C172     1.0000 0.16190  0.29949  0.39290  Biso   1.000  C
  C173     1.0000 0.08810  0.54949  0.64290  Biso   1.000  C
  C174     1.0000 0.91190  0.45051  0.64290  Biso   1.000  C
  C175     1.0000 0.33810  0.70051  0.89290  Biso   1.000  C
  C176     1.0000 0.16190  0.79949  0.89290  Biso   1.000  C
  H241     1.0000 0.59140  0.02420  0.68000  Biso   1.000  H
  H242     1.0000 0.40860  0.97580  0.68000  Biso   1.000  H
  H243     1.0000 0.84140  0.22580  0.93000  Biso   1.000  H
  H244     1.0000 0.65860  0.27420  0.93000  Biso   1.000  H
  H245     1.0000 0.59140  0.52420  0.18000  Biso   1.000  H
  H246     1.0000 0.40860  0.47580  0.18000  Biso   1.000  H
  H247     1.0000 0.84140  0.72580  0.43000  Biso   1.000  H
  H248     1.0000 0.65860  0.77420  0.43000  Biso   1.000  H
  H249     1.0000 0.09140  0.02420  0.18000  Biso   1.000  H
  H250     1.0000 0.90860  0.97580  0.18000  Biso   1.000  H
  H251     1.0000 0.34140  0.22580  0.43000  Biso   1.000  H
  H252     1.0000 0.15860  0.27420  0.43000  Biso   1.000  H
  H253     1.0000 0.09140  0.52420  0.68000  Biso   1.000  H
  H254     1.0000 0.90860  0.47580  0.68000  Biso   1.000  H
  H255     1.0000 0.34140  0.72580  0.93000  Biso   1.000  H
  H256     1.0000 0.15860  0.77420  0.93000  Biso   1.000  H
  C177     1.0000 0.53710  0.11227  0.63300  Biso   1.000  C
  C178     1.0000 0.46290  0.88773  0.63300  Biso   1.000  C
  C179     1.0000 0.78710  0.13773  0.88300  Biso   1.000  C
  C180     1.0000 0.71290  0.36227  0.88300  Biso   1.000  C
  C181     1.0000 0.53710  0.61227  0.13300  Biso   1.000  C
  C182     1.0000 0.46290  0.38773  0.13300  Biso   1.000  C
  C183     1.0000 0.78710  0.63773  0.38300  Biso   1.000  C
  C184     1.0000 0.71290  0.86227  0.38300  Biso   1.000  C
  C185     1.0000 0.03710  0.11227  0.13300  Biso   1.000  C
  C186     1.0000 0.96290  0.88773  0.13300  Biso   1.000  C
  C187     1.0000 0.28710  0.13773  0.38300  Biso   1.000  C
  C188     1.0000 0.21290  0.36227  0.38300  Biso   1.000  C
  C189     1.0000 0.03710  0.61227  0.63300  Biso   1.000  C
  C190     1.0000 0.96290  0.38773  0.63300  Biso   1.000  C
  C191     1.0000 0.28710  0.63773  0.88300  Biso   1.000  C
  C192     1.0000 0.21290  0.86227  0.88300  Biso   1.000  C
  O73      1.0000 0.24988  0.06992  0.97620  Biso   1.000  O
  O74      1.0000 0.75012  0.93008  0.97620  Biso   1.000  O
  O75      1.0000 0.49988  0.18008  0.22620  Biso   1.000  O
  O76      1.0000 0.00012  0.31992  0.22620  Biso   1.000  O
  O77      1.0000 0.24988  0.56992  0.47620  Biso   1.000  O
  O78      1.0000 0.75012  0.43008  0.47620  Biso   1.000  O
  O79      1.0000 0.49988  0.68008  0.72620  Biso   1.000  O
  O80      1.0000 0.00012  0.81992  0.72620  Biso   1.000  O
  O81      1.0000 0.74988  0.06992  0.47620  Biso   1.000  O
  O82      1.0000 0.25012  0.93008  0.47620  Biso   1.000  O
  O83      1.0000 0.99988  0.18008  0.72620  Biso   1.000  O
  O84      1.0000 0.50012  0.31992  0.72620  Biso   1.000  O
  O85      1.0000 0.74988  0.56992  0.97620  Biso   1.000  O
  O86      1.0000 0.25012  0.43008  0.97620  Biso   1.000  O
  O87      1.0000 0.99988  0.68008  0.22620  Biso   1.000  O
  O88      1.0000 0.50012  0.81992  0.22620  Biso   1.000  O
  O89      1.0000 0.34803  0.08454  0.99250  Biso   1.000  O
  O90      1.0000 0.65197  0.91546  0.99250  Biso   1.000  O
  O91      1.0000 0.59803  0.16546  0.24250  Biso   1.000  O
  O92      1.0000 0.90197  0.33454  0.24250  Biso   1.000  O
  O93      1.0000 0.34803  0.58454  0.49250  Biso   1.000  O
  O94      1.0000 0.65197  0.41546  0.49250  Biso   1.000  O
  O95      1.0000 0.59803  0.66546  0.74250  Biso   1.000  O
  O96      1.0000 0.90197  0.83454  0.74250  Biso   1.000  O
  O97      1.0000 0.84803  0.08454  0.49250  Biso   1.000  O
  O98      1.0000 0.15197  0.91546  0.49250  Biso   1.000  O
  O99      1.0000 0.09803  0.16546  0.74250  Biso   1.000  O
  O100     1.0000 0.40197  0.33454  0.74250  Biso   1.000  O
  O101     1.0000 0.84803  0.58454  0.99250  Biso   1.000  O
  O102     1.0000 0.15197  0.41546  0.99250  Biso   1.000  O
  O103     1.0000 0.09803  0.66546  0.24250  Biso   1.000  O
  O104     1.0000 0.40197  0.83454  0.24250  Biso   1.000  O
  C193     1.0000 0.30530  0.06049  0.97850  Biso   1.000  C
  C194     1.0000 0.69470  0.93951  0.97850  Biso   1.000  C
  C195     1.0000 0.55530  0.18951  0.22850  Biso   1.000  C
  C196     1.0000 0.94470  0.31049  0.22850  Biso   1.000  C
  C197     1.0000 0.30530  0.56049  0.47850  Biso   1.000  C
  C198     1.0000 0.69470  0.43951  0.47850  Biso   1.000  C
  C199     1.0000 0.55530  0.68951  0.72850  Biso   1.000  C
  C200     1.0000 0.94470  0.81049  0.72850  Biso   1.000  C
  C201     1.0000 0.80530  0.06049  0.47850  Biso   1.000  C
  C202     1.0000 0.19470  0.93951  0.47850  Biso   1.000  C
  C203     1.0000 0.05530  0.18951  0.72850  Biso   1.000  C
  C204     1.0000 0.44470  0.31049  0.72850  Biso   1.000  C
  C205     1.0000 0.80530  0.56049  0.97850  Biso   1.000  C
  C206     1.0000 0.19470  0.43951  0.97850  Biso   1.000  C
  C207     1.0000 0.05530  0.68951  0.22850  Biso   1.000  C
  C208     1.0000 0.44470  0.81049  0.22850  Biso   1.000  C
  C209     1.0000 0.32190  0.01624  0.95580  Biso   1.000  C
  C210     1.0000 0.67810  0.98376  0.95580  Biso   1.000  C
  C211     1.0000 0.57190  0.23376  0.20580  Biso   1.000  C
  C212     1.0000 0.92810  0.26624  0.20580  Biso   1.000  C
  C213     1.0000 0.32190  0.51624  0.45580  Biso   1.000  C
  C214     1.0000 0.67810  0.48376  0.45580  Biso   1.000  C
  C215     1.0000 0.57190  0.73376  0.70580  Biso   1.000  C
  C216     1.0000 0.92810  0.76624  0.70580  Biso   1.000  C
  C217     1.0000 0.82190  0.01624  0.45580  Biso   1.000  C
  C218     1.0000 0.17810  0.98376  0.45580  Biso   1.000  C
  C219     1.0000 0.07190  0.23376  0.70580  Biso   1.000  C
  C220     1.0000 0.42810  0.26624  0.70580  Biso   1.000  C
  C221     1.0000 0.82190  0.51624  0.95580  Biso   1.000  C
  C222     1.0000 0.17810  0.48376  0.95580  Biso   1.000  C
  C223     1.0000 0.07190  0.73376  0.20580  Biso   1.000  C
  C224     1.0000 0.42810  0.76624  0.20580  Biso   1.000  C
  H257     1.0000 0.34810  0.01450  0.87980  Biso   1.000  H
  H258     1.0000 0.65190  0.98550  0.87980  Biso   1.000  H
  H259     1.0000 0.59810  0.23550  0.12980  Biso   1.000  H
  H260     1.0000 0.90190  0.26450  0.12980  Biso   1.000  H
  H261     1.0000 0.34810  0.51450  0.37980  Biso   1.000  H
  H262     1.0000 0.65190  0.48550  0.37980  Biso   1.000  H
  H263     1.0000 0.59810  0.73550  0.62980  Biso   1.000  H
  H264     1.0000 0.90190  0.76450  0.62980  Biso   1.000  H
  H265     1.0000 0.84810  0.01450  0.37980  Biso   1.000  H
  H266     1.0000 0.15190  0.98550  0.37980  Biso   1.000  H
  H267     1.0000 0.09810  0.23550  0.62980  Biso   1.000  H
  H268     1.0000 0.40190  0.26450  0.62980  Biso   1.000  H
  H269     1.0000 0.84810  0.51450  0.87980  Biso   1.000  H
  H270     1.0000 0.15190  0.48550  0.87980  Biso   1.000  H
  H271     1.0000 0.09810  0.73550  0.12980  Biso   1.000  H
  H272     1.0000 0.40190  0.76450  0.12980  Biso   1.000  H
  O105     1.0000 0.26699  0.99349  0.93200  Biso   1.000  O
  O106     1.0000 0.73301  0.00651  0.93200  Biso   1.000  O
  O107     1.0000 0.51699  0.25651  0.18200  Biso   1.000  O
  O108     1.0000 0.98301  0.24349  0.18200  Biso   1.000  O
  O109     1.0000 0.26699  0.49349  0.43200  Biso   1.000  O
  O110     1.0000 0.73301  0.50651  0.43200  Biso   1.000  O
  O111     1.0000 0.51699  0.75651  0.68200  Biso   1.000  O
  O112     1.0000 0.98301  0.74349  0.68200  Biso   1.000  O
  O113     1.0000 0.76699  0.99349  0.43200  Biso   1.000  O
  O114     1.0000 0.23301  0.00651  0.43200  Biso   1.000  O
  O115     1.0000 0.01699  0.25651  0.68200  Biso   1.000  O
  O116     1.0000 0.48301  0.24349  0.68200  Biso   1.000  O
  O117     1.0000 0.76699  0.49349  0.93200  Biso   1.000  O
  O118     1.0000 0.23301  0.50651  0.93200  Biso   1.000  O
  O119     1.0000 0.01699  0.75651  0.18200  Biso   1.000  O
  O120     1.0000 0.48301  0.74349  0.18200  Biso   1.000  O
  C225     1.0000 0.35430  0.99736  0.06750  Biso   1.000  C
  C226     1.0000 0.64570  0.00264  0.06750  Biso   1.000  C
  C227     1.0000 0.60430  0.25264  0.31750  Biso   1.000  C
  C228     1.0000 0.89570  0.24736  0.31750  Biso   1.000  C
  C229     1.0000 0.35430  0.49736  0.56750  Biso   1.000  C
  C230     1.0000 0.64570  0.50264  0.56750  Biso   1.000  C
  C231     1.0000 0.60430  0.75264  0.81750  Biso   1.000  C
  C232     1.0000 0.89570  0.74736  0.81750  Biso   1.000  C
  C233     1.0000 0.85430  0.99736  0.56750  Biso   1.000  C
  C234     1.0000 0.14570  0.00264  0.56750  Biso   1.000  C
  C235     1.0000 0.10430  0.25264  0.81750  Biso   1.000  C
  C236     1.0000 0.39570  0.24736  0.81750  Biso   1.000  C
  C237     1.0000 0.85430  0.49736  0.06750  Biso   1.000  C
  C238     1.0000 0.14570  0.50264  0.06750  Biso   1.000  C
  C239     1.0000 0.10430  0.75264  0.31750  Biso   1.000  C
  C240     1.0000 0.39570  0.74736  0.31750  Biso   1.000  C
  H273     1.0000 0.39090  0.01270  0.08450  Biso   1.000  H
  H274     1.0000 0.60910  0.98730  0.08450  Biso   1.000  H
  H275     1.0000 0.64090  0.23730  0.33450  Biso   1.000  H
  H276     1.0000 0.85910  0.26270  0.33450  Biso   1.000  H
  H277     1.0000 0.39090  0.51270  0.58450  Biso   1.000  H
  H278     1.0000 0.60910  0.48730  0.58450  Biso   1.000  H
  H279     1.0000 0.64090  0.73730  0.83450  Biso   1.000  H
  H280     1.0000 0.85910  0.76270  0.83450  Biso   1.000  H
  H281     1.0000 0.89090  0.01270  0.58450  Biso   1.000  H
  H282     1.0000 0.10910  0.98730  0.58450  Biso   1.000  H
  H283     1.0000 0.14090  0.23730  0.83450  Biso   1.000  H
  H284     1.0000 0.35910  0.26270  0.83450  Biso   1.000  H
  H285     1.0000 0.89090  0.51270  0.08450  Biso   1.000  H
  H286     1.0000 0.10910  0.48730  0.08450  Biso   1.000  H
  H287     1.0000 0.14090  0.73730  0.33450  Biso   1.000  H
  H288     1.0000 0.35910  0.76270  0.33450  Biso   1.000  H
  H289     1.0000 0.36680  0.97060  0.04250  Biso   1.000  H
  H290     1.0000 0.63320  0.02940  0.04250  Biso   1.000  H
  H291     1.0000 0.61680  0.27940  0.29250  Biso   1.000  H
  H292     1.0000 0.88320  0.22060  0.29250  Biso   1.000  H
  H293     1.0000 0.36680  0.47060  0.54250  Biso   1.000  H
  H294     1.0000 0.63320  0.52940  0.54250  Biso   1.000  H
  H295     1.0000 0.61680  0.77940  0.79250  Biso   1.000  H
  H296     1.0000 0.88320  0.72060  0.79250  Biso   1.000  H
  H297     1.0000 0.86680  0.97060  0.54250  Biso   1.000  H
  H298     1.0000 0.13320  0.02940  0.54250  Biso   1.000  H
  H299     1.0000 0.11680  0.27940  0.79250  Biso   1.000  H
  H300     1.0000 0.38320  0.22060  0.79250  Biso   1.000  H
  H301     1.0000 0.86680  0.47060  0.04250  Biso   1.000  H
  H302     1.0000 0.13320  0.52940  0.04250  Biso   1.000  H
  H303     1.0000 0.11680  0.77940  0.29250  Biso   1.000  H
  H304     1.0000 0.38320  0.72060  0.29250  Biso   1.000  H
  C241     1.0000 0.31810  0.99420  0.19270  Biso   1.000  C
  C242     1.0000 0.68190  0.00580  0.19270  Biso   1.000  C
  C243     1.0000 0.56810  0.25580  0.44270  Biso   1.000  C
  C244     1.0000 0.93190  0.24420  0.44270  Biso   1.000  C
  C245     1.0000 0.31810  0.49420  0.69270  Biso   1.000  C
  C246     1.0000 0.68190  0.50580  0.69270  Biso   1.000  C
  C247     1.0000 0.56810  0.75580  0.94270  Biso   1.000  C
  C248     1.0000 0.93190  0.74420  0.94270  Biso   1.000  C
  C249     1.0000 0.81810  0.99420  0.69270  Biso   1.000  C
  C250     1.0000 0.18190  0.00580  0.69270  Biso   1.000  C
  C251     1.0000 0.06810  0.25580  0.94270  Biso   1.000  C
  C252     1.0000 0.43190  0.24420  0.94270  Biso   1.000  C
  C253     1.0000 0.81810  0.49420  0.19270  Biso   1.000  C
  C254     1.0000 0.18190  0.50580  0.19270  Biso   1.000  C
  C255     1.0000 0.06810  0.75580  0.44270  Biso   1.000  C
  C256     1.0000 0.43190  0.74420  0.44270  Biso   1.000  C
  H305     1.0000 0.26400  0.98940  0.85350  Biso   1.000  H
  H306     1.0000 0.73600  0.01060  0.85350  Biso   1.000  H
  H307     1.0000 0.51400  0.26060  0.10350  Biso   1.000  H
  H308     1.0000 0.98600  0.23940  0.10350  Biso   1.000  H
  H309     1.0000 0.26400  0.48940  0.35350  Biso   1.000  H
  H310     1.0000 0.73600  0.51060  0.35350  Biso   1.000  H
  H311     1.0000 0.51400  0.76060  0.60350  Biso   1.000  H
  H312     1.0000 0.98600  0.73940  0.60350  Biso   1.000  H
  H313     1.0000 0.76400  0.98940  0.35350  Biso   1.000  H
  H314     1.0000 0.23600  0.01060  0.35350  Biso   1.000  H
  H315     1.0000 0.01400  0.26060  0.60350  Biso   1.000  H
  H316     1.0000 0.48600  0.23940  0.60350  Biso   1.000  H
  H317     1.0000 0.76400  0.48940  0.85350  Biso   1.000  H
  H318     1.0000 0.23600  0.51060  0.85350  Biso   1.000  H
  H319     1.0000 0.01400  0.76060  0.10350  Biso   1.000  H
  H320     1.0000 0.48600  0.73940  0.10350  Biso   1.000  H
