data_image0
_cell_length_a       22.6009
_cell_length_b       22.6009
_cell_length_c       22.3136
_cell_angle_alpha    90
_cell_angle_beta     90
_cell_angle_gamma    120

_symmetry_space_group_name_H-M    "P 1"
_symmetry_int_tables_number       1

loop_
  _symmetry_equiv_pos_as_xyz
  'x, y, z'

loop_
  _atom_site_label
  _atom_site_occupancy
  _atom_site_fract_x
  _atom_site_fract_y
  _atom_site_fract_z
  _atom_site_thermal_displace_type
  _atom_site_B_iso_or_equiv
  _atom_site_type_symbol
  Cu1      1.0000 0.50510  0.00000  0.25000  Biso   1.000  Cu
  Cu2      1.0000 0.00000  0.50510  0.25000  Biso   1.000  Cu
  Cu3      1.0000 0.49490  0.49490  0.25000  Biso   1.000  Cu
  Cu4      1.0000 0.49490  0.00000  0.75000  Biso   1.000  Cu
  Cu5      1.0000 0.00000  0.49490  0.75000  Biso   1.000  Cu
  Cu6      1.0000 0.50510  0.50510  0.75000  Biso   1.000  Cu
  O1       1.0000 0.71870  0.24400  0.43010  Biso   1.000  O
  O2       1.0000 0.75600  0.47470  0.43010  Biso   1.000  O
  O3       1.0000 0.52530  0.28130  0.43010  Biso   1.000  O
  O4       1.0000 0.24400  0.71870  0.06990  Biso   1.000  O
  O5       1.0000 0.47470  0.75600  0.06990  Biso   1.000  O
  O6       1.0000 0.28130  0.52530  0.06990  Biso   1.000  O
  O7       1.0000 0.28130  0.75600  0.56990  Biso   1.000  O
  O8       1.0000 0.24400  0.52530  0.56990  Biso   1.000  O
  O9       1.0000 0.47470  0.71870  0.56990  Biso   1.000  O
  O10      1.0000 0.75600  0.28130  0.93010  Biso   1.000  O
  O11      1.0000 0.52530  0.24400  0.93010  Biso   1.000  O
  O12      1.0000 0.71870  0.47470  0.93010  Biso   1.000  O
  O13      1.0000 0.70840  0.14220  0.40790  Biso   1.000  O
  O14      1.0000 0.85780  0.56620  0.40790  Biso   1.000  O
  O15      1.0000 0.43380  0.29160  0.40790  Biso   1.000  O
  O16      1.0000 0.14220  0.70840  0.09210  Biso   1.000  O
  O17      1.0000 0.56620  0.85780  0.09210  Biso   1.000  O
  O18      1.0000 0.29160  0.43380  0.09210  Biso   1.000  O
  O19      1.0000 0.29160  0.85780  0.59210  Biso   1.000  O
  O20      1.0000 0.14220  0.43380  0.59210  Biso   1.000  O
  O21      1.0000 0.56620  0.70840  0.59210  Biso   1.000  O
  O22      1.0000 0.85780  0.29160  0.90790  Biso   1.000  O
  O23      1.0000 0.43380  0.14220  0.90790  Biso   1.000  O
  O24      1.0000 0.70840  0.56620  0.90790  Biso   1.000  O
  O25      1.0000 0.67900  0.05450  0.57510  Biso   1.000  O
  O26      1.0000 0.94550  0.62450  0.57510  Biso   1.000  O
  O27      1.0000 0.37550  0.32100  0.57510  Biso   1.000  O
  O28      1.0000 0.05450  0.67900  0.92490  Biso   1.000  O
  O29      1.0000 0.62450  0.94550  0.92490  Biso   1.000  O
  O30      1.0000 0.32100  0.37550  0.92490  Biso   1.000  O
  O31      1.0000 0.32100  0.94550  0.42490  Biso   1.000  O
  O32      1.0000 0.05450  0.37550  0.42490  Biso   1.000  O
  O33      1.0000 0.62450  0.67900  0.42490  Biso   1.000  O
  O34      1.0000 0.94550  0.32100  0.07510  Biso   1.000  O
  O35      1.0000 0.37550  0.05450  0.07510  Biso   1.000  O
  O36      1.0000 0.67900  0.62450  0.07510  Biso   1.000  O
  O37      1.0000 0.70200  0.15280  0.53010  Biso   1.000  O
  O38      1.0000 0.84720  0.54920  0.53010  Biso   1.000  O
  O39      1.0000 0.45080  0.29800  0.53010  Biso   1.000  O
  O40      1.0000 0.15280  0.70200  0.96990  Biso   1.000  O
  O41      1.0000 0.54920  0.84720  0.96990  Biso   1.000  O
  O42      1.0000 0.29800  0.45080  0.96990  Biso   1.000  O
  O43      1.0000 0.29800  0.84720  0.46990  Biso   1.000  O
  O44      1.0000 0.15280  0.45080  0.46990  Biso   1.000  O
  O45      1.0000 0.54920  0.70200  0.46990  Biso   1.000  O
  O46      1.0000 0.84720  0.29800  0.03010  Biso   1.000  O
  O47      1.0000 0.45080  0.15280  0.03010  Biso   1.000  O
  O48      1.0000 0.70200  0.54920  0.03010  Biso   1.000  O
  O49      1.0000 0.61110  0.00000  0.25000  Biso   1.000  O
  O50      1.0000 0.00000  0.61110  0.25000  Biso   1.000  O
  O51      1.0000 0.38890  0.38890  0.25000  Biso   1.000  O
  O52      1.0000 0.38890  0.00000  0.75000  Biso   1.000  O
  O53      1.0000 0.00000  0.38890  0.75000  Biso   1.000  O
  O54      1.0000 0.61110  0.61110  0.75000  Biso   1.000  O
  O55      1.0000 0.39040  0.00000  0.25000  Biso   1.000  O
  O56      1.0000 0.00000  0.39040  0.25000  Biso   1.000  O
  O57      1.0000 0.60960  0.60960  0.25000  Biso   1.000  O
  O58      1.0000 0.60960  0.00000  0.75000  Biso   1.000  O
  O59      1.0000 0.00000  0.60960  0.75000  Biso   1.000  O
  O60      1.0000 0.39040  0.39040  0.75000  Biso   1.000  O
  N1       1.0000 0.54470  0.08750  0.29750  Biso   1.000  N
  N2       1.0000 0.91250  0.45720  0.29750  Biso   1.000  N
  N3       1.0000 0.54280  0.45530  0.29750  Biso   1.000  N
  N4       1.0000 0.08750  0.54470  0.20250  Biso   1.000  N
  N5       1.0000 0.45720  0.91250  0.20250  Biso   1.000  N
  N6       1.0000 0.45530  0.54280  0.20250  Biso   1.000  N
  N7       1.0000 0.45530  0.91250  0.70250  Biso   1.000  N
  N8       1.0000 0.08750  0.54280  0.70250  Biso   1.000  N
  N9       1.0000 0.45720  0.54470  0.70250  Biso   1.000  N
  N10      1.0000 0.91250  0.45530  0.79750  Biso   1.000  N
  N11      1.0000 0.54280  0.08750  0.79750  Biso   1.000  N
  N12      1.0000 0.54470  0.45720  0.79750  Biso   1.000  N
  N13      1.0000 0.52690  0.05750  0.67520  Biso   1.000  N
  N14      1.0000 0.94250  0.46940  0.67520  Biso   1.000  N
  N15      1.0000 0.53060  0.47310  0.67520  Biso   1.000  N
  N16      1.0000 0.05750  0.52690  0.82480  Biso   1.000  N
  N17      1.0000 0.46940  0.94250  0.82480  Biso   1.000  N
  N18      1.0000 0.47310  0.53060  0.82480  Biso   1.000  N
  N19      1.0000 0.47310  0.94250  0.32480  Biso   1.000  N
  N20      1.0000 0.05750  0.53060  0.32480  Biso   1.000  N
  N21      1.0000 0.46940  0.52690  0.32480  Biso   1.000  N
  N22      1.0000 0.94250  0.47310  0.17520  Biso   1.000  N
  N23      1.0000 0.53060  0.05750  0.17520  Biso   1.000  N
  N24      1.0000 0.52690  0.46940  0.17520  Biso   1.000  N
  C1       1.0000 0.52020  0.13100  0.29170  Biso   1.000  C
  C2       1.0000 0.86900  0.38920  0.29170  Biso   1.000  C
  C3       1.0000 0.61080  0.47980  0.29170  Biso   1.000  C
  C4       1.0000 0.13100  0.52020  0.20830  Biso   1.000  C
  C5       1.0000 0.38920  0.86900  0.20830  Biso   1.000  C
  C6       1.0000 0.47980  0.61080  0.20830  Biso   1.000  C
  C7       1.0000 0.47980  0.86900  0.70830  Biso   1.000  C
  C8       1.0000 0.13100  0.61080  0.70830  Biso   1.000  C
  C9       1.0000 0.38920  0.52020  0.70830  Biso   1.000  C
  C10      1.0000 0.86900  0.47980  0.79170  Biso   1.000  C
  C11      1.0000 0.61080  0.13100  0.79170  Biso   1.000  C
  C12      1.0000 0.52020  0.38920  0.79170  Biso   1.000  C
  H1       1.0000 0.48310  0.11910  0.26510  Biso   1.000  H
  H2       1.0000 0.88090  0.36400  0.26510  Biso   1.000  H
  H3       1.0000 0.63600  0.51690  0.26510  Biso   1.000  H
  H4       1.0000 0.11910  0.48310  0.23490  Biso   1.000  H
  H5       1.0000 0.36400  0.88090  0.23490  Biso   1.000  H
  H6       1.0000 0.51690  0.63600  0.23490  Biso   1.000  H
  H7       1.0000 0.51690  0.88090  0.73490  Biso   1.000  H
  H8       1.0000 0.11910  0.63600  0.73490  Biso   1.000  H
  H9       1.0000 0.36400  0.48310  0.73490  Biso   1.000  H
  H10      1.0000 0.88090  0.51690  0.76510  Biso   1.000  H
  H11      1.0000 0.63600  0.11910  0.76510  Biso   1.000  H
  H12      1.0000 0.48310  0.36400  0.76510  Biso   1.000  H
  C13      1.0000 0.54680  0.19180  0.32260  Biso   1.000  C
  C14      1.0000 0.80820  0.35500  0.32260  Biso   1.000  C
  C15      1.0000 0.64500  0.45320  0.32260  Biso   1.000  C
  C16      1.0000 0.19180  0.54680  0.17740  Biso   1.000  C
  C17      1.0000 0.35500  0.80820  0.17740  Biso   1.000  C
  C18      1.0000 0.45320  0.64500  0.17740  Biso   1.000  C
  C19      1.0000 0.45320  0.80820  0.67740  Biso   1.000  C
  C20      1.0000 0.19180  0.64500  0.67740  Biso   1.000  C
  C21      1.0000 0.35500  0.54680  0.67740  Biso   1.000  C
  C22      1.0000 0.80820  0.45320  0.82260  Biso   1.000  C
  C23      1.0000 0.64500  0.19180  0.82260  Biso   1.000  C
  C24      1.0000 0.54680  0.35500  0.82260  Biso   1.000  C
  H13      1.0000 0.52780  0.22070  0.31780  Biso   1.000  H
  H14      1.0000 0.77930  0.30710  0.31780  Biso   1.000  H
  H15      1.0000 0.69290  0.47220  0.31780  Biso   1.000  H
  H16      1.0000 0.22070  0.52780  0.18220  Biso   1.000  H
  H17      1.0000 0.30710  0.77930  0.18220  Biso   1.000  H
  H18      1.0000 0.47220  0.69290  0.18220  Biso   1.000  H
  H19      1.0000 0.47220  0.77930  0.68220  Biso   1.000  H
  H20      1.0000 0.22070  0.69290  0.68220  Biso   1.000  H
  H21      1.0000 0.30710  0.52780  0.68220  Biso   1.000  H
  H22      1.0000 0.77930  0.47220  0.81780  Biso   1.000  H
  H23      1.0000 0.69290  0.22070  0.81780  Biso   1.000  H
  H24      1.0000 0.52780  0.30710  0.81780  Biso   1.000  H
  C25      1.0000 0.60050  0.20980  0.36020  Biso   1.000  C
  C26      1.0000 0.79020  0.39070  0.36020  Biso   1.000  C
  C27      1.0000 0.60930  0.39950  0.36020  Biso   1.000  C
  C28      1.0000 0.20980  0.60050  0.13980  Biso   1.000  C
  C29      1.0000 0.39070  0.79020  0.13980  Biso   1.000  C
  C30      1.0000 0.39950  0.60930  0.13980  Biso   1.000  C
  C31      1.0000 0.39950  0.79020  0.63980  Biso   1.000  C
  C32      1.0000 0.20980  0.60930  0.63980  Biso   1.000  C
  C33      1.0000 0.39070  0.60050  0.63980  Biso   1.000  C
  C34      1.0000 0.79020  0.39950  0.86020  Biso   1.000  C
  C35      1.0000 0.60930  0.20980  0.86020  Biso   1.000  C
  C36      1.0000 0.60050  0.39070  0.86020  Biso   1.000  C
  H25      1.0000 0.61880  0.25120  0.38240  Biso   1.000  H
  H26      1.0000 0.74880  0.36760  0.38240  Biso   1.000  H
  H27      1.0000 0.63240  0.38120  0.38240  Biso   1.000  H
  H28      1.0000 0.25120  0.61880  0.11760  Biso   1.000  H
  H29      1.0000 0.36760  0.74880  0.11760  Biso   1.000  H
  H30      1.0000 0.38120  0.63240  0.11760  Biso   1.000  H
  H31      1.0000 0.38120  0.74880  0.61760  Biso   1.000  H
  H32      1.0000 0.25120  0.63240  0.61760  Biso   1.000  H
  H33      1.0000 0.36760  0.61880  0.61760  Biso   1.000  H
  H34      1.0000 0.74880  0.38120  0.88240  Biso   1.000  H
  H35      1.0000 0.63240  0.25120  0.88240  Biso   1.000  H
  H36      1.0000 0.61880  0.36760  0.88240  Biso   1.000  H
  C37      1.0000 0.62860  0.16780  0.36620  Biso   1.000  C
  C38      1.0000 0.83220  0.46080  0.36620  Biso   1.000  C
  C39      1.0000 0.53920  0.37140  0.36620  Biso   1.000  C
  C40      1.0000 0.16780  0.62860  0.13380  Biso   1.000  C
  C41      1.0000 0.46080  0.83220  0.13380  Biso   1.000  C
  C42      1.0000 0.37140  0.53920  0.13380  Biso   1.000  C
  C43      1.0000 0.37140  0.83220  0.63380  Biso   1.000  C
  C44      1.0000 0.16780  0.53920  0.63380  Biso   1.000  C
  C45      1.0000 0.46080  0.62860  0.63380  Biso   1.000  C
  C46      1.0000 0.83220  0.37140  0.86620  Biso   1.000  C
  C47      1.0000 0.53920  0.16780  0.86620  Biso   1.000  C
  C48      1.0000 0.62860  0.46080  0.86620  Biso   1.000  C
  C49      1.0000 0.59860  0.10640  0.33520  Biso   1.000  C
  C50      1.0000 0.89360  0.49220  0.33520  Biso   1.000  C
  C51      1.0000 0.50780  0.40140  0.33520  Biso   1.000  C
  C52      1.0000 0.10640  0.59860  0.16480  Biso   1.000  C
  C53      1.0000 0.49220  0.89360  0.16480  Biso   1.000  C
  C54      1.0000 0.40140  0.50780  0.16480  Biso   1.000  C
  C55      1.0000 0.40140  0.89360  0.66480  Biso   1.000  C
  C56      1.0000 0.10640  0.50780  0.66480  Biso   1.000  C
  C57      1.0000 0.49220  0.59860  0.66480  Biso   1.000  C
  C58      1.0000 0.89360  0.40140  0.83520  Biso   1.000  C
  C59      1.0000 0.50780  0.10640  0.83520  Biso   1.000  C
  C60      1.0000 0.59860  0.49220  0.83520  Biso   1.000  C
  H37      1.0000 0.61630  0.07640  0.34050  Biso   1.000  H
  H38      1.0000 0.92360  0.53990  0.34050  Biso   1.000  H
  H39      1.0000 0.46010  0.38370  0.34050  Biso   1.000  H
  H40      1.0000 0.07640  0.61630  0.15950  Biso   1.000  H
  H41      1.0000 0.53990  0.92360  0.15950  Biso   1.000  H
  H42      1.0000 0.38370  0.46010  0.15950  Biso   1.000  H
  H43      1.0000 0.38370  0.92360  0.65950  Biso   1.000  H
  H44      1.0000 0.07640  0.46010  0.65950  Biso   1.000  H
  H45      1.0000 0.53990  0.61630  0.65950  Biso   1.000  H
  H46      1.0000 0.92360  0.38370  0.84050  Biso   1.000  H
  H47      1.0000 0.46010  0.07640  0.84050  Biso   1.000  H
  H48      1.0000 0.61630  0.53990  0.84050  Biso   1.000  H
  C61      1.0000 0.68960  0.19070  0.40500  Biso   1.000  C
  C62      1.0000 0.80930  0.49890  0.40500  Biso   1.000  C
  C63      1.0000 0.50110  0.31040  0.40500  Biso   1.000  C
  C64      1.0000 0.19070  0.68960  0.09500  Biso   1.000  C
  C65      1.0000 0.49890  0.80930  0.09500  Biso   1.000  C
  C66      1.0000 0.31040  0.50110  0.09500  Biso   1.000  C
  C67      1.0000 0.31040  0.80930  0.59500  Biso   1.000  C
  C68      1.0000 0.19070  0.50110  0.59500  Biso   1.000  C
  C69      1.0000 0.49890  0.68960  0.59500  Biso   1.000  C
  C70      1.0000 0.80930  0.31040  0.90500  Biso   1.000  C
  C71      1.0000 0.50110  0.19070  0.90500  Biso   1.000  C
  C72      1.0000 0.68960  0.49890  0.90500  Biso   1.000  C
  C73      1.0000 0.76510  0.15610  0.44240  Biso   1.000  C
  C74      1.0000 0.84390  0.60900  0.44240  Biso   1.000  C
  C75      1.0000 0.39100  0.23490  0.44240  Biso   1.000  C
  C76      1.0000 0.15610  0.76510  0.05760  Biso   1.000  C
  C77      1.0000 0.60900  0.84390  0.05760  Biso   1.000  C
  C78      1.0000 0.23490  0.39100  0.05760  Biso   1.000  C
  C79      1.0000 0.23490  0.84390  0.55760  Biso   1.000  C
  C80      1.0000 0.15610  0.39100  0.55760  Biso   1.000  C
  C81      1.0000 0.60900  0.76510  0.55760  Biso   1.000  C
  C82      1.0000 0.84390  0.23490  0.94240  Biso   1.000  C
  C83      1.0000 0.39100  0.15610  0.94240  Biso   1.000  C
  C84      1.0000 0.76510  0.60900  0.94240  Biso   1.000  C
  C85      1.0000 0.82180  0.16360  0.41590  Biso   1.000  C
  C86      1.0000 0.83640  0.65820  0.41590  Biso   1.000  C
  C87      1.0000 0.34180  0.17820  0.41590  Biso   1.000  C
  C88      1.0000 0.16360  0.82180  0.08410  Biso   1.000  C
  C89      1.0000 0.65820  0.83640  0.08410  Biso   1.000  C
  C90      1.0000 0.17820  0.34180  0.08410  Biso   1.000  C
  C91      1.0000 0.17820  0.83640  0.58410  Biso   1.000  C
  C92      1.0000 0.16360  0.34180  0.58410  Biso   1.000  C
  C93      1.0000 0.65820  0.82180  0.58410  Biso   1.000  C
  C94      1.0000 0.83640  0.17820  0.91590  Biso   1.000  C
  C95      1.0000 0.34180  0.16360  0.91590  Biso   1.000  C
  C96      1.0000 0.82180  0.65820  0.91590  Biso   1.000  C
  H49      1.0000 0.82430  0.16290  0.37340  Biso   1.000  H
  H50      1.0000 0.83710  0.66140  0.37340  Biso   1.000  H
  H51      1.0000 0.33860  0.17570  0.37340  Biso   1.000  H
  H52      1.0000 0.16290  0.82430  0.12660  Biso   1.000  H
  H53      1.0000 0.66140  0.83710  0.12660  Biso   1.000  H
  H54      1.0000 0.17570  0.33860  0.12660  Biso   1.000  H
  H55      1.0000 0.17570  0.83710  0.62660  Biso   1.000  H
  H56      1.0000 0.16290  0.33860  0.62660  Biso   1.000  H
  H57      1.0000 0.66140  0.82430  0.62660  Biso   1.000  H
  H58      1.0000 0.83710  0.17570  0.87340  Biso   1.000  H
  H59      1.0000 0.33860  0.16290  0.87340  Biso   1.000  H
  H60      1.0000 0.82430  0.66140  0.87340  Biso   1.000  H
  C97      1.0000 0.87800  0.17240  0.45090  Biso   1.000  C
  C98      1.0000 0.82760  0.70560  0.45090  Biso   1.000  C
  C99      1.0000 0.29440  0.12200  0.45090  Biso   1.000  C
  C100     1.0000 0.17240  0.87800  0.04910  Biso   1.000  C
  C101     1.0000 0.70560  0.82760  0.04910  Biso   1.000  C
  C102     1.0000 0.12200  0.29440  0.04910  Biso   1.000  C
  C103     1.0000 0.12200  0.82760  0.54910  Biso   1.000  C
  C104     1.0000 0.17240  0.29440  0.54910  Biso   1.000  C
  C105     1.0000 0.70560  0.87800  0.54910  Biso   1.000  C
  C106     1.0000 0.82760  0.12200  0.95090  Biso   1.000  C
  C107     1.0000 0.29440  0.17240  0.95090  Biso   1.000  C
  C108     1.0000 0.87800  0.70560  0.95090  Biso   1.000  C
  C109     1.0000 0.93850  0.17930  0.42500  Biso   1.000  C
  C110     1.0000 0.82070  0.75920  0.42500  Biso   1.000  C
  C111     1.0000 0.24080  0.06150  0.42500  Biso   1.000  C
  C112     1.0000 0.17930  0.93850  0.07500  Biso   1.000  C
  C113     1.0000 0.75920  0.82070  0.07500  Biso   1.000  C
  C114     1.0000 0.06150  0.24080  0.07500  Biso   1.000  C
  C115     1.0000 0.06150  0.82070  0.57500  Biso   1.000  C
  C116     1.0000 0.17930  0.24080  0.57500  Biso   1.000  C
  C117     1.0000 0.75920  0.93850  0.57500  Biso   1.000  C
  C118     1.0000 0.82070  0.06150  0.92500  Biso   1.000  C
  C119     1.0000 0.24080  0.17930  0.92500  Biso   1.000  C
  C120     1.0000 0.93850  0.75920  0.92500  Biso   1.000  C
  H61      1.0000 0.94130  0.17710  0.38240  Biso   1.000  H
  H62      1.0000 0.82290  0.76420  0.38240  Biso   1.000  H
  H63      1.0000 0.23580  0.05870  0.38240  Biso   1.000  H
  H64      1.0000 0.17710  0.94130  0.11760  Biso   1.000  H
  H65      1.0000 0.76420  0.82290  0.11760  Biso   1.000  H
  H66      1.0000 0.05870  0.23580  0.11760  Biso   1.000  H
  H67      1.0000 0.05870  0.82290  0.61760  Biso   1.000  H
  H68      1.0000 0.17710  0.23580  0.61760  Biso   1.000  H
  H69      1.0000 0.76420  0.94130  0.61760  Biso   1.000  H
  H70      1.0000 0.82290  0.05870  0.88240  Biso   1.000  H
  H71      1.0000 0.23580  0.17710  0.88240  Biso   1.000  H
  H72      1.0000 0.94130  0.76420  0.88240  Biso   1.000  H
  C121     1.0000 0.99200  0.18900  0.45800  Biso   1.000  C
  C122     1.0000 0.81100  0.80300  0.45800  Biso   1.000  C
  C123     1.0000 0.19700  0.00800  0.45800  Biso   1.000  C
  C124     1.0000 0.18900  0.99200  0.04200  Biso   1.000  C
  C125     1.0000 0.80300  0.81100  0.04200  Biso   1.000  C
  C126     1.0000 0.00800  0.19700  0.04200  Biso   1.000  C
  C127     1.0000 0.00800  0.81100  0.54200  Biso   1.000  C
  C128     1.0000 0.18900  0.19700  0.54200  Biso   1.000  C
  C129     1.0000 0.80300  0.99200  0.54200  Biso   1.000  C
  C130     1.0000 0.81100  0.00800  0.95800  Biso   1.000  C
  C131     1.0000 0.19700  0.18900  0.95800  Biso   1.000  C
  C132     1.0000 0.99200  0.80300  0.95800  Biso   1.000  C
  H73      1.0000 0.03160  0.19260  0.44030  Biso   1.000  H
  H74      1.0000 0.80740  0.83900  0.44030  Biso   1.000  H
  H75      1.0000 0.16100  0.96840  0.44030  Biso   1.000  H
  H76      1.0000 0.19260  0.03160  0.05970  Biso   1.000  H
  H77      1.0000 0.83900  0.80740  0.05970  Biso   1.000  H
  H78      1.0000 0.96840  0.16100  0.05970  Biso   1.000  H
  H79      1.0000 0.96840  0.80740  0.55970  Biso   1.000  H
  H80      1.0000 0.19260  0.16100  0.55970  Biso   1.000  H
  H81      1.0000 0.83900  0.03160  0.55970  Biso   1.000  H
  H82      1.0000 0.80740  0.96840  0.94030  Biso   1.000  H
  H83      1.0000 0.16100  0.19260  0.94030  Biso   1.000  H
  H84      1.0000 0.03160  0.83900  0.94030  Biso   1.000  H
  C133     1.0000 0.98800  0.19300  0.52200  Biso   1.000  C
  C134     1.0000 0.80700  0.79500  0.52200  Biso   1.000  C
  C135     1.0000 0.20500  0.01200  0.52200  Biso   1.000  C
  C136     1.0000 0.19300  0.98800  0.97800  Biso   1.000  C
  C137     1.0000 0.79500  0.80700  0.97800  Biso   1.000  C
  C138     1.0000 0.01200  0.20500  0.97800  Biso   1.000  C
  C139     1.0000 0.01200  0.80700  0.47800  Biso   1.000  C
  C140     1.0000 0.19300  0.20500  0.47800  Biso   1.000  C
  C141     1.0000 0.79500  0.98800  0.47800  Biso   1.000  C
  C142     1.0000 0.80700  0.01200  0.02200  Biso   1.000  C
  C143     1.0000 0.20500  0.19300  0.02200  Biso   1.000  C
  C144     1.0000 0.98800  0.79500  0.02200  Biso   1.000  C
  H85      1.0000 0.02590  0.20180  0.54540  Biso   1.000  H
  H86      1.0000 0.79820  0.82410  0.54540  Biso   1.000  H
  H87      1.0000 0.17590  0.97410  0.54540  Biso   1.000  H
  H88      1.0000 0.20180  0.02590  0.95460  Biso   1.000  H
  H89      1.0000 0.82410  0.79820  0.95460  Biso   1.000  H
  H90      1.0000 0.97410  0.17590  0.95460  Biso   1.000  H
  H91      1.0000 0.97410  0.79820  0.45460  Biso   1.000  H
  H92      1.0000 0.20180  0.17590  0.45460  Biso   1.000  H
  H93      1.0000 0.82410  0.02590  0.45460  Biso   1.000  H
  H94      1.0000 0.79820  0.97410  0.04540  Biso   1.000  H
  H95      1.0000 0.17590  0.20180  0.04540  Biso   1.000  H
  H96      1.0000 0.02590  0.82410  0.04540  Biso   1.000  H
  C145     1.0000 0.93000  0.18600  0.55000  Biso   1.000  C
  C146     1.0000 0.81400  0.74400  0.55000  Biso   1.000  C
  C147     1.0000 0.25600  0.07000  0.55000  Biso   1.000  C
  C148     1.0000 0.18600  0.93000  0.95000  Biso   1.000  C
  C149     1.0000 0.74400  0.81400  0.95000  Biso   1.000  C
  C150     1.0000 0.07000  0.25600  0.95000  Biso   1.000  C
  C151     1.0000 0.07000  0.81400  0.45000  Biso   1.000  C
  C152     1.0000 0.18600  0.25600  0.45000  Biso   1.000  C
  C153     1.0000 0.74400  0.93000  0.45000  Biso   1.000  C
  C154     1.0000 0.81400  0.07000  0.05000  Biso   1.000  C
  C155     1.0000 0.25600  0.18600  0.05000  Biso   1.000  C
  C156     1.0000 0.93000  0.74400  0.05000  Biso   1.000  C
  H97      1.0000 0.92790  0.18720  0.59250  Biso   1.000  H
  H98      1.0000 0.81280  0.74070  0.59250  Biso   1.000  H
  H99      1.0000 0.25930  0.07210  0.59250  Biso   1.000  H
  H100     1.0000 0.18720  0.92790  0.90750  Biso   1.000  H
  H101     1.0000 0.74070  0.81280  0.90750  Biso   1.000  H
  H102     1.0000 0.07210  0.25930  0.90750  Biso   1.000  H
  H103     1.0000 0.07210  0.81280  0.40750  Biso   1.000  H
  H104     1.0000 0.18720  0.25930  0.40750  Biso   1.000  H
  H105     1.0000 0.74070  0.92790  0.40750  Biso   1.000  H
  H106     1.0000 0.81280  0.07210  0.09250  Biso   1.000  H
  H107     1.0000 0.25930  0.18720  0.09250  Biso   1.000  H
  H108     1.0000 0.92790  0.74070  0.09250  Biso   1.000  H
  C157     1.0000 0.87490  0.17660  0.51360  Biso   1.000  C
  C158     1.0000 0.82340  0.69830  0.51360  Biso   1.000  C
  C159     1.0000 0.30170  0.12510  0.51360  Biso   1.000  C
  C160     1.0000 0.17660  0.87490  0.98640  Biso   1.000  C
  C161     1.0000 0.69830  0.82340  0.98640  Biso   1.000  C
  C162     1.0000 0.12510  0.30170  0.98640  Biso   1.000  C
  C163     1.0000 0.12510  0.82340  0.48640  Biso   1.000  C
  C164     1.0000 0.17660  0.30170  0.48640  Biso   1.000  C
  C165     1.0000 0.69830  0.87490  0.48640  Biso   1.000  C
  C166     1.0000 0.82340  0.12510  0.01360  Biso   1.000  C
  C167     1.0000 0.30170  0.17660  0.01360  Biso   1.000  C
  C168     1.0000 0.87490  0.69830  0.01360  Biso   1.000  C
  C169     1.0000 0.81500  0.16950  0.54030  Biso   1.000  C
  C170     1.0000 0.83050  0.64550  0.54030  Biso   1.000  C
  C171     1.0000 0.35450  0.18500  0.54030  Biso   1.000  C
  C172     1.0000 0.16950  0.81500  0.95970  Biso   1.000  C
  C173     1.0000 0.64550  0.83050  0.95970  Biso   1.000  C
  C174     1.0000 0.18500  0.35450  0.95970  Biso   1.000  C
  C175     1.0000 0.18500  0.83050  0.45970  Biso   1.000  C
  C176     1.0000 0.16950  0.35450  0.45970  Biso   1.000  C
  C177     1.0000 0.64550  0.81500  0.45970  Biso   1.000  C
  C178     1.0000 0.83050  0.18500  0.04030  Biso   1.000  C
  C179     1.0000 0.35450  0.16950  0.04030  Biso   1.000  C
  C180     1.0000 0.81500  0.64550  0.04030  Biso   1.000  C
  H109     1.0000 0.81230  0.17220  0.58260  Biso   1.000  H
  H110     1.0000 0.82780  0.64010  0.58260  Biso   1.000  H
  H111     1.0000 0.35990  0.18770  0.58260  Biso   1.000  H
  H112     1.0000 0.17220  0.81230  0.91740  Biso   1.000  H
  H113     1.0000 0.64010  0.82780  0.91740  Biso   1.000  H
  H114     1.0000 0.18770  0.35990  0.91740  Biso   1.000  H
  H115     1.0000 0.18770  0.82780  0.41740  Biso   1.000  H
  H116     1.0000 0.17220  0.35990  0.41740  Biso   1.000  H
  H117     1.0000 0.64010  0.81230  0.41740  Biso   1.000  H
  H118     1.0000 0.82780  0.18770  0.08260  Biso   1.000  H
  H119     1.0000 0.35990  0.17220  0.08260  Biso   1.000  H
  H120     1.0000 0.81230  0.64010  0.08260  Biso   1.000  H
  C181     1.0000 0.76110  0.15860  0.50540  Biso   1.000  C
  C182     1.0000 0.84140  0.60250  0.50540  Biso   1.000  C
  C183     1.0000 0.39750  0.23890  0.50540  Biso   1.000  C
  C184     1.0000 0.15860  0.76110  0.99460  Biso   1.000  C
  C185     1.0000 0.60250  0.84140  0.99460  Biso   1.000  C
  C186     1.0000 0.23890  0.39750  0.99460  Biso   1.000  C
  C187     1.0000 0.23890  0.84140  0.49460  Biso   1.000  C
  C188     1.0000 0.15860  0.39750  0.49460  Biso   1.000  C
  C189     1.0000 0.60250  0.76110  0.49460  Biso   1.000  C
  C190     1.0000 0.84140  0.23890  0.00540  Biso   1.000  C
  C191     1.0000 0.39750  0.15860  0.00540  Biso   1.000  C
  C192     1.0000 0.76110  0.60250  0.00540  Biso   1.000  C
  C193     1.0000 0.66620  0.09940  0.56740  Biso   1.000  C
  C194     1.0000 0.90060  0.56680  0.56740  Biso   1.000  C
  C195     1.0000 0.43320  0.33380  0.56740  Biso   1.000  C
  C196     1.0000 0.09940  0.66620  0.93260  Biso   1.000  C
  C197     1.0000 0.56680  0.90060  0.93260  Biso   1.000  C
  C198     1.0000 0.33380  0.43320  0.93260  Biso   1.000  C
  C199     1.0000 0.33380  0.90060  0.43260  Biso   1.000  C
  C200     1.0000 0.09940  0.43320  0.43260  Biso   1.000  C
  C201     1.0000 0.56680  0.66620  0.43260  Biso   1.000  C
  C202     1.0000 0.90060  0.33380  0.06740  Biso   1.000  C
  C203     1.0000 0.43320  0.09940  0.06740  Biso   1.000  C
  C204     1.0000 0.66620  0.56680  0.06740  Biso   1.000  C
  C205     1.0000 0.57510  0.05670  0.64110  Biso   1.000  C
  C206     1.0000 0.94330  0.51840  0.64110  Biso   1.000  C
  C207     1.0000 0.48160  0.42490  0.64110  Biso   1.000  C
  C208     1.0000 0.05670  0.57510  0.85890  Biso   1.000  C
  C209     1.0000 0.51840  0.94330  0.85890  Biso   1.000  C
  C210     1.0000 0.42490  0.48160  0.85890  Biso   1.000  C
  C211     1.0000 0.42490  0.94330  0.35890  Biso   1.000  C
  C212     1.0000 0.05670  0.48160  0.35890  Biso   1.000  C
  C213     1.0000 0.51840  0.57510  0.35890  Biso   1.000  C
  C214     1.0000 0.94330  0.42490  0.14110  Biso   1.000  C
  C215     1.0000 0.48160  0.05670  0.14110  Biso   1.000  C
  C216     1.0000 0.57510  0.51840  0.14110  Biso   1.000  C
  H121     1.0000 0.58560  0.02140  0.64780  Biso   1.000  H
  H122     1.0000 0.97860  0.56420  0.64780  Biso   1.000  H
  H123     1.0000 0.43580  0.41440  0.64780  Biso   1.000  H
  H124     1.0000 0.02140  0.58560  0.85220  Biso   1.000  H
  H125     1.0000 0.56420  0.97860  0.85220  Biso   1.000  H
  H126     1.0000 0.41440  0.43580  0.85220  Biso   1.000  H
  H127     1.0000 0.41440  0.97860  0.35220  Biso   1.000  H
  H128     1.0000 0.02140  0.43580  0.35220  Biso   1.000  H
  H129     1.0000 0.56420  0.58560  0.35220  Biso   1.000  H
  H130     1.0000 0.97860  0.41440  0.14780  Biso   1.000  H
  H131     1.0000 0.43580  0.02140  0.14780  Biso   1.000  H
  H132     1.0000 0.58560  0.56420  0.14780  Biso   1.000  H
  C217     1.0000 0.60960  0.10280  0.59790  Biso   1.000  C
  C218     1.0000 0.89720  0.50680  0.59790  Biso   1.000  C
  C219     1.0000 0.49320  0.39040  0.59790  Biso   1.000  C
  C220     1.0000 0.10280  0.60960  0.90210  Biso   1.000  C
  C221     1.0000 0.50680  0.89720  0.90210  Biso   1.000  C
  C222     1.0000 0.39040  0.49320  0.90210  Biso   1.000  C
  C223     1.0000 0.39040  0.89720  0.40210  Biso   1.000  C
  C224     1.0000 0.10280  0.49320  0.40210  Biso   1.000  C
  C225     1.0000 0.50680  0.60960  0.40210  Biso   1.000  C
  C226     1.0000 0.89720  0.39040  0.09790  Biso   1.000  C
  C227     1.0000 0.49320  0.10280  0.09790  Biso   1.000  C
  C228     1.0000 0.60960  0.50680  0.09790  Biso   1.000  C
  C229     1.0000 0.59450  0.15400  0.58650  Biso   1.000  C
  C230     1.0000 0.84600  0.44050  0.58650  Biso   1.000  C
  C231     1.0000 0.55950  0.40550  0.58650  Biso   1.000  C
  C232     1.0000 0.15400  0.59450  0.91350  Biso   1.000  C
  C233     1.0000 0.44050  0.84600  0.91350  Biso   1.000  C
  C234     1.0000 0.40550  0.55950  0.91350  Biso   1.000  C
  C235     1.0000 0.40550  0.84600  0.41350  Biso   1.000  C
  C236     1.0000 0.15400  0.55950  0.41350  Biso   1.000  C
  C237     1.0000 0.44050  0.59450  0.41350  Biso   1.000  C
  C238     1.0000 0.84600  0.40550  0.08650  Biso   1.000  C
  C239     1.0000 0.55950  0.15400  0.08650  Biso   1.000  C
  C240     1.0000 0.59450  0.44050  0.08650  Biso   1.000  C
  H133     1.0000 0.61900  0.18800  0.55710  Biso   1.000  H
  H134     1.0000 0.81200  0.43100  0.55710  Biso   1.000  H
  H135     1.0000 0.56900  0.38100  0.55710  Biso   1.000  H
  H136     1.0000 0.18800  0.61900  0.94290  Biso   1.000  H
  H137     1.0000 0.43100  0.81200  0.94290  Biso   1.000  H
  H138     1.0000 0.38100  0.56900  0.94290  Biso   1.000  H
  H139     1.0000 0.38100  0.81200  0.44290  Biso   1.000  H
  H140     1.0000 0.18800  0.56900  0.44290  Biso   1.000  H
  H141     1.0000 0.43100  0.61900  0.44290  Biso   1.000  H
  H142     1.0000 0.81200  0.38100  0.05710  Biso   1.000  H
  H143     1.0000 0.56900  0.18800  0.05710  Biso   1.000  H
  H144     1.0000 0.61900  0.43100  0.05710  Biso   1.000  H
  C241     1.0000 0.54170  0.15400  0.62010  Biso   1.000  C
  C242     1.0000 0.84600  0.38770  0.62010  Biso   1.000  C
  C243     1.0000 0.61230  0.45830  0.62010  Biso   1.000  C
  C244     1.0000 0.15400  0.54170  0.87990  Biso   1.000  C
  C245     1.0000 0.38770  0.84600  0.87990  Biso   1.000  C
  C246     1.0000 0.45830  0.61230  0.87990  Biso   1.000  C
  C247     1.0000 0.45830  0.84600  0.37990  Biso   1.000  C
  C248     1.0000 0.15400  0.61230  0.37990  Biso   1.000  C
  C249     1.0000 0.38770  0.54170  0.37990  Biso   1.000  C
  C250     1.0000 0.84600  0.45830  0.12010  Biso   1.000  C
  C251     1.0000 0.61230  0.15400  0.12010  Biso   1.000  C
  C252     1.0000 0.54170  0.38770  0.12010  Biso   1.000  C
  H145     1.0000 0.52780  0.18660  0.61240  Biso   1.000  H
  H146     1.0000 0.81340  0.34120  0.61240  Biso   1.000  H
  H147     1.0000 0.65880  0.47220  0.61240  Biso   1.000  H
  H148     1.0000 0.18660  0.52780  0.88760  Biso   1.000  H
  H149     1.0000 0.34120  0.81340  0.88760  Biso   1.000  H
  H150     1.0000 0.47220  0.65880  0.88760  Biso   1.000  H
  H151     1.0000 0.47220  0.81340  0.38760  Biso   1.000  H
  H152     1.0000 0.18660  0.65880  0.38760  Biso   1.000  H
  H153     1.0000 0.34120  0.52780  0.38760  Biso   1.000  H
  H154     1.0000 0.81340  0.47220  0.11240  Biso   1.000  H
  H155     1.0000 0.65880  0.18660  0.11240  Biso   1.000  H
  H156     1.0000 0.52780  0.34120  0.11240  Biso   1.000  H
  C253     1.0000 0.51110  0.10610  0.66400  Biso   1.000  C
  C254     1.0000 0.89390  0.40500  0.66400  Biso   1.000  C
  C255     1.0000 0.59500  0.48890  0.66400  Biso   1.000  C
  C256     1.0000 0.10610  0.51110  0.83600  Biso   1.000  C
  C257     1.0000 0.40500  0.89390  0.83600  Biso   1.000  C
  C258     1.0000 0.48890  0.59500  0.83600  Biso   1.000  C
  C259     1.0000 0.48890  0.89390  0.33600  Biso   1.000  C
  C260     1.0000 0.10610  0.59500  0.33600  Biso   1.000  C
  C261     1.0000 0.40500  0.51110  0.33600  Biso   1.000  C
  C262     1.0000 0.89390  0.48890  0.16400  Biso   1.000  C
  C263     1.0000 0.59500  0.10610  0.16400  Biso   1.000  C
  C264     1.0000 0.51110  0.40500  0.16400  Biso   1.000  C
  H157     1.0000 0.47690  0.10730  0.68780  Biso   1.000  H
  H158     1.0000 0.89270  0.36960  0.68780  Biso   1.000  H
  H159     1.0000 0.63040  0.52310  0.68780  Biso   1.000  H
  H160     1.0000 0.10730  0.47690  0.81220  Biso   1.000  H
  H161     1.0000 0.36960  0.89270  0.81220  Biso   1.000  H
  H162     1.0000 0.52310  0.63040  0.81220  Biso   1.000  H
  H163     1.0000 0.52310  0.89270  0.31220  Biso   1.000  H
  H164     1.0000 0.10730  0.63040  0.31220  Biso   1.000  H
  H165     1.0000 0.36960  0.47690  0.31220  Biso   1.000  H
  H166     1.0000 0.89270  0.52310  0.18780  Biso   1.000  H
  H167     1.0000 0.63040  0.10730  0.18780  Biso   1.000  H
  H168     1.0000 0.47690  0.36960  0.18780  Biso   1.000  H
  C265     1.0000 0.66400  0.00000  0.25000  Biso   1.000  C
  C266     1.0000 0.00000  0.66400  0.25000  Biso   1.000  C
  C267     1.0000 0.33600  0.33600  0.25000  Biso   1.000  C
  C268     1.0000 0.33600  0.00000  0.75000  Biso   1.000  C
  C269     1.0000 0.00000  0.33600  0.75000  Biso   1.000  C
  C270     1.0000 0.66400  0.66400  0.75000  Biso   1.000  C
  C271     1.0000 0.69220  0.98590  0.19630  Biso   1.000  C
  C272     1.0000 0.01410  0.70630  0.19630  Biso   1.000  C
  C273     1.0000 0.29370  0.30780  0.19630  Biso   1.000  C
  C274     1.0000 0.98590  0.69220  0.30370  Biso   1.000  C
  C275     1.0000 0.70630  0.01410  0.30370  Biso   1.000  C
  C276     1.0000 0.30780  0.29370  0.30370  Biso   1.000  C
  C277     1.0000 0.30780  0.01410  0.80370  Biso   1.000  C
  C278     1.0000 0.98590  0.29370  0.80370  Biso   1.000  C
  C279     1.0000 0.70630  0.69220  0.80370  Biso   1.000  C
  C280     1.0000 0.01410  0.30780  0.69630  Biso   1.000  C
  C281     1.0000 0.29370  0.98590  0.69630  Biso   1.000  C
  C282     1.0000 0.69220  0.70630  0.69630  Biso   1.000  C
  H169     1.0000 0.66140  0.97720  0.16240  Biso   1.000  H
  H170     1.0000 0.02280  0.68420  0.16240  Biso   1.000  H
  H171     1.0000 0.31580  0.33860  0.16240  Biso   1.000  H
  H172     1.0000 0.97720  0.66140  0.33760  Biso   1.000  H
  H173     1.0000 0.68420  0.02280  0.33760  Biso   1.000  H
  H174     1.0000 0.33860  0.31580  0.33760  Biso   1.000  H
  H175     1.0000 0.33860  0.02280  0.83760  Biso   1.000  H
  H176     1.0000 0.97720  0.31580  0.83760  Biso   1.000  H
  H177     1.0000 0.68420  0.66140  0.83760  Biso   1.000  H
  H178     1.0000 0.02280  0.33860  0.66240  Biso   1.000  H
  H179     1.0000 0.31580  0.97720  0.66240  Biso   1.000  H
  H180     1.0000 0.66140  0.68420  0.66240  Biso   1.000  H
  H181     1.0000 0.69690  0.94560  0.20330  Biso   1.000  H
  H182     1.0000 0.05440  0.75130  0.20330  Biso   1.000  H
  H183     1.0000 0.24870  0.30310  0.20330  Biso   1.000  H
  H184     1.0000 0.94560  0.69690  0.29670  Biso   1.000  H
  H185     1.0000 0.75130  0.05440  0.29670  Biso   1.000  H
  H186     1.0000 0.30310  0.24870  0.29670  Biso   1.000  H
  H187     1.0000 0.30310  0.05440  0.79670  Biso   1.000  H
  H188     1.0000 0.94560  0.24870  0.79670  Biso   1.000  H
  H189     1.0000 0.75130  0.69690  0.79670  Biso   1.000  H
  H190     1.0000 0.05440  0.30310  0.70330  Biso   1.000  H
  H191     1.0000 0.24870  0.94560  0.70330  Biso   1.000  H
  H192     1.0000 0.69690  0.75130  0.70330  Biso   1.000  H
  H193     1.0000 0.73710  0.02530  0.18740  Biso   1.000  H
  H194     1.0000 0.97470  0.71180  0.18740  Biso   1.000  H
  H195     1.0000 0.28820  0.26290  0.18740  Biso   1.000  H
  H196     1.0000 0.02530  0.73710  0.31260  Biso   1.000  H
  H197     1.0000 0.71180  0.97470  0.31260  Biso   1.000  H
  H198     1.0000 0.26290  0.28820  0.31260  Biso   1.000  H
  H199     1.0000 0.26290  0.97470  0.81260  Biso   1.000  H
  H200     1.0000 0.02530  0.28820  0.81260  Biso   1.000  H
  H201     1.0000 0.71180  0.73710  0.81260  Biso   1.000  H
  H202     1.0000 0.97470  0.26290  0.68740  Biso   1.000  H
  H203     1.0000 0.28820  0.02530  0.68740  Biso   1.000  H
  H204     1.0000 0.73710  0.71180  0.68740  Biso   1.000  H
  C283     1.0000 0.33600  0.00000  0.25000  Biso   1.000  C
  C284     1.0000 0.00000  0.33600  0.25000  Biso   1.000  C
  C285     1.0000 0.66400  0.66400  0.25000  Biso   1.000  C
  C286     1.0000 0.66400  0.00000  0.75000  Biso   1.000  C
  C287     1.0000 0.00000  0.66400  0.75000  Biso   1.000  C
  C288     1.0000 0.33600  0.33600  0.75000  Biso   1.000  C
  C289     1.0000 0.31300  0.02400  0.30300  Biso   1.000  C
  C290     1.0000 0.97600  0.28900  0.30300  Biso   1.000  C
  C291     1.0000 0.71100  0.68700  0.30300  Biso   1.000  C
  C292     1.0000 0.02400  0.31300  0.19700  Biso   1.000  C
  C293     1.0000 0.28900  0.97600  0.19700  Biso   1.000  C
  C294     1.0000 0.68700  0.71100  0.19700  Biso   1.000  C
  C295     1.0000 0.68700  0.97600  0.69700  Biso   1.000  C
  C296     1.0000 0.02400  0.71100  0.69700  Biso   1.000  C
  C297     1.0000 0.28900  0.31300  0.69700  Biso   1.000  C
  C298     1.0000 0.97600  0.68700  0.80300  Biso   1.000  C
  C299     1.0000 0.71100  0.02400  0.80300  Biso   1.000  C
  C300     1.0000 0.31300  0.28900  0.80300  Biso   1.000  C
  H205     1.0000 0.34730  0.03830  0.33470  Biso   1.000  H
  H206     1.0000 0.96170  0.30900  0.33470  Biso   1.000  H
  H207     1.0000 0.69100  0.65270  0.33470  Biso   1.000  H
  H208     1.0000 0.03830  0.34730  0.16530  Biso   1.000  H
  H209     1.0000 0.30900  0.96170  0.16530  Biso   1.000  H
  H210     1.0000 0.65270  0.69100  0.16530  Biso   1.000  H
  H211     1.0000 0.65270  0.96170  0.66530  Biso   1.000  H
  H212     1.0000 0.03830  0.69100  0.66530  Biso   1.000  H
  H213     1.0000 0.30900  0.34730  0.66530  Biso   1.000  H
  H214     1.0000 0.96170  0.65270  0.83470  Biso   1.000  H
  H215     1.0000 0.69100  0.03830  0.83470  Biso   1.000  H
  H216     1.0000 0.34730  0.30900  0.83470  Biso   1.000  H
  H217     1.0000 0.26930  0.98710  0.31690  Biso   1.000  H
  H218     1.0000 0.01290  0.28220  0.31690  Biso   1.000  H
  H219     1.0000 0.71780  0.73070  0.31690  Biso   1.000  H
  H220     1.0000 0.98710  0.26930  0.18310  Biso   1.000  H
  H221     1.0000 0.28220  0.01290  0.18310  Biso   1.000  H
  H222     1.0000 0.73070  0.71780  0.18310  Biso   1.000  H
  H223     1.0000 0.73070  0.01290  0.68310  Biso   1.000  H
  H224     1.0000 0.98710  0.71780  0.68310  Biso   1.000  H
  H225     1.0000 0.28220  0.26930  0.68310  Biso   1.000  H
  H226     1.0000 0.01290  0.73070  0.81690  Biso   1.000  H
  H227     1.0000 0.71780  0.98710  0.81690  Biso   1.000  H
  H228     1.0000 0.26930  0.28220  0.81690  Biso   1.000  H
  H229     1.0000 0.30820  0.06320  0.29060  Biso   1.000  H
  H230     1.0000 0.93680  0.24500  0.29060  Biso   1.000  H
  H231     1.0000 0.75500  0.69180  0.29060  Biso   1.000  H
  H232     1.0000 0.06320  0.30820  0.20940  Biso   1.000  H
  H233     1.0000 0.24500  0.93680  0.20940  Biso   1.000  H
  H234     1.0000 0.69180  0.75500  0.20940  Biso   1.000  H
  H235     1.0000 0.69180  0.93680  0.70940  Biso   1.000  H
  H236     1.0000 0.06320  0.75500  0.70940  Biso   1.000  H
  H237     1.0000 0.24500  0.30820  0.70940  Biso   1.000  H
  H238     1.0000 0.93680  0.69180  0.79060  Biso   1.000  H
  H239     1.0000 0.75500  0.06320  0.79060  Biso   1.000  H
  H240     1.0000 0.30820  0.24500  0.79060  Biso   1.000  H
  Cl1      1.0000 0.41380  0.20190  0.71760  Biso   1.000  Cl
  Cl2      1.0000 0.79810  0.21190  0.71760  Biso   1.000  Cl
  Cl3      1.0000 0.78810  0.58620  0.71760  Biso   1.000  Cl
  Cl4      1.0000 0.20190  0.41380  0.78240  Biso   1.000  Cl
  Cl5      1.0000 0.21190  0.79810  0.78240  Biso   1.000  Cl
  Cl6      1.0000 0.58620  0.78810  0.78240  Biso   1.000  Cl
  Cl7      1.0000 0.58620  0.79810  0.28240  Biso   1.000  Cl
  Cl8      1.0000 0.20190  0.78810  0.28240  Biso   1.000  Cl
  Cl9      1.0000 0.21190  0.41380  0.28240  Biso   1.000  Cl
  Cl10     1.0000 0.79810  0.58620  0.21760  Biso   1.000  Cl
  Cl11     1.0000 0.78810  0.20190  0.21760  Biso   1.000  Cl
  Cl12     1.0000 0.41380  0.21190  0.21760  Biso   1.000  Cl
  O61      1.0000 0.41700  0.25970  0.70040  Biso   1.000  O
  O62      1.0000 0.74030  0.15730  0.70040  Biso   1.000  O
  O63      1.0000 0.84270  0.58300  0.70040  Biso   1.000  O
  O64      1.0000 0.25970  0.41700  0.79960  Biso   1.000  O
  O65      1.0000 0.15730  0.74030  0.79960  Biso   1.000  O
  O66      1.0000 0.58300  0.84270  0.79960  Biso   1.000  O
  O67      1.0000 0.58300  0.74030  0.29960  Biso   1.000  O
  O68      1.0000 0.25970  0.84270  0.29960  Biso   1.000  O
  O69      1.0000 0.15730  0.41700  0.29960  Biso   1.000  O
  O70      1.0000 0.74030  0.58300  0.20040  Biso   1.000  O
  O71      1.0000 0.84270  0.25970  0.20040  Biso   1.000  O
  O72      1.0000 0.41700  0.15730  0.20040  Biso   1.000  O
  O73      1.0000 0.39540  0.15060  0.67690  Biso   1.000  O
  O74      1.0000 0.84940  0.24480  0.67690  Biso   1.000  O
  O75      1.0000 0.75520  0.60460  0.67690  Biso   1.000  O
  O76      1.0000 0.15060  0.39540  0.82310  Biso   1.000  O
  O77      1.0000 0.24480  0.84940  0.82310  Biso   1.000  O
  O78      1.0000 0.60460  0.75520  0.82310  Biso   1.000  O
  O79      1.0000 0.60460  0.84940  0.32310  Biso   1.000  O
  O80      1.0000 0.15060  0.75520  0.32310  Biso   1.000  O
  O81      1.0000 0.24480  0.39540  0.32310  Biso   1.000  O
  O82      1.0000 0.84940  0.60460  0.17690  Biso   1.000  O
  O83      1.0000 0.75520  0.15060  0.17690  Biso   1.000  O
  O84      1.0000 0.39540  0.24480  0.17690  Biso   1.000  O
  O85      1.0000 0.43700  0.19500  0.77000  Biso   1.000  O
  O86      1.0000 0.80500  0.24200  0.77000  Biso   1.000  O
  O87      1.0000 0.75800  0.56300  0.77000  Biso   1.000  O
  O88      1.0000 0.19500  0.43700  0.73000  Biso   1.000  O
  O89      1.0000 0.24200  0.80500  0.73000  Biso   1.000  O
  O90      1.0000 0.56300  0.75800  0.73000  Biso   1.000  O
  O91      1.0000 0.56300  0.80500  0.23000  Biso   1.000  O
  O92      1.0000 0.19500  0.75800  0.23000  Biso   1.000  O
  O93      1.0000 0.24200  0.43700  0.23000  Biso   1.000  O
  O94      1.0000 0.80500  0.56300  0.27000  Biso   1.000  O
  O95      1.0000 0.75800  0.19500  0.27000  Biso   1.000  O
  O96      1.0000 0.43700  0.24200  0.27000  Biso   1.000  O
  O97      1.0000 0.33100  0.16300  0.74300  Biso   1.000  O
  O98      1.0000 0.83700  0.16800  0.74300  Biso   1.000  O
  O99      1.0000 0.83200  0.66900  0.74300  Biso   1.000  O
  O100     1.0000 0.16300  0.33100  0.75700  Biso   1.000  O
  O101     1.0000 0.16800  0.83700  0.75700  Biso   1.000  O
  O102     1.0000 0.66900  0.83200  0.75700  Biso   1.000  O
  O103     1.0000 0.66900  0.83700  0.25700  Biso   1.000  O
  O104     1.0000 0.16300  0.83200  0.25700  Biso   1.000  O
  O105     1.0000 0.16800  0.33100  0.25700  Biso   1.000  O
  O106     1.0000 0.83700  0.66900  0.24300  Biso   1.000  O
  O107     1.0000 0.83200  0.16300  0.24300  Biso   1.000  O
  O108     1.0000 0.33100  0.16800  0.24300  Biso   1.000  O
  Cl13     1.0000 0.64290  0.11080  0.95990  Biso   1.000  Cl
  Cl14     1.0000 0.88920  0.53210  0.95990  Biso   1.000  Cl
  Cl15     1.0000 0.46790  0.35710  0.95990  Biso   1.000  Cl
  Cl16     1.0000 0.11080  0.64290  0.54010  Biso   1.000  Cl
  Cl17     1.0000 0.53210  0.88920  0.54010  Biso   1.000  Cl
  Cl18     1.0000 0.35710  0.46790  0.54010  Biso   1.000  Cl
  Cl19     1.0000 0.35710  0.88920  0.04010  Biso   1.000  Cl
  Cl20     1.0000 0.11080  0.46790  0.04010  Biso   1.000  Cl
  Cl21     1.0000 0.53210  0.64290  0.04010  Biso   1.000  Cl
  Cl22     1.0000 0.88920  0.35710  0.45990  Biso   1.000  Cl
  Cl23     1.0000 0.46790  0.11080  0.45990  Biso   1.000  Cl
  Cl24     1.0000 0.64290  0.53210  0.45990  Biso   1.000  Cl
  Cl25     1.0000 0.57360  0.00070  0.04250  Biso   1.000  Cl
  Cl26     1.0000 0.99930  0.57290  0.04250  Biso   1.000  Cl
  Cl27     1.0000 0.42710  0.42640  0.04250  Biso   1.000  Cl
  Cl28     1.0000 0.00070  0.57360  0.45750  Biso   1.000  Cl
  Cl29     1.0000 0.57290  0.99930  0.45750  Biso   1.000  Cl
  Cl30     1.0000 0.42640  0.42710  0.45750  Biso   1.000  Cl
  Cl31     1.0000 0.42640  0.99930  0.95750  Biso   1.000  Cl
  Cl32     1.0000 0.00070  0.42710  0.95750  Biso   1.000  Cl
  Cl33     1.0000 0.57290  0.57360  0.95750  Biso   1.000  Cl
  Cl34     1.0000 0.99930  0.42640  0.54250  Biso   1.000  Cl
  Cl35     1.0000 0.42710  0.00070  0.54250  Biso   1.000  Cl
  Cl36     1.0000 0.57360  0.57290  0.54250  Biso   1.000  Cl
  C301     1.0000 0.65100  0.06200  0.01500  Biso   1.000  C
  C302     1.0000 0.93800  0.58900  0.01500  Biso   1.000  C
  C303     1.0000 0.41100  0.34900  0.01500  Biso   1.000  C
  C304     1.0000 0.06200  0.65100  0.48500  Biso   1.000  C
  C305     1.0000 0.58900  0.93800  0.48500  Biso   1.000  C
  C306     1.0000 0.34900  0.41100  0.48500  Biso   1.000  C
  C307     1.0000 0.34900  0.93800  0.98500  Biso   1.000  C
  C308     1.0000 0.06200  0.41100  0.98500  Biso   1.000  C
  C309     1.0000 0.58900  0.65100  0.98500  Biso   1.000  C
  C310     1.0000 0.93800  0.34900  0.51500  Biso   1.000  C
  C311     1.0000 0.41100  0.06200  0.51500  Biso   1.000  C
  C312     1.0000 0.65100  0.58900  0.51500  Biso   1.000  C
  H241     1.0000 0.67540  0.03890  0.99740  Biso   1.000  H
  H242     1.0000 0.96110  0.63650  0.99740  Biso   1.000  H
  H243     1.0000 0.36350  0.32460  0.99740  Biso   1.000  H
  H244     1.0000 0.03890  0.67540  0.50260  Biso   1.000  H
  H245     1.0000 0.63650  0.96110  0.50260  Biso   1.000  H
  H246     1.0000 0.32460  0.36350  0.50260  Biso   1.000  H
  H247     1.0000 0.32460  0.96110  0.00260  Biso   1.000  H
  H248     1.0000 0.03890  0.36350  0.00260  Biso   1.000  H
  H249     1.0000 0.63650  0.67540  0.00260  Biso   1.000  H
  H250     1.0000 0.96110  0.32460  0.49740  Biso   1.000  H
  H251     1.0000 0.36350  0.03890  0.49740  Biso   1.000  H
  H252     1.0000 0.67540  0.63650  0.49740  Biso   1.000  H
  H253     1.0000 0.67980  0.09160  0.04760  Biso   1.000  H
  H254     1.0000 0.90840  0.58820  0.04760  Biso   1.000  H
  H255     1.0000 0.41180  0.32020  0.04760  Biso   1.000  H
  H256     1.0000 0.09160  0.67980  0.45240  Biso   1.000  H
  H257     1.0000 0.58820  0.90840  0.45240  Biso   1.000  H
  H258     1.0000 0.32020  0.41180  0.45240  Biso   1.000  H
  H259     1.0000 0.32020  0.90840  0.95240  Biso   1.000  H
  H260     1.0000 0.09160  0.41180  0.95240  Biso   1.000  H
  H261     1.0000 0.58820  0.67980  0.95240  Biso   1.000  H
  H262     1.0000 0.90840  0.32020  0.54760  Biso   1.000  H
  H263     1.0000 0.41180  0.09160  0.54760  Biso   1.000  H
  H264     1.0000 0.67980  0.58820  0.54760  Biso   1.000  H
  Cl37     1.0000 0.79600  0.89100  0.29600  Biso   1.000  Cl
  Cl38     1.0000 0.10900  0.90500  0.29600  Biso   1.000  Cl
  Cl39     1.0000 0.09500  0.20400  0.29600  Biso   1.000  Cl
  Cl40     1.0000 0.89100  0.79600  0.20400  Biso   1.000  Cl
  Cl41     1.0000 0.90500  0.10900  0.20400  Biso   1.000  Cl
  Cl42     1.0000 0.20400  0.09500  0.20400  Biso   1.000  Cl
  Cl43     1.0000 0.20400  0.10900  0.70400  Biso   1.000  Cl
  Cl44     1.0000 0.89100  0.09500  0.70400  Biso   1.000  Cl
  Cl45     1.0000 0.90500  0.79600  0.70400  Biso   1.000  Cl
  Cl46     1.0000 0.10900  0.20400  0.79600  Biso   1.000  Cl
  Cl47     1.0000 0.09500  0.89100  0.79600  Biso   1.000  Cl
  Cl48     1.0000 0.79600  0.90500  0.79600  Biso   1.000  Cl
  Cl49     1.0000 0.88200  0.03200  0.31300  Biso   1.000  Cl
  Cl50     1.0000 0.96800  0.85000  0.31300  Biso   1.000  Cl
  Cl51     1.0000 0.15000  0.11800  0.31300  Biso   1.000  Cl
  Cl52     1.0000 0.03200  0.88200  0.18700  Biso   1.000  Cl
  Cl53     1.0000 0.85000  0.96800  0.18700  Biso   1.000  Cl
  Cl54     1.0000 0.11800  0.15000  0.18700  Biso   1.000  Cl
  Cl55     1.0000 0.11800  0.96800  0.68700  Biso   1.000  Cl
  Cl56     1.0000 0.03200  0.15000  0.68700  Biso   1.000  Cl
  Cl57     1.0000 0.85000  0.88200  0.68700  Biso   1.000  Cl
  Cl58     1.0000 0.96800  0.11800  0.81300  Biso   1.000  Cl
  Cl59     1.0000 0.15000  0.03200  0.81300  Biso   1.000  Cl
  Cl60     1.0000 0.88200  0.85000  0.81300  Biso   1.000  Cl
  C313     1.0000 0.86600  0.95400  0.32400  Biso   1.000  C
  C314     1.0000 0.04600  0.91200  0.32400  Biso   1.000  C
  C315     1.0000 0.08800  0.13400  0.32400  Biso   1.000  C
  C316     1.0000 0.95400  0.86600  0.17600  Biso   1.000  C
  C317     1.0000 0.91200  0.04600  0.17600  Biso   1.000  C
  C318     1.0000 0.13400  0.08800  0.17600  Biso   1.000  C
  C319     1.0000 0.13400  0.04600  0.67600  Biso   1.000  C
  C320     1.0000 0.95400  0.08800  0.67600  Biso   1.000  C
  C321     1.0000 0.91200  0.86600  0.67600  Biso   1.000  C
  C322     1.0000 0.04600  0.13400  0.82400  Biso   1.000  C
  C323     1.0000 0.08800  0.95400  0.82400  Biso   1.000  C
  C324     1.0000 0.86600  0.91200  0.82400  Biso   1.000  C
  H265     1.0000 0.90490  0.95010  0.30700  Biso   1.000  H
  H266     1.0000 0.04990  0.95480  0.30700  Biso   1.000  H
  H267     1.0000 0.04520  0.09510  0.30700  Biso   1.000  H
  H268     1.0000 0.95010  0.90490  0.19300  Biso   1.000  H
  H269     1.0000 0.95480  0.04990  0.19300  Biso   1.000  H
  H270     1.0000 0.09510  0.04520  0.19300  Biso   1.000  H
  H271     1.0000 0.09510  0.04990  0.69300  Biso   1.000  H
  H272     1.0000 0.95010  0.04520  0.69300  Biso   1.000  H
  H273     1.0000 0.95480  0.90490  0.69300  Biso   1.000  H
  H274     1.0000 0.04990  0.09510  0.80700  Biso   1.000  H
  H275     1.0000 0.04520  0.95010  0.80700  Biso   1.000  H
  H276     1.0000 0.90490  0.95480  0.80700  Biso   1.000  H
  H277     1.0000 0.86580  0.94650  0.36750  Biso   1.000  H
  H278     1.0000 0.05350  0.91930  0.36750  Biso   1.000  H
  H279     1.0000 0.08070  0.13420  0.36750  Biso   1.000  H
  H280     1.0000 0.94650  0.86580  0.13250  Biso   1.000  H
  H281     1.0000 0.91930  0.05350  0.13250  Biso   1.000  H
  H282     1.0000 0.13420  0.08070  0.13250  Biso   1.000  H
  H283     1.0000 0.13420  0.05350  0.63250  Biso   1.000  H
  H284     1.0000 0.94650  0.08070  0.63250  Biso   1.000  H
  H285     1.0000 0.91930  0.86580  0.63250  Biso   1.000  H
  H286     1.0000 0.05350  0.13420  0.86750  Biso   1.000  H
  H287     1.0000 0.08070  0.94650  0.86750  Biso   1.000  H
  H288     1.0000 0.86580  0.91930  0.86750  Biso   1.000  H
  O109     1.0000 0.49700  0.24500  0.70200  Biso   1.000  O
  O110     1.0000 0.75500  0.25200  0.70200  Biso   1.000  O
  O111     1.0000 0.74800  0.50300  0.70200  Biso   1.000  O
  O112     1.0000 0.24500  0.49700  0.79800  Biso   1.000  O
  O113     1.0000 0.25200  0.75500  0.79800  Biso   1.000  O
  O114     1.0000 0.50300  0.74800  0.79800  Biso   1.000  O
  O115     1.0000 0.50300  0.75500  0.29800  Biso   1.000  O
  O116     1.0000 0.24500  0.74800  0.29800  Biso   1.000  O
  O117     1.0000 0.25200  0.49700  0.29800  Biso   1.000  O
  O118     1.0000 0.75500  0.50300  0.20200  Biso   1.000  O
  O119     1.0000 0.74800  0.24500  0.20200  Biso   1.000  O
  O120     1.0000 0.49700  0.25200  0.20200  Biso   1.000  O
  H289     1.0000 0.66470  0.31210  0.16320  Biso   1.000  H
  H290     1.0000 0.68790  0.35260  0.16320  Biso   1.000  H
  H291     1.0000 0.64740  0.33530  0.16320  Biso   1.000  H
  H292     1.0000 0.31210  0.66470  0.33680  Biso   1.000  H
  H293     1.0000 0.35260  0.68790  0.33680  Biso   1.000  H
  H294     1.0000 0.33530  0.64740  0.33680  Biso   1.000  H
  H295     1.0000 0.33530  0.68790  0.83680  Biso   1.000  H
  H296     1.0000 0.31210  0.64740  0.83680  Biso   1.000  H
  H297     1.0000 0.35260  0.66470  0.83680  Biso   1.000  H
  H298     1.0000 0.68790  0.33530  0.66320  Biso   1.000  H
  H299     1.0000 0.64740  0.31210  0.66320  Biso   1.000  H
  H300     1.0000 0.66470  0.35260  0.66320  Biso   1.000  H
  Cl61     1.0000 0.66670  0.33330  0.09780  Biso   1.000  Cl
  Cl62     1.0000 0.33330  0.66670  0.40220  Biso   1.000  Cl
  Cl63     1.0000 0.33330  0.66670  0.90220  Biso   1.000  Cl
  Cl64     1.0000 0.66670  0.33330  0.59780  Biso   1.000  Cl
  Cl65     1.0000 0.61700  0.30200  0.21700  Biso   1.000  Cl
  Cl66     1.0000 0.69800  0.31500  0.21700  Biso   1.000  Cl
  Cl67     1.0000 0.68500  0.38300  0.21700  Biso   1.000  Cl
  Cl68     1.0000 0.30200  0.61700  0.28300  Biso   1.000  Cl
  Cl69     1.0000 0.31500  0.69800  0.28300  Biso   1.000  Cl
  Cl70     1.0000 0.38300  0.68500  0.28300  Biso   1.000  Cl
  Cl71     1.0000 0.38300  0.69800  0.78300  Biso   1.000  Cl
  Cl72     1.0000 0.30200  0.68500  0.78300  Biso   1.000  Cl
  Cl73     1.0000 0.31500  0.61700  0.78300  Biso   1.000  Cl
  Cl74     1.0000 0.69800  0.38300  0.71700  Biso   1.000  Cl
  Cl75     1.0000 0.68500  0.30200  0.71700  Biso   1.000  Cl
  Cl76     1.0000 0.61700  0.31500  0.71700  Biso   1.000  Cl
  C325     1.0000 0.66670  0.33330  0.17400  Biso   1.000  C
  C326     1.0000 0.33330  0.66670  0.32600  Biso   1.000  C
  C327     1.0000 0.33330  0.66670  0.82600  Biso   1.000  C
  C328     1.0000 0.66670  0.33330  0.67400  Biso   1.000  C
  H301     1.0000 0.66670  0.33330  0.20060  Biso   1.000  H
  H302     1.0000 0.33330  0.66670  0.29940  Biso   1.000  H
  H303     1.0000 0.33330  0.66670  0.79940  Biso   1.000  H
  H304     1.0000 0.66670  0.33330  0.70060  Biso   1.000  H
