data_image0
_cell_length_a       28.73
_cell_length_b       27.26
_cell_length_c       23.95
_cell_angle_alpha    90
_cell_angle_beta     90
_cell_angle_gamma    90

_symmetry_space_group_name_H-M    "P 1"
_symmetry_int_tables_number       1

loop_
  _symmetry_equiv_pos_as_xyz
  'x, y, z'

loop_
  _atom_site_label
  _atom_site_occupancy
  _atom_site_fract_x
  _atom_site_fract_y
  _atom_site_fract_z
  _atom_site_thermal_displace_type
  _atom_site_B_iso_or_equiv
  _atom_site_type_symbol
  Cu1      1.0000 0.74236  0.08377  0.98500  Biso   1.000  Cu
  Cu2      1.0000 0.74236  0.58377  0.51500  Biso   1.000  Cu
  Cu3      1.0000 0.75764  0.08377  0.48500  Biso   1.000  Cu
  Cu4      1.0000 0.24236  0.41623  0.98500  Biso   1.000  Cu
  Cu5      1.0000 0.25764  0.91623  0.01500  Biso   1.000  Cu
  Cu6      1.0000 0.25764  0.41623  0.48500  Biso   1.000  Cu
  Cu7      1.0000 0.24236  0.91623  0.51500  Biso   1.000  Cu
  Cu8      1.0000 0.75764  0.58377  0.01500  Biso   1.000  Cu
  Cu9      1.0000 0.73772  0.97581  0.01783  Biso   1.000  Cu
  Cu10     1.0000 0.73772  0.47581  0.48217  Biso   1.000  Cu
  Cu11     1.0000 0.76228  0.97581  0.51783  Biso   1.000  Cu
  Cu12     1.0000 0.23772  0.52419  0.01783  Biso   1.000  Cu
  Cu13     1.0000 0.26228  0.02419  0.98217  Biso   1.000  Cu
  Cu14     1.0000 0.26228  0.52419  0.51783  Biso   1.000  Cu
  Cu15     1.0000 0.23772  0.02419  0.48217  Biso   1.000  Cu
  Cu16     1.0000 0.76228  0.47581  0.98217  Biso   1.000  Cu
  Cu17     1.0000 0.72981  0.32223  0.99951  Biso   1.000  Cu
  Cu18     1.0000 0.72981  0.82223  0.50049  Biso   1.000  Cu
  Cu19     1.0000 0.77019  0.32223  0.49951  Biso   1.000  Cu
  Cu20     1.0000 0.22981  0.17777  0.99951  Biso   1.000  Cu
  Cu21     1.0000 0.27019  0.67777  0.00049  Biso   1.000  Cu
  Cu22     1.0000 0.27019  0.17777  0.49951  Biso   1.000  Cu
  Cu23     1.0000 0.22981  0.67777  0.50049  Biso   1.000  Cu
  Cu24     1.0000 0.77019  0.82223  0.00049  Biso   1.000  Cu
  Cu25     1.0000 0.79626  0.23829  0.96000  Biso   1.000  Cu
  Cu26     1.0000 0.79626  0.73829  0.54000  Biso   1.000  Cu
  Cu27     1.0000 0.70374  0.23829  0.46000  Biso   1.000  Cu
  Cu28     1.0000 0.29626  0.26171  0.96000  Biso   1.000  Cu
  Cu29     1.0000 0.20374  0.76171  0.04000  Biso   1.000  Cu
  Cu30     1.0000 0.20374  0.26171  0.46000  Biso   1.000  Cu
  Cu31     1.0000 0.29626  0.76171  0.54000  Biso   1.000  Cu
  Cu32     1.0000 0.70374  0.73829  0.04000  Biso   1.000  Cu
  O1       1.0000 0.69670  0.08090  0.04380  Biso   1.000  O
  O2       1.0000 0.69670  0.58090  0.45620  Biso   1.000  O
  O3       1.0000 0.80330  0.08090  0.54380  Biso   1.000  O
  O4       1.0000 0.19670  0.41910  0.04380  Biso   1.000  O
  O5       1.0000 0.30330  0.91910  0.95620  Biso   1.000  O
  O6       1.0000 0.30330  0.41910  0.54380  Biso   1.000  O
  O7       1.0000 0.19670  0.91910  0.45620  Biso   1.000  O
  O8       1.0000 0.80330  0.58090  0.95620  Biso   1.000  O
  O9       1.0000 0.69730  0.00340  0.07500  Biso   1.000  O
  O10      1.0000 0.69730  0.50340  0.42500  Biso   1.000  O
  O11      1.0000 0.80270  0.00340  0.57500  Biso   1.000  O
  O12      1.0000 0.19730  0.49660  0.07500  Biso   1.000  O
  O13      1.0000 0.30270  0.99660  0.92500  Biso   1.000  O
  O14      1.0000 0.30270  0.49660  0.57500  Biso   1.000  O
  O15      1.0000 0.19730  0.99660  0.42500  Biso   1.000  O
  O16      1.0000 0.80270  0.50340  0.92500  Biso   1.000  O
  O17      1.0000 0.69960  0.05820  0.93030  Biso   1.000  O
  O18      1.0000 0.69960  0.55820  0.56970  Biso   1.000  O
  O19      1.0000 0.80040  0.05820  0.43030  Biso   1.000  O
  O20      1.0000 0.19960  0.44180  0.93030  Biso   1.000  O
  O21      1.0000 0.30040  0.94180  0.06970  Biso   1.000  O
  O22      1.0000 0.30040  0.44180  0.43030  Biso   1.000  O
  O23      1.0000 0.19960  0.94180  0.56970  Biso   1.000  O
  O24      1.0000 0.80040  0.55820  0.06970  Biso   1.000  O
  O25      1.0000 0.68960  0.98140  0.96150  Biso   1.000  O
  O26      1.0000 0.68960  0.48140  0.53850  Biso   1.000  O
  O27      1.0000 0.81040  0.98140  0.46150  Biso   1.000  O
  O28      1.0000 0.18960  0.51860  0.96150  Biso   1.000  O
  O29      1.0000 0.31040  0.01860  0.03850  Biso   1.000  O
  O30      1.0000 0.31040  0.51860  0.46150  Biso   1.000  O
  O31      1.0000 0.18960  0.01860  0.53850  Biso   1.000  O
  O32      1.0000 0.81040  0.48140  0.03850  Biso   1.000  O
  O33      1.0000 0.72090  0.90060  0.02740  Biso   1.000  O
  O34      1.0000 0.72090  0.40060  0.47260  Biso   1.000  O
  O35      1.0000 0.77910  0.90060  0.52740  Biso   1.000  O
  O36      1.0000 0.22090  0.59940  0.02740  Biso   1.000  O
  O37      1.0000 0.27910  0.09940  0.97260  Biso   1.000  O
  O38      1.0000 0.27910  0.59940  0.52740  Biso   1.000  O
  O39      1.0000 0.22090  0.09940  0.47260  Biso   1.000  O
  O40      1.0000 0.77910  0.40060  0.97260  Biso   1.000  O
  O41      1.0000 0.71160  0.82260  0.04130  Biso   1.000  O
  O42      1.0000 0.71160  0.32260  0.45870  Biso   1.000  O
  O43      1.0000 0.78840  0.82260  0.54130  Biso   1.000  O
  O44      1.0000 0.21160  0.67740  0.04130  Biso   1.000  O
  O45      1.0000 0.28840  0.17740  0.95870  Biso   1.000  O
  O46      1.0000 0.28840  0.67740  0.54130  Biso   1.000  O
  O47      1.0000 0.21160  0.17740  0.45870  Biso   1.000  O
  O48      1.0000 0.78840  0.32260  0.95870  Biso   1.000  O
  O49      1.0000 0.73150  0.16220  0.96800  Biso   1.000  O
  O50      1.0000 0.73150  0.66220  0.53200  Biso   1.000  O
  O51      1.0000 0.76850  0.16220  0.46800  Biso   1.000  O
  O52      1.0000 0.23150  0.33780  0.96800  Biso   1.000  O
  O53      1.0000 0.26850  0.83780  0.03200  Biso   1.000  O
  O54      1.0000 0.26850  0.33780  0.46800  Biso   1.000  O
  O55      1.0000 0.23150  0.83780  0.53200  Biso   1.000  O
  O56      1.0000 0.76850  0.66220  0.03200  Biso   1.000  O
  O57      1.0000 0.72980  0.24200  0.97080  Biso   1.000  O
  O58      1.0000 0.72980  0.74200  0.52920  Biso   1.000  O
  O59      1.0000 0.77020  0.24200  0.47080  Biso   1.000  O
  O60      1.0000 0.22980  0.25800  0.97080  Biso   1.000  O
  O61      1.0000 0.27020  0.75800  0.02920  Biso   1.000  O
  O62      1.0000 0.27020  0.25800  0.47080  Biso   1.000  O
  O63      1.0000 0.22980  0.75800  0.52920  Biso   1.000  O
  O64      1.0000 0.77020  0.74200  0.02920  Biso   1.000  O
  O65      1.0000 0.76280  0.30570  0.06840  Biso   1.000  O
  O66      1.0000 0.76280  0.80570  0.43160  Biso   1.000  O
  O67      1.0000 0.73720  0.30570  0.56840  Biso   1.000  O
  O68      1.0000 0.26280  0.19430  0.06840  Biso   1.000  O
  O69      1.0000 0.23720  0.69430  0.93160  Biso   1.000  O
  O70      1.0000 0.23720  0.19430  0.56840  Biso   1.000  O
  O71      1.0000 0.26280  0.69430  0.43160  Biso   1.000  O
  O72      1.0000 0.73720  0.80570  0.93160  Biso   1.000  O
  O73      1.0000 0.80770  0.24320  0.04030  Biso   1.000  O
  O74      1.0000 0.80770  0.74320  0.45970  Biso   1.000  O
  O75      1.0000 0.69230  0.24320  0.54030  Biso   1.000  O
  O76      1.0000 0.30770  0.25680  0.04030  Biso   1.000  O
  O77      1.0000 0.19230  0.75680  0.95970  Biso   1.000  O
  O78      1.0000 0.19230  0.25680  0.54030  Biso   1.000  O
  O79      1.0000 0.30770  0.75680  0.45970  Biso   1.000  O
  O80      1.0000 0.69230  0.74320  0.95970  Biso   1.000  O
  N1       1.0000 0.79370  0.08680  0.93090  Biso   1.000  N
  N2       1.0000 0.79370  0.58680  0.56910  Biso   1.000  N
  N3       1.0000 0.70630  0.08680  0.43090  Biso   1.000  N
  N4       1.0000 0.29370  0.41320  0.93090  Biso   1.000  N
  N5       1.0000 0.20630  0.91320  0.06910  Biso   1.000  N
  N6       1.0000 0.20630  0.41320  0.43090  Biso   1.000  N
  N7       1.0000 0.29370  0.91320  0.56910  Biso   1.000  N
  N8       1.0000 0.70630  0.58680  0.06910  Biso   1.000  N
  N9       1.0000 0.79340  0.10050  0.03660  Biso   1.000  N
  N10      1.0000 0.79340  0.60050  0.46340  Biso   1.000  N
  N11      1.0000 0.70660  0.10050  0.53660  Biso   1.000  N
  N12      1.0000 0.29340  0.39950  0.03660  Biso   1.000  N
  N13      1.0000 0.20660  0.89950  0.96340  Biso   1.000  N
  N14      1.0000 0.20660  0.39950  0.53660  Biso   1.000  N
  N15      1.0000 0.29340  0.89950  0.46340  Biso   1.000  N
  N16      1.0000 0.70660  0.60050  0.96340  Biso   1.000  N
  N17      1.0000 0.78800  0.96550  0.96370  Biso   1.000  N
  N18      1.0000 0.78800  0.46550  0.53630  Biso   1.000  N
  N19      1.0000 0.71200  0.96550  0.46370  Biso   1.000  N
  N20      1.0000 0.28800  0.53450  0.96370  Biso   1.000  N
  N21      1.0000 0.21200  0.03450  0.03630  Biso   1.000  N
  N22      1.0000 0.21200  0.53450  0.46370  Biso   1.000  N
  N23      1.0000 0.28800  0.03450  0.53630  Biso   1.000  N
  N24      1.0000 0.71200  0.46550  0.03630  Biso   1.000  N
  N25      1.0000 0.79210  0.97770  0.06910  Biso   1.000  N
  N26      1.0000 0.79210  0.47770  0.43090  Biso   1.000  N
  N27      1.0000 0.70790  0.97770  0.56910  Biso   1.000  N
  N28      1.0000 0.29210  0.52230  0.06910  Biso   1.000  N
  N29      1.0000 0.20790  0.02230  0.93090  Biso   1.000  N
  N30      1.0000 0.20790  0.52230  0.56910  Biso   1.000  N
  N31      1.0000 0.29210  0.02230  0.43090  Biso   1.000  N
  N32      1.0000 0.70790  0.47770  0.93090  Biso   1.000  N
  N33      1.0000 0.67040  0.32820  0.03910  Biso   1.000  N
  N34      1.0000 0.67040  0.82820  0.46090  Biso   1.000  N
  N35      1.0000 0.82960  0.32820  0.53910  Biso   1.000  N
  N36      1.0000 0.17040  0.17180  0.03910  Biso   1.000  N
  N37      1.0000 0.32960  0.67180  0.96090  Biso   1.000  N
  N38      1.0000 0.32960  0.17180  0.53910  Biso   1.000  N
  N39      1.0000 0.17040  0.67180  0.46090  Biso   1.000  N
  N40      1.0000 0.82960  0.82820  0.96090  Biso   1.000  N
  N41      1.0000 0.69030  0.33880  0.93560  Biso   1.000  N
  N42      1.0000 0.69030  0.83880  0.56440  Biso   1.000  N
  N43      1.0000 0.80970  0.33880  0.43560  Biso   1.000  N
  N44      1.0000 0.19030  0.16120  0.93560  Biso   1.000  N
  N45      1.0000 0.30970  0.66120  0.06440  Biso   1.000  N
  N46      1.0000 0.30970  0.16120  0.43560  Biso   1.000  N
  N47      1.0000 0.19030  0.66120  0.56440  Biso   1.000  N
  N48      1.0000 0.80970  0.83880  0.06440  Biso   1.000  N
  N49      1.0000 0.86380  0.23460  0.94620  Biso   1.000  N
  N50      1.0000 0.86380  0.73460  0.55380  Biso   1.000  N
  N51      1.0000 0.63620  0.23460  0.44620  Biso   1.000  N
  N52      1.0000 0.36380  0.26540  0.94620  Biso   1.000  N
  N53      1.0000 0.13620  0.76540  0.05380  Biso   1.000  N
  N54      1.0000 0.13620  0.26540  0.44620  Biso   1.000  N
  N55      1.0000 0.36380  0.76540  0.55380  Biso   1.000  N
  N56      1.0000 0.63620  0.73460  0.05380  Biso   1.000  N
  N57      1.0000 0.79460  0.22510  0.87910  Biso   1.000  N
  N58      1.0000 0.79460  0.72510  0.62090  Biso   1.000  N
  N59      1.0000 0.70540  0.22510  0.37910  Biso   1.000  N
  N60      1.0000 0.29460  0.27490  0.87910  Biso   1.000  N
  N61      1.0000 0.20540  0.77490  0.12090  Biso   1.000  N
  N62      1.0000 0.20540  0.27490  0.37910  Biso   1.000  N
  N63      1.0000 0.29460  0.77490  0.62090  Biso   1.000  N
  N64      1.0000 0.70540  0.72510  0.12090  Biso   1.000  N
  C1       1.0000 0.79080  0.07980  0.87540  Biso   1.000  C
  C2       1.0000 0.79080  0.57980  0.62460  Biso   1.000  C
  C3       1.0000 0.70920  0.07980  0.37540  Biso   1.000  C
  C4       1.0000 0.29080  0.42020  0.87540  Biso   1.000  C
  C5       1.0000 0.20920  0.92020  0.12460  Biso   1.000  C
  C6       1.0000 0.20920  0.42020  0.37540  Biso   1.000  C
  C7       1.0000 0.29080  0.92020  0.62460  Biso   1.000  C
  C8       1.0000 0.70920  0.57980  0.12460  Biso   1.000  C
  H1       1.0000 0.76240  0.07010  0.86060  Biso   1.000  H
  H2       1.0000 0.76240  0.57010  0.63940  Biso   1.000  H
  H3       1.0000 0.73760  0.07010  0.36060  Biso   1.000  H
  H4       1.0000 0.26240  0.42990  0.86060  Biso   1.000  H
  H5       1.0000 0.23760  0.92990  0.13940  Biso   1.000  H
  H6       1.0000 0.23760  0.42990  0.36060  Biso   1.000  H
  H7       1.0000 0.26240  0.92990  0.63940  Biso   1.000  H
  H8       1.0000 0.73760  0.57010  0.13940  Biso   1.000  H
  C9       1.0000 0.82670  0.08600  0.84040  Biso   1.000  C
  C10      1.0000 0.82670  0.58600  0.65960  Biso   1.000  C
  C11      1.0000 0.67330  0.08600  0.34040  Biso   1.000  C
  C12      1.0000 0.32670  0.41400  0.84040  Biso   1.000  C
  C13      1.0000 0.17330  0.91400  0.15960  Biso   1.000  C
  C14      1.0000 0.17330  0.41400  0.34040  Biso   1.000  C
  C15      1.0000 0.32670  0.91400  0.65960  Biso   1.000  C
  C16      1.0000 0.67330  0.58600  0.15960  Biso   1.000  C
  H9       1.0000 0.82230  0.08150  0.80220  Biso   1.000  H
  H10      1.0000 0.82230  0.58150  0.69780  Biso   1.000  H
  H11      1.0000 0.67770  0.08150  0.30220  Biso   1.000  H
  H12      1.0000 0.32230  0.41850  0.80220  Biso   1.000  H
  H13      1.0000 0.17770  0.91850  0.19780  Biso   1.000  H
  H14      1.0000 0.17770  0.41850  0.30220  Biso   1.000  H
  H15      1.0000 0.32230  0.91850  0.69780  Biso   1.000  H
  H16      1.0000 0.67770  0.58150  0.19780  Biso   1.000  H
  C17      1.0000 0.86900  0.09880  0.85980  Biso   1.000  C
  C18      1.0000 0.86900  0.59880  0.64020  Biso   1.000  C
  C19      1.0000 0.63100  0.09880  0.35980  Biso   1.000  C
  C20      1.0000 0.36900  0.40120  0.85980  Biso   1.000  C
  C21      1.0000 0.13100  0.90120  0.14020  Biso   1.000  C
  C22      1.0000 0.13100  0.40120  0.35980  Biso   1.000  C
  C23      1.0000 0.36900  0.90120  0.64020  Biso   1.000  C
  C24      1.0000 0.63100  0.59880  0.14020  Biso   1.000  C
  C25      1.0000 0.87430  0.10740  0.91710  Biso   1.000  C
  C26      1.0000 0.87430  0.60740  0.58290  Biso   1.000  C
  C27      1.0000 0.62570  0.10740  0.41710  Biso   1.000  C
  C28      1.0000 0.37430  0.39260  0.91710  Biso   1.000  C
  C29      1.0000 0.12570  0.89260  0.08290  Biso   1.000  C
  C30      1.0000 0.12570  0.39260  0.41710  Biso   1.000  C
  C31      1.0000 0.37430  0.89260  0.58290  Biso   1.000  C
  C32      1.0000 0.62570  0.60740  0.08290  Biso   1.000  C
  H17      1.0000 0.90250  0.11740  0.93240  Biso   1.000  H
  H18      1.0000 0.90250  0.61740  0.56760  Biso   1.000  H
  H19      1.0000 0.59750  0.11740  0.43240  Biso   1.000  H
  H20      1.0000 0.40250  0.38260  0.93240  Biso   1.000  H
  H21      1.0000 0.09750  0.88260  0.06760  Biso   1.000  H
  H22      1.0000 0.09750  0.38260  0.43240  Biso   1.000  H
  H23      1.0000 0.40250  0.88260  0.56760  Biso   1.000  H
  H24      1.0000 0.59750  0.61740  0.06760  Biso   1.000  H
  C33      1.0000 0.83540  0.10020  0.94970  Biso   1.000  C
  C34      1.0000 0.83540  0.60020  0.55030  Biso   1.000  C
  C35      1.0000 0.66460  0.10020  0.44970  Biso   1.000  C
  C36      1.0000 0.33540  0.39980  0.94970  Biso   1.000  C
  C37      1.0000 0.16460  0.89980  0.05030  Biso   1.000  C
  C38      1.0000 0.16460  0.39980  0.44970  Biso   1.000  C
  C39      1.0000 0.33540  0.89980  0.55030  Biso   1.000  C
  C40      1.0000 0.66460  0.60020  0.05030  Biso   1.000  C
  C41      1.0000 0.83570  0.10900  0.01200  Biso   1.000  C
  C42      1.0000 0.83570  0.60900  0.48800  Biso   1.000  C
  C43      1.0000 0.66430  0.10900  0.51200  Biso   1.000  C
  C44      1.0000 0.33570  0.39100  0.01200  Biso   1.000  C
  C45      1.0000 0.16430  0.89100  0.98800  Biso   1.000  C
  C46      1.0000 0.16430  0.39100  0.51200  Biso   1.000  C
  C47      1.0000 0.33570  0.89100  0.48800  Biso   1.000  C
  C48      1.0000 0.66430  0.60900  0.98800  Biso   1.000  C
  C49      1.0000 0.87330  0.12440  0.04160  Biso   1.000  C
  C50      1.0000 0.87330  0.62440  0.45840  Biso   1.000  C
  C51      1.0000 0.62670  0.12440  0.54160  Biso   1.000  C
  C52      1.0000 0.37330  0.37560  0.04160  Biso   1.000  C
  C53      1.0000 0.12670  0.87560  0.95840  Biso   1.000  C
  C54      1.0000 0.12670  0.37560  0.54160  Biso   1.000  C
  C55      1.0000 0.37330  0.87560  0.45840  Biso   1.000  C
  C56      1.0000 0.62670  0.62440  0.95840  Biso   1.000  C
  H25      1.0000 0.90170  0.12900  0.02350  Biso   1.000  H
  H26      1.0000 0.90170  0.62900  0.47650  Biso   1.000  H
  H27      1.0000 0.59830  0.12900  0.52350  Biso   1.000  H
  H28      1.0000 0.40170  0.37100  0.02350  Biso   1.000  H
  H29      1.0000 0.09830  0.87100  0.97650  Biso   1.000  H
  H30      1.0000 0.09830  0.37100  0.52350  Biso   1.000  H
  H31      1.0000 0.40170  0.87100  0.47650  Biso   1.000  H
  H32      1.0000 0.59830  0.62900  0.97650  Biso   1.000  H
  C57      1.0000 0.86980  0.13320  0.09830  Biso   1.000  C
  C58      1.0000 0.86980  0.63320  0.40170  Biso   1.000  C
  C59      1.0000 0.63020  0.13320  0.59830  Biso   1.000  C
  C60      1.0000 0.36980  0.36680  0.09830  Biso   1.000  C
  C61      1.0000 0.13020  0.86680  0.90170  Biso   1.000  C
  C62      1.0000 0.13020  0.36680  0.59830  Biso   1.000  C
  C63      1.0000 0.36980  0.86680  0.40170  Biso   1.000  C
  C64      1.0000 0.63020  0.63320  0.90170  Biso   1.000  C
  C65      1.0000 0.82810  0.12460  0.12320  Biso   1.000  C
  C66      1.0000 0.82810  0.62460  0.37680  Biso   1.000  C
  C67      1.0000 0.67190  0.12460  0.62320  Biso   1.000  C
  C68      1.0000 0.32810  0.37540  0.12320  Biso   1.000  C
  C69      1.0000 0.17190  0.87540  0.87680  Biso   1.000  C
  C70      1.0000 0.17190  0.37540  0.62320  Biso   1.000  C
  C71      1.0000 0.32810  0.87540  0.37680  Biso   1.000  C
  C72      1.0000 0.67190  0.62460  0.87680  Biso   1.000  C
  H33      1.0000 0.82460  0.12890  0.16150  Biso   1.000  H
  H34      1.0000 0.82460  0.62890  0.33850  Biso   1.000  H
  H35      1.0000 0.67540  0.12890  0.66150  Biso   1.000  H
  H36      1.0000 0.32460  0.37110  0.16150  Biso   1.000  H
  H37      1.0000 0.17540  0.87110  0.83850  Biso   1.000  H
  H38      1.0000 0.17540  0.37110  0.66150  Biso   1.000  H
  H39      1.0000 0.32460  0.87110  0.33850  Biso   1.000  H
  H40      1.0000 0.67540  0.62890  0.83850  Biso   1.000  H
  C73      1.0000 0.79190  0.10960  0.09160  Biso   1.000  C
  C74      1.0000 0.79190  0.60960  0.40840  Biso   1.000  C
  C75      1.0000 0.70810  0.10960  0.59160  Biso   1.000  C
  C76      1.0000 0.29190  0.39040  0.09160  Biso   1.000  C
  C77      1.0000 0.20810  0.89040  0.90840  Biso   1.000  C
  C78      1.0000 0.20810  0.39040  0.59160  Biso   1.000  C
  C79      1.0000 0.29190  0.89040  0.40840  Biso   1.000  C
  C80      1.0000 0.70810  0.60960  0.90840  Biso   1.000  C
  H41      1.0000 0.76350  0.10520  0.10950  Biso   1.000  H
  H42      1.0000 0.76350  0.60520  0.39050  Biso   1.000  H
  H43      1.0000 0.73650  0.10520  0.60950  Biso   1.000  H
  H44      1.0000 0.26350  0.39480  0.10950  Biso   1.000  H
  H45      1.0000 0.23650  0.89480  0.89050  Biso   1.000  H
  H46      1.0000 0.23650  0.39480  0.60950  Biso   1.000  H
  H47      1.0000 0.26350  0.89480  0.39050  Biso   1.000  H
  H48      1.0000 0.73650  0.60520  0.89050  Biso   1.000  H
  C81      1.0000 0.91300  0.10370  0.82170  Biso   1.000  C
  C82      1.0000 0.91300  0.60370  0.67830  Biso   1.000  C
  C83      1.0000 0.58700  0.10370  0.32170  Biso   1.000  C
  C84      1.0000 0.41300  0.39630  0.82170  Biso   1.000  C
  C85      1.0000 0.08700  0.89630  0.17830  Biso   1.000  C
  C86      1.0000 0.08700  0.39630  0.32170  Biso   1.000  C
  C87      1.0000 0.41300  0.89630  0.67830  Biso   1.000  C
  C88      1.0000 0.58700  0.60370  0.17830  Biso   1.000  C
  H49      1.0000 0.92760  0.13490  0.82810  Biso   1.000  H
  H50      1.0000 0.92760  0.63490  0.67190  Biso   1.000  H
  H51      1.0000 0.57240  0.13490  0.32810  Biso   1.000  H
  H52      1.0000 0.42760  0.36510  0.82810  Biso   1.000  H
  H53      1.0000 0.07240  0.86510  0.17190  Biso   1.000  H
  H54      1.0000 0.07240  0.36510  0.32810  Biso   1.000  H
  H55      1.0000 0.42760  0.86510  0.67190  Biso   1.000  H
  H56      1.0000 0.57240  0.63490  0.17190  Biso   1.000  H
  H57      1.0000 0.90390  0.10130  0.78320  Biso   1.000  H
  H58      1.0000 0.90390  0.60130  0.71680  Biso   1.000  H
  H59      1.0000 0.59610  0.10130  0.28320  Biso   1.000  H
  H60      1.0000 0.40390  0.39870  0.78320  Biso   1.000  H
  H61      1.0000 0.09610  0.89870  0.21680  Biso   1.000  H
  H62      1.0000 0.09610  0.39870  0.28320  Biso   1.000  H
  H63      1.0000 0.40390  0.89870  0.71680  Biso   1.000  H
  H64      1.0000 0.59610  0.60130  0.21680  Biso   1.000  H
  H65      1.0000 0.93460  0.07790  0.83030  Biso   1.000  H
  H66      1.0000 0.93460  0.57790  0.66970  Biso   1.000  H
  H67      1.0000 0.56540  0.07790  0.33030  Biso   1.000  H
  H68      1.0000 0.43460  0.42210  0.83030  Biso   1.000  H
  H69      1.0000 0.06540  0.92210  0.16970  Biso   1.000  H
  H70      1.0000 0.06540  0.42210  0.33030  Biso   1.000  H
  H71      1.0000 0.43460  0.92210  0.66970  Biso   1.000  H
  H72      1.0000 0.56540  0.57790  0.16970  Biso   1.000  H
  C89      1.0000 0.91230  0.15230  0.13150  Biso   1.000  C
  C90      1.0000 0.91230  0.65230  0.36850  Biso   1.000  C
  C91      1.0000 0.58770  0.15230  0.63150  Biso   1.000  C
  C92      1.0000 0.41230  0.34770  0.13150  Biso   1.000  C
  C93      1.0000 0.08770  0.84770  0.86850  Biso   1.000  C
  C94      1.0000 0.08770  0.34770  0.63150  Biso   1.000  C
  C95      1.0000 0.41230  0.84770  0.36850  Biso   1.000  C
  C96      1.0000 0.58770  0.65230  0.86850  Biso   1.000  C
  H73      1.0000 0.90620  0.14960  0.17080  Biso   1.000  H
  H74      1.0000 0.90620  0.64960  0.32920  Biso   1.000  H
  H75      1.0000 0.59380  0.14960  0.67080  Biso   1.000  H
  H76      1.0000 0.40620  0.35040  0.17080  Biso   1.000  H
  H77      1.0000 0.09380  0.85040  0.82920  Biso   1.000  H
  H78      1.0000 0.09380  0.35040  0.67080  Biso   1.000  H
  H79      1.0000 0.40620  0.85040  0.32920  Biso   1.000  H
  H80      1.0000 0.59380  0.64960  0.82920  Biso   1.000  H
  H81      1.0000 0.91800  0.18600  0.12210  Biso   1.000  H
  H82      1.0000 0.91800  0.68600  0.37790  Biso   1.000  H
  H83      1.0000 0.58200  0.18600  0.62210  Biso   1.000  H
  H84      1.0000 0.41800  0.31400  0.12210  Biso   1.000  H
  H85      1.0000 0.08200  0.81400  0.87790  Biso   1.000  H
  H86      1.0000 0.08200  0.31400  0.62210  Biso   1.000  H
  H87      1.0000 0.41800  0.81400  0.37790  Biso   1.000  H
  H88      1.0000 0.58200  0.68600  0.87790  Biso   1.000  H
  H89      1.0000 0.93920  0.13300  0.12220  Biso   1.000  H
  H90      1.0000 0.93920  0.63300  0.37780  Biso   1.000  H
  H91      1.0000 0.56080  0.13300  0.62220  Biso   1.000  H
  H92      1.0000 0.43920  0.36700  0.12220  Biso   1.000  H
  H93      1.0000 0.06080  0.86700  0.87780  Biso   1.000  H
  H94      1.0000 0.06080  0.36700  0.62220  Biso   1.000  H
  H95      1.0000 0.43920  0.86700  0.37780  Biso   1.000  H
  H96      1.0000 0.56080  0.63300  0.87780  Biso   1.000  H
  C97      1.0000 0.78370  0.95340  0.90980  Biso   1.000  C
  C98      1.0000 0.78370  0.45340  0.59020  Biso   1.000  C
  C99      1.0000 0.71630  0.95340  0.40980  Biso   1.000  C
  C100     1.0000 0.28370  0.54660  0.90980  Biso   1.000  C
  C101     1.0000 0.21630  0.04660  0.09020  Biso   1.000  C
  C102     1.0000 0.21630  0.54660  0.40980  Biso   1.000  C
  C103     1.0000 0.28370  0.04660  0.59020  Biso   1.000  C
  C104     1.0000 0.71630  0.45340  0.09020  Biso   1.000  C
  H97      1.0000 0.75410  0.94740  0.89580  Biso   1.000  H
  H98      1.0000 0.75410  0.44740  0.60420  Biso   1.000  H
  H99      1.0000 0.74590  0.94740  0.39580  Biso   1.000  H
  H100     1.0000 0.25410  0.55260  0.89580  Biso   1.000  H
  H101     1.0000 0.24590  0.05260  0.10420  Biso   1.000  H
  H102     1.0000 0.24590  0.55260  0.39580  Biso   1.000  H
  H103     1.0000 0.25410  0.05260  0.60420  Biso   1.000  H
  H104     1.0000 0.74590  0.44740  0.10420  Biso   1.000  H
  C105     1.0000 0.82090  0.94950  0.87400  Biso   1.000  C
  C106     1.0000 0.82090  0.44950  0.62600  Biso   1.000  C
  C107     1.0000 0.67910  0.94950  0.37400  Biso   1.000  C
  C108     1.0000 0.32090  0.55050  0.87400  Biso   1.000  C
  C109     1.0000 0.17910  0.05050  0.12600  Biso   1.000  C
  C110     1.0000 0.17910  0.55050  0.37400  Biso   1.000  C
  C111     1.0000 0.32090  0.05050  0.62600  Biso   1.000  C
  C112     1.0000 0.67910  0.44950  0.12600  Biso   1.000  C
  H105     1.0000 0.81610  0.94080  0.83690  Biso   1.000  H
  H106     1.0000 0.81610  0.44080  0.66310  Biso   1.000  H
  H107     1.0000 0.68390  0.94080  0.33690  Biso   1.000  H
  H108     1.0000 0.31610  0.55920  0.83690  Biso   1.000  H
  H109     1.0000 0.18390  0.05920  0.16310  Biso   1.000  H
  H110     1.0000 0.18390  0.55920  0.33690  Biso   1.000  H
  H111     1.0000 0.31610  0.05920  0.66310  Biso   1.000  H
  H112     1.0000 0.68390  0.44080  0.16310  Biso   1.000  H
  C113     1.0000 0.86670  0.95860  0.89340  Biso   1.000  C
  C114     1.0000 0.86670  0.45860  0.60660  Biso   1.000  C
  C115     1.0000 0.63330  0.95860  0.39340  Biso   1.000  C
  C116     1.0000 0.36670  0.54140  0.89340  Biso   1.000  C
  C117     1.0000 0.13330  0.04140  0.10660  Biso   1.000  C
  C118     1.0000 0.13330  0.54140  0.39340  Biso   1.000  C
  C119     1.0000 0.36670  0.04140  0.60660  Biso   1.000  C
  C120     1.0000 0.63330  0.45860  0.10660  Biso   1.000  C
  C121     1.0000 0.87130  0.96980  0.94880  Biso   1.000  C
  C122     1.0000 0.87130  0.46980  0.55120  Biso   1.000  C
  C123     1.0000 0.62870  0.96980  0.44880  Biso   1.000  C
  C124     1.0000 0.37130  0.53020  0.94880  Biso   1.000  C
  C125     1.0000 0.12870  0.03020  0.05120  Biso   1.000  C
  C126     1.0000 0.12870  0.53020  0.44880  Biso   1.000  C
  C127     1.0000 0.37130  0.03020  0.55120  Biso   1.000  C
  C128     1.0000 0.62870  0.46980  0.05120  Biso   1.000  C
  H113     1.0000 0.90050  0.97590  0.96410  Biso   1.000  H
  H114     1.0000 0.90050  0.47590  0.53590  Biso   1.000  H
  H115     1.0000 0.59950  0.97590  0.46410  Biso   1.000  H
  H116     1.0000 0.40050  0.52410  0.96410  Biso   1.000  H
  H117     1.0000 0.09950  0.02410  0.03590  Biso   1.000  H
  H118     1.0000 0.09950  0.52410  0.46410  Biso   1.000  H
  H119     1.0000 0.40050  0.02410  0.53590  Biso   1.000  H
  H120     1.0000 0.59950  0.47590  0.03590  Biso   1.000  H
  C129     1.0000 0.83160  0.97210  0.98200  Biso   1.000  C
  C130     1.0000 0.83160  0.47210  0.51800  Biso   1.000  C
  C131     1.0000 0.66840  0.97210  0.48200  Biso   1.000  C
  C132     1.0000 0.33160  0.52790  0.98200  Biso   1.000  C
  C133     1.0000 0.16840  0.02790  0.01800  Biso   1.000  C
  C134     1.0000 0.16840  0.52790  0.48200  Biso   1.000  C
  C135     1.0000 0.33160  0.02790  0.51800  Biso   1.000  C
  C136     1.0000 0.66840  0.47210  0.01800  Biso   1.000  C
  C137     1.0000 0.83460  0.98120  0.04380  Biso   1.000  C
  C138     1.0000 0.83460  0.48120  0.45620  Biso   1.000  C
  C139     1.0000 0.66540  0.98120  0.54380  Biso   1.000  C
  C140     1.0000 0.33460  0.51880  0.04380  Biso   1.000  C
  C141     1.0000 0.16540  0.01880  0.95620  Biso   1.000  C
  C142     1.0000 0.16540  0.51880  0.54380  Biso   1.000  C
  C143     1.0000 0.33460  0.01880  0.45620  Biso   1.000  C
  C144     1.0000 0.66540  0.48120  0.95620  Biso   1.000  C
  C145     1.0000 0.87380  0.99030  0.07200  Biso   1.000  C
  C146     1.0000 0.87380  0.49030  0.42800  Biso   1.000  C
  C147     1.0000 0.62620  0.99030  0.57200  Biso   1.000  C
  C148     1.0000 0.37380  0.50970  0.07200  Biso   1.000  C
  C149     1.0000 0.12620  0.00970  0.92800  Biso   1.000  C
  C150     1.0000 0.12620  0.50970  0.57200  Biso   1.000  C
  C151     1.0000 0.37380  0.00970  0.42800  Biso   1.000  C
  C152     1.0000 0.62620  0.49030  0.92800  Biso   1.000  C
  H121     1.0000 0.90170  0.99270  0.05260  Biso   1.000  H
  H122     1.0000 0.90170  0.49270  0.44740  Biso   1.000  H
  H123     1.0000 0.59830  0.99270  0.55260  Biso   1.000  H
  H124     1.0000 0.40170  0.50730  0.05260  Biso   1.000  H
  H125     1.0000 0.09830  0.00730  0.94740  Biso   1.000  H
  H126     1.0000 0.09830  0.50730  0.55260  Biso   1.000  H
  H127     1.0000 0.40170  0.00730  0.44740  Biso   1.000  H
  H128     1.0000 0.59830  0.49270  0.94740  Biso   1.000  H
  C153     1.0000 0.87370  0.99610  0.12900  Biso   1.000  C
  C154     1.0000 0.87370  0.49610  0.37100  Biso   1.000  C
  C155     1.0000 0.62630  0.99610  0.62900  Biso   1.000  C
  C156     1.0000 0.37370  0.50390  0.12900  Biso   1.000  C
  C157     1.0000 0.12630  0.00390  0.87100  Biso   1.000  C
  C158     1.0000 0.12630  0.50390  0.62900  Biso   1.000  C
  C159     1.0000 0.37370  0.00390  0.37100  Biso   1.000  C
  C160     1.0000 0.62630  0.49610  0.87100  Biso   1.000  C
  C161     1.0000 0.83050  0.98880  0.15510  Biso   1.000  C
  C162     1.0000 0.83050  0.48880  0.34490  Biso   1.000  C
  C163     1.0000 0.66950  0.98880  0.65510  Biso   1.000  C
  C164     1.0000 0.33050  0.51120  0.15510  Biso   1.000  C
  C165     1.0000 0.16950  0.01120  0.84490  Biso   1.000  C
  C166     1.0000 0.16950  0.51120  0.65510  Biso   1.000  C
  C167     1.0000 0.33050  0.01120  0.34490  Biso   1.000  C
  C168     1.0000 0.66950  0.48880  0.84490  Biso   1.000  C
  H129     1.0000 0.82920  0.98910  0.19390  Biso   1.000  H
  H130     1.0000 0.82920  0.48910  0.30610  Biso   1.000  H
  H131     1.0000 0.67080  0.98910  0.69390  Biso   1.000  H
  H132     1.0000 0.32920  0.51090  0.19390  Biso   1.000  H
  H133     1.0000 0.17080  0.01090  0.80610  Biso   1.000  H
  H134     1.0000 0.17080  0.51090  0.69390  Biso   1.000  H
  H135     1.0000 0.32920  0.01090  0.30610  Biso   1.000  H
  H136     1.0000 0.67080  0.48910  0.80610  Biso   1.000  H
  C169     1.0000 0.79040  0.98150  0.12590  Biso   1.000  C
  C170     1.0000 0.79040  0.48150  0.37410  Biso   1.000  C
  C171     1.0000 0.70960  0.98150  0.62590  Biso   1.000  C
  C172     1.0000 0.29040  0.51850  0.12590  Biso   1.000  C
  C173     1.0000 0.20960  0.01850  0.87410  Biso   1.000  C
  C174     1.0000 0.20960  0.51850  0.62590  Biso   1.000  C
  C175     1.0000 0.29040  0.01850  0.37410  Biso   1.000  C
  C176     1.0000 0.70960  0.48150  0.87410  Biso   1.000  C
  H137     1.0000 0.76210  0.97910  0.14450  Biso   1.000  H
  H138     1.0000 0.76210  0.47910  0.35550  Biso   1.000  H
  H139     1.0000 0.73790  0.97910  0.64450  Biso   1.000  H
  H140     1.0000 0.26210  0.52090  0.14450  Biso   1.000  H
  H141     1.0000 0.23790  0.02090  0.85550  Biso   1.000  H
  H142     1.0000 0.23790  0.52090  0.64450  Biso   1.000  H
  H143     1.0000 0.26210  0.02090  0.35550  Biso   1.000  H
  H144     1.0000 0.73790  0.47910  0.85550  Biso   1.000  H
  C177     1.0000 0.90630  0.95510  0.85560  Biso   1.000  C
  C178     1.0000 0.90630  0.45510  0.64440  Biso   1.000  C
  C179     1.0000 0.59370  0.95510  0.35560  Biso   1.000  C
  C180     1.0000 0.40630  0.54490  0.85560  Biso   1.000  C
  C181     1.0000 0.09370  0.04490  0.14440  Biso   1.000  C
  C182     1.0000 0.09370  0.54490  0.35560  Biso   1.000  C
  C183     1.0000 0.40630  0.04490  0.64440  Biso   1.000  C
  C184     1.0000 0.59370  0.45510  0.14440  Biso   1.000  C
  H145     1.0000 0.89780  0.96800  0.81970  Biso   1.000  H
  H146     1.0000 0.89780  0.46800  0.68030  Biso   1.000  H
  H147     1.0000 0.60220  0.96800  0.31970  Biso   1.000  H
  H148     1.0000 0.39780  0.53200  0.81970  Biso   1.000  H
  H149     1.0000 0.10220  0.03200  0.18030  Biso   1.000  H
  H150     1.0000 0.10220  0.53200  0.31970  Biso   1.000  H
  H151     1.0000 0.39780  0.03200  0.68030  Biso   1.000  H
  H152     1.0000 0.60220  0.46800  0.18030  Biso   1.000  H
  H153     1.0000 0.91530  0.92140  0.85170  Biso   1.000  H
  H154     1.0000 0.91530  0.42140  0.64830  Biso   1.000  H
  H155     1.0000 0.58470  0.92140  0.35170  Biso   1.000  H
  H156     1.0000 0.41530  0.57860  0.85170  Biso   1.000  H
  H157     1.0000 0.08470  0.07860  0.14830  Biso   1.000  H
  H158     1.0000 0.08470  0.57860  0.35170  Biso   1.000  H
  H159     1.0000 0.41530  0.07860  0.64830  Biso   1.000  H
  H160     1.0000 0.58470  0.42140  0.14830  Biso   1.000  H
  H161     1.0000 0.93190  0.97370  0.87040  Biso   1.000  H
  H162     1.0000 0.93190  0.47370  0.62960  Biso   1.000  H
  H163     1.0000 0.56810  0.97370  0.37040  Biso   1.000  H
  H164     1.0000 0.43190  0.52630  0.87040  Biso   1.000  H
  H165     1.0000 0.06810  0.02630  0.12960  Biso   1.000  H
  H166     1.0000 0.06810  0.52630  0.37040  Biso   1.000  H
  H167     1.0000 0.43190  0.02630  0.62960  Biso   1.000  H
  H168     1.0000 0.56810  0.47370  0.12960  Biso   1.000  H
  C185     1.0000 0.91550  0.00600  0.16290  Biso   1.000  C
  C186     1.0000 0.91550  0.50600  0.33710  Biso   1.000  C
  C187     1.0000 0.58450  0.00600  0.66290  Biso   1.000  C
  C188     1.0000 0.41550  0.49400  0.16290  Biso   1.000  C
  C189     1.0000 0.08450  0.99400  0.83710  Biso   1.000  C
  C190     1.0000 0.08450  0.49400  0.66290  Biso   1.000  C
  C191     1.0000 0.41550  0.99400  0.33710  Biso   1.000  C
  C192     1.0000 0.58450  0.50600  0.83710  Biso   1.000  C
  H169     1.0000 0.94260  0.00540  0.13940  Biso   1.000  H
  H170     1.0000 0.94260  0.50540  0.36060  Biso   1.000  H
  H171     1.0000 0.55740  0.00540  0.63940  Biso   1.000  H
  H172     1.0000 0.44260  0.49460  0.13940  Biso   1.000  H
  H173     1.0000 0.05740  0.99460  0.86060  Biso   1.000  H
  H174     1.0000 0.05740  0.49460  0.63940  Biso   1.000  H
  H175     1.0000 0.44260  0.99460  0.36060  Biso   1.000  H
  H176     1.0000 0.55740  0.50540  0.86060  Biso   1.000  H
  H177     1.0000 0.91850  0.98130  0.19130  Biso   1.000  H
  H178     1.0000 0.91850  0.48130  0.30870  Biso   1.000  H
  H179     1.0000 0.58150  0.98130  0.69130  Biso   1.000  H
  H180     1.0000 0.41850  0.51870  0.19130  Biso   1.000  H
  H181     1.0000 0.08150  0.01870  0.80870  Biso   1.000  H
  H182     1.0000 0.08150  0.51870  0.69130  Biso   1.000  H
  H183     1.0000 0.41850  0.01870  0.30870  Biso   1.000  H
  H184     1.0000 0.58150  0.48130  0.80870  Biso   1.000  H
  H185     1.0000 0.91280  0.03760  0.18020  Biso   1.000  H
  H186     1.0000 0.91280  0.53760  0.31980  Biso   1.000  H
  H187     1.0000 0.58720  0.03760  0.68020  Biso   1.000  H
  H188     1.0000 0.41280  0.46240  0.18020  Biso   1.000  H
  H189     1.0000 0.08720  0.96240  0.81980  Biso   1.000  H
  H190     1.0000 0.08720  0.46240  0.68020  Biso   1.000  H
  H191     1.0000 0.41280  0.96240  0.31980  Biso   1.000  H
  H192     1.0000 0.58720  0.53760  0.81980  Biso   1.000  H
  C193     1.0000 0.66320  0.32010  0.09260  Biso   1.000  C
  C194     1.0000 0.66320  0.82010  0.40740  Biso   1.000  C
  C195     1.0000 0.83680  0.32010  0.59260  Biso   1.000  C
  C196     1.0000 0.16320  0.17990  0.09260  Biso   1.000  C
  C197     1.0000 0.33680  0.67990  0.90740  Biso   1.000  C
  C198     1.0000 0.33680  0.17990  0.59260  Biso   1.000  C
  C199     1.0000 0.16320  0.67990  0.40740  Biso   1.000  C
  C200     1.0000 0.83680  0.82010  0.90740  Biso   1.000  C
  H193     1.0000 0.68850  0.31430  0.11590  Biso   1.000  H
  H194     1.0000 0.68850  0.81430  0.38410  Biso   1.000  H
  H195     1.0000 0.81150  0.31430  0.61590  Biso   1.000  H
  H196     1.0000 0.18850  0.18570  0.11590  Biso   1.000  H
  H197     1.0000 0.31150  0.68570  0.88410  Biso   1.000  H
  H198     1.0000 0.31150  0.18570  0.61590  Biso   1.000  H
  H199     1.0000 0.18850  0.68570  0.38410  Biso   1.000  H
  H200     1.0000 0.81150  0.81430  0.88410  Biso   1.000  H
  C201     1.0000 0.61970  0.32000  0.11470  Biso   1.000  C
  C202     1.0000 0.61970  0.82000  0.38530  Biso   1.000  C
  C203     1.0000 0.88030  0.32000  0.61470  Biso   1.000  C
  C204     1.0000 0.11970  0.18000  0.11470  Biso   1.000  C
  C205     1.0000 0.38030  0.68000  0.88530  Biso   1.000  C
  C206     1.0000 0.38030  0.18000  0.61470  Biso   1.000  C
  C207     1.0000 0.11970  0.68000  0.38530  Biso   1.000  C
  C208     1.0000 0.88030  0.82000  0.88530  Biso   1.000  C
  H201     1.0000 0.61660  0.31580  0.15310  Biso   1.000  H
  H202     1.0000 0.61660  0.81580  0.34690  Biso   1.000  H
  H203     1.0000 0.88340  0.31580  0.65310  Biso   1.000  H
  H204     1.0000 0.11660  0.18420  0.15310  Biso   1.000  H
  H205     1.0000 0.38340  0.68420  0.84690  Biso   1.000  H
  H206     1.0000 0.38340  0.18420  0.65310  Biso   1.000  H
  H207     1.0000 0.11660  0.68420  0.34690  Biso   1.000  H
  H208     1.0000 0.88340  0.81580  0.84690  Biso   1.000  H
  C209     1.0000 0.57900  0.32590  0.08290  Biso   1.000  C
  C210     1.0000 0.57900  0.82590  0.41710  Biso   1.000  C
  C211     1.0000 0.92100  0.32590  0.58290  Biso   1.000  C
  C212     1.0000 0.07900  0.17410  0.08290  Biso   1.000  C
  C213     1.0000 0.42100  0.67410  0.91710  Biso   1.000  C
  C214     1.0000 0.42100  0.17410  0.58290  Biso   1.000  C
  C215     1.0000 0.07900  0.67410  0.41710  Biso   1.000  C
  C216     1.0000 0.92100  0.82590  0.91710  Biso   1.000  C
  C217     1.0000 0.58790  0.33460  0.02690  Biso   1.000  C
  C218     1.0000 0.58790  0.83460  0.47310  Biso   1.000  C
  C219     1.0000 0.91210  0.33460  0.52690  Biso   1.000  C
  C220     1.0000 0.08790  0.16540  0.02690  Biso   1.000  C
  C221     1.0000 0.41210  0.66540  0.97310  Biso   1.000  C
  C222     1.0000 0.41210  0.16540  0.52690  Biso   1.000  C
  C223     1.0000 0.08790  0.66540  0.47310  Biso   1.000  C
  C224     1.0000 0.91210  0.83460  0.97310  Biso   1.000  C
  H209     1.0000 0.56310  0.34020  0.00290  Biso   1.000  H
  H210     1.0000 0.56310  0.84020  0.49710  Biso   1.000  H
  H211     1.0000 0.93690  0.34020  0.50290  Biso   1.000  H
  H212     1.0000 0.06310  0.15980  0.00290  Biso   1.000  H
  H213     1.0000 0.43690  0.65980  0.99710  Biso   1.000  H
  H214     1.0000 0.43690  0.15980  0.50290  Biso   1.000  H
  H215     1.0000 0.06310  0.65980  0.49710  Biso   1.000  H
  H216     1.0000 0.93690  0.84020  0.99710  Biso   1.000  H
  C225     1.0000 0.63220  0.33500  0.00580  Biso   1.000  C
  C226     1.0000 0.63220  0.83500  0.49420  Biso   1.000  C
  C227     1.0000 0.86780  0.33500  0.50580  Biso   1.000  C
  C228     1.0000 0.13220  0.16500  0.00580  Biso   1.000  C
  C229     1.0000 0.36780  0.66500  0.99420  Biso   1.000  C
  C230     1.0000 0.36780  0.16500  0.50580  Biso   1.000  C
  C231     1.0000 0.13220  0.66500  0.49420  Biso   1.000  C
  C232     1.0000 0.86780  0.83500  0.99420  Biso   1.000  C
  C233     1.0000 0.64440  0.34360  0.94610  Biso   1.000  C
  C234     1.0000 0.64440  0.84360  0.55390  Biso   1.000  C
  C235     1.0000 0.85560  0.34360  0.44610  Biso   1.000  C
  C236     1.0000 0.14440  0.15640  0.94610  Biso   1.000  C
  C237     1.0000 0.35560  0.65640  0.05390  Biso   1.000  C
  C238     1.0000 0.35560  0.15640  0.44610  Biso   1.000  C
  C239     1.0000 0.14440  0.65640  0.55390  Biso   1.000  C
  C240     1.0000 0.85560  0.84360  0.05390  Biso   1.000  C
  C241     1.0000 0.61170  0.35180  0.90430  Biso   1.000  C
  C242     1.0000 0.61170  0.85180  0.59570  Biso   1.000  C
  C243     1.0000 0.88830  0.35180  0.40430  Biso   1.000  C
  C244     1.0000 0.11170  0.14820  0.90430  Biso   1.000  C
  C245     1.0000 0.38830  0.64820  0.09570  Biso   1.000  C
  C246     1.0000 0.38830  0.14820  0.40430  Biso   1.000  C
  C247     1.0000 0.11170  0.64820  0.59570  Biso   1.000  C
  C248     1.0000 0.88830  0.85180  0.09570  Biso   1.000  C
  H217     1.0000 0.58020  0.35430  0.91270  Biso   1.000  H
  H218     1.0000 0.58020  0.85430  0.58730  Biso   1.000  H
  H219     1.0000 0.91980  0.35430  0.41270  Biso   1.000  H
  H220     1.0000 0.08020  0.14570  0.91270  Biso   1.000  H
  H221     1.0000 0.41980  0.64570  0.08730  Biso   1.000  H
  H222     1.0000 0.41980  0.14570  0.41270  Biso   1.000  H
  H223     1.0000 0.08020  0.64570  0.58730  Biso   1.000  H
  H224     1.0000 0.91980  0.85430  0.08730  Biso   1.000  H
  C249     1.0000 0.62770  0.35620  0.84910  Biso   1.000  C
  C250     1.0000 0.62770  0.85620  0.65090  Biso   1.000  C
  C251     1.0000 0.87230  0.35620  0.34910  Biso   1.000  C
  C252     1.0000 0.12770  0.14380  0.84910  Biso   1.000  C
  C253     1.0000 0.37230  0.64380  0.15090  Biso   1.000  C
  C254     1.0000 0.37230  0.14380  0.34910  Biso   1.000  C
  C255     1.0000 0.12770  0.64380  0.65090  Biso   1.000  C
  C256     1.0000 0.87230  0.85620  0.15090  Biso   1.000  C
  C257     1.0000 0.67300  0.35360  0.83920  Biso   1.000  C
  C258     1.0000 0.67300  0.85360  0.66080  Biso   1.000  C
  C259     1.0000 0.82700  0.35360  0.33920  Biso   1.000  C
  C260     1.0000 0.17300  0.14640  0.83920  Biso   1.000  C
  C261     1.0000 0.32700  0.64640  0.16080  Biso   1.000  C
  C262     1.0000 0.32700  0.14640  0.33920  Biso   1.000  C
  C263     1.0000 0.17300  0.64640  0.66080  Biso   1.000  C
  C264     1.0000 0.82700  0.85360  0.16080  Biso   1.000  C
  H225     1.0000 0.68400  0.35770  0.80300  Biso   1.000  H
  H226     1.0000 0.68400  0.85770  0.69700  Biso   1.000  H
  H227     1.0000 0.81600  0.35770  0.30300  Biso   1.000  H
  H228     1.0000 0.18400  0.14230  0.80300  Biso   1.000  H
  H229     1.0000 0.31600  0.64230  0.19700  Biso   1.000  H
  H230     1.0000 0.31600  0.14230  0.30300  Biso   1.000  H
  H231     1.0000 0.18400  0.64230  0.69700  Biso   1.000  H
  H232     1.0000 0.81600  0.85770  0.19700  Biso   1.000  H
  C265     1.0000 0.70450  0.34460  0.88280  Biso   1.000  C
  C266     1.0000 0.70450  0.84460  0.61720  Biso   1.000  C
  C267     1.0000 0.79550  0.34460  0.38280  Biso   1.000  C
  C268     1.0000 0.20450  0.15540  0.88280  Biso   1.000  C
  C269     1.0000 0.29550  0.65540  0.11720  Biso   1.000  C
  C270     1.0000 0.29550  0.15540  0.38280  Biso   1.000  C
  C271     1.0000 0.20450  0.65540  0.61720  Biso   1.000  C
  C272     1.0000 0.79550  0.84460  0.11720  Biso   1.000  C
  H233     1.0000 0.73610  0.34250  0.87480  Biso   1.000  H
  H234     1.0000 0.73610  0.84250  0.62520  Biso   1.000  H
  H235     1.0000 0.76390  0.34250  0.37480  Biso   1.000  H
  H236     1.0000 0.23610  0.15750  0.87480  Biso   1.000  H
  H237     1.0000 0.26390  0.65750  0.12520  Biso   1.000  H
  H238     1.0000 0.26390  0.15750  0.37480  Biso   1.000  H
  H239     1.0000 0.23610  0.65750  0.62520  Biso   1.000  H
  H240     1.0000 0.76390  0.84250  0.12520  Biso   1.000  H
  C273     1.0000 0.53190  0.32380  0.10460  Biso   1.000  C
  C274     1.0000 0.53190  0.82380  0.39540  Biso   1.000  C
  C275     1.0000 0.96810  0.32380  0.60460  Biso   1.000  C
  C276     1.0000 0.03190  0.17620  0.10460  Biso   1.000  C
  C277     1.0000 0.46810  0.67620  0.89540  Biso   1.000  C
  C278     1.0000 0.46810  0.17620  0.60460  Biso   1.000  C
  C279     1.0000 0.03190  0.67620  0.39540  Biso   1.000  C
  C280     1.0000 0.96810  0.82380  0.89540  Biso   1.000  C
  H241     1.0000 0.51820  0.29280  0.09520  Biso   1.000  H
  H242     1.0000 0.51820  0.79280  0.40480  Biso   1.000  H
  H243     1.0000 0.98180  0.29280  0.59520  Biso   1.000  H
  H244     1.0000 0.01820  0.20720  0.09520  Biso   1.000  H
  H245     1.0000 0.48180  0.70720  0.90480  Biso   1.000  H
  H246     1.0000 0.48180  0.20720  0.59520  Biso   1.000  H
  H247     1.0000 0.01820  0.70720  0.40480  Biso   1.000  H
  H248     1.0000 0.98180  0.79280  0.90480  Biso   1.000  H
  H249     1.0000 0.51370  0.34980  0.08850  Biso   1.000  H
  H250     1.0000 0.51370  0.84980  0.41150  Biso   1.000  H
  H251     1.0000 0.98630  0.34980  0.58850  Biso   1.000  H
  H252     1.0000 0.01370  0.15020  0.08850  Biso   1.000  H
  H253     1.0000 0.48630  0.65020  0.91150  Biso   1.000  H
  H254     1.0000 0.48630  0.15020  0.58850  Biso   1.000  H
  H255     1.0000 0.01370  0.65020  0.41150  Biso   1.000  H
  H256     1.0000 0.98630  0.84980  0.91150  Biso   1.000  H
  H257     1.0000 0.53250  0.32750  0.14440  Biso   1.000  H
  H258     1.0000 0.53250  0.82750  0.35560  Biso   1.000  H
  H259     1.0000 0.96750  0.32750  0.64440  Biso   1.000  H
  H260     1.0000 0.03250  0.17250  0.14440  Biso   1.000  H
  H261     1.0000 0.46750  0.67250  0.85560  Biso   1.000  H
  H262     1.0000 0.46750  0.17250  0.64440  Biso   1.000  H
  H263     1.0000 0.03250  0.67250  0.35560  Biso   1.000  H
  H264     1.0000 0.96750  0.82750  0.85560  Biso   1.000  H
  C281     1.0000 0.59000  0.36480  0.80380  Biso   1.000  C
  C282     1.0000 0.59000  0.86480  0.69620  Biso   1.000  C
  C283     1.0000 0.91000  0.36480  0.30380  Biso   1.000  C
  C284     1.0000 0.09000  0.13520  0.80380  Biso   1.000  C
  C285     1.0000 0.41000  0.63520  0.19620  Biso   1.000  C
  C286     1.0000 0.41000  0.13520  0.30380  Biso   1.000  C
  C287     1.0000 0.09000  0.63520  0.69620  Biso   1.000  C
  C288     1.0000 0.91000  0.86480  0.19620  Biso   1.000  C
  H265     1.0000 0.56200  0.37670  0.82110  Biso   1.000  H
  H266     1.0000 0.56200  0.87670  0.67890  Biso   1.000  H
  H267     1.0000 0.93800  0.37670  0.32110  Biso   1.000  H
  H268     1.0000 0.06200  0.12330  0.82110  Biso   1.000  H
  H269     1.0000 0.43800  0.62330  0.17890  Biso   1.000  H
  H270     1.0000 0.43800  0.12330  0.32110  Biso   1.000  H
  H271     1.0000 0.06200  0.62330  0.67890  Biso   1.000  H
  H272     1.0000 0.93800  0.87670  0.17890  Biso   1.000  H
  H273     1.0000 0.58360  0.33450  0.78480  Biso   1.000  H
  H274     1.0000 0.58360  0.83450  0.71520  Biso   1.000  H
  H275     1.0000 0.91640  0.33450  0.28480  Biso   1.000  H
  H276     1.0000 0.08360  0.16550  0.78480  Biso   1.000  H
  H277     1.0000 0.41640  0.66550  0.21520  Biso   1.000  H
  H278     1.0000 0.41640  0.16550  0.28480  Biso   1.000  H
  H279     1.0000 0.08360  0.66550  0.71520  Biso   1.000  H
  H280     1.0000 0.91640  0.83450  0.21520  Biso   1.000  H
  H281     1.0000 0.60100  0.38860  0.77740  Biso   1.000  H
  H282     1.0000 0.60100  0.88860  0.72260  Biso   1.000  H
  H283     1.0000 0.89900  0.38860  0.27740  Biso   1.000  H
  H284     1.0000 0.10100  0.11140  0.77740  Biso   1.000  H
  H285     1.0000 0.39900  0.61140  0.22260  Biso   1.000  H
  H286     1.0000 0.39900  0.11140  0.27740  Biso   1.000  H
  H287     1.0000 0.10100  0.61140  0.72260  Biso   1.000  H
  H288     1.0000 0.89900  0.88860  0.22260  Biso   1.000  H
  C289     1.0000 0.89850  0.23900  0.98260  Biso   1.000  C
  C290     1.0000 0.89850  0.73900  0.51740  Biso   1.000  C
  C291     1.0000 0.60150  0.23900  0.48260  Biso   1.000  C
  C292     1.0000 0.39850  0.26100  0.98260  Biso   1.000  C
  C293     1.0000 0.10150  0.76100  0.01740  Biso   1.000  C
  C294     1.0000 0.10150  0.26100  0.48260  Biso   1.000  C
  C295     1.0000 0.39850  0.76100  0.51740  Biso   1.000  C
  C296     1.0000 0.60150  0.73900  0.01740  Biso   1.000  C
  H289     1.0000 0.89120  0.24150  0.02040  Biso   1.000  H
  H290     1.0000 0.89120  0.74150  0.47960  Biso   1.000  H
  H291     1.0000 0.60880  0.24150  0.52040  Biso   1.000  H
  H292     1.0000 0.39120  0.25850  0.02040  Biso   1.000  H
  H293     1.0000 0.10880  0.75850  0.97960  Biso   1.000  H
  H294     1.0000 0.10880  0.25850  0.52040  Biso   1.000  H
  H295     1.0000 0.39120  0.75850  0.47960  Biso   1.000  H
  H296     1.0000 0.60880  0.74150  0.97960  Biso   1.000  H
  C297     1.0000 0.94470  0.24010  0.96740  Biso   1.000  C
  C298     1.0000 0.94470  0.74010  0.53260  Biso   1.000  C
  C299     1.0000 0.55530  0.24010  0.46740  Biso   1.000  C
  C300     1.0000 0.44470  0.25990  0.96740  Biso   1.000  C
  C301     1.0000 0.05530  0.75990  0.03260  Biso   1.000  C
  C302     1.0000 0.05530  0.25990  0.46740  Biso   1.000  C
  C303     1.0000 0.44470  0.75990  0.53260  Biso   1.000  C
  C304     1.0000 0.55530  0.74010  0.03260  Biso   1.000  C
  H297     1.0000 0.96740  0.24360  0.99470  Biso   1.000  H
  H298     1.0000 0.96740  0.74360  0.50530  Biso   1.000  H
  H299     1.0000 0.53260  0.24360  0.49470  Biso   1.000  H
  H300     1.0000 0.46740  0.25640  0.99470  Biso   1.000  H
  H301     1.0000 0.03260  0.75640  0.00530  Biso   1.000  H
  H302     1.0000 0.03260  0.25640  0.49470  Biso   1.000  H
  H303     1.0000 0.46740  0.75640  0.50530  Biso   1.000  H
  H304     1.0000 0.53260  0.74360  0.00530  Biso   1.000  H
  C305     1.0000 0.95740  0.23620  0.91300  Biso   1.000  C
  C306     1.0000 0.95740  0.73620  0.58700  Biso   1.000  C
  C307     1.0000 0.54260  0.23620  0.41300  Biso   1.000  C
  C308     1.0000 0.45740  0.26380  0.91300  Biso   1.000  C
  C309     1.0000 0.04260  0.76380  0.08700  Biso   1.000  C
  C310     1.0000 0.04260  0.26380  0.41300  Biso   1.000  C
  C311     1.0000 0.45740  0.76380  0.58700  Biso   1.000  C
  C312     1.0000 0.54260  0.73620  0.08700  Biso   1.000  C
  C313     1.0000 0.92210  0.23150  0.87590  Biso   1.000  C
  C314     1.0000 0.92210  0.73150  0.62410  Biso   1.000  C
  C315     1.0000 0.57790  0.23150  0.37590  Biso   1.000  C
  C316     1.0000 0.42210  0.26850  0.87590  Biso   1.000  C
  C317     1.0000 0.07790  0.76850  0.12410  Biso   1.000  C
  C318     1.0000 0.07790  0.26850  0.37590  Biso   1.000  C
  C319     1.0000 0.42210  0.76850  0.62410  Biso   1.000  C
  C320     1.0000 0.57790  0.73150  0.12410  Biso   1.000  C
  H305     1.0000 0.92940  0.22860  0.83820  Biso   1.000  H
  H306     1.0000 0.92940  0.72860  0.66180  Biso   1.000  H
  H307     1.0000 0.57060  0.22860  0.33820  Biso   1.000  H
  H308     1.0000 0.42940  0.27140  0.83820  Biso   1.000  H
  H309     1.0000 0.07060  0.77140  0.16180  Biso   1.000  H
  H310     1.0000 0.07060  0.27140  0.33820  Biso   1.000  H
  H311     1.0000 0.42940  0.77140  0.66180  Biso   1.000  H
  H312     1.0000 0.57060  0.72860  0.16180  Biso   1.000  H
  C321     1.0000 0.87560  0.23100  0.89160  Biso   1.000  C
  C322     1.0000 0.87560  0.73100  0.60840  Biso   1.000  C
  C323     1.0000 0.62440  0.23100  0.39160  Biso   1.000  C
  C324     1.0000 0.37560  0.26900  0.89160  Biso   1.000  C
  C325     1.0000 0.12440  0.76900  0.10840  Biso   1.000  C
  C326     1.0000 0.12440  0.26900  0.39160  Biso   1.000  C
  C327     1.0000 0.37560  0.76900  0.60840  Biso   1.000  C
  C328     1.0000 0.62440  0.73100  0.10840  Biso   1.000  C
  C329     1.0000 0.83620  0.22400  0.85280  Biso   1.000  C
  C330     1.0000 0.83620  0.72400  0.64720  Biso   1.000  C
  C331     1.0000 0.66380  0.22400  0.35280  Biso   1.000  C
  C332     1.0000 0.33620  0.27600  0.85280  Biso   1.000  C
  C333     1.0000 0.16380  0.77600  0.14720  Biso   1.000  C
  C334     1.0000 0.16380  0.27600  0.35280  Biso   1.000  C
  C335     1.0000 0.33620  0.77600  0.64720  Biso   1.000  C
  C336     1.0000 0.66380  0.72400  0.14720  Biso   1.000  C
  C337     1.0000 0.83910  0.21590  0.79590  Biso   1.000  C
  C338     1.0000 0.83910  0.71590  0.70410  Biso   1.000  C
  C339     1.0000 0.66090  0.21590  0.29590  Biso   1.000  C
  C340     1.0000 0.33910  0.28410  0.79590  Biso   1.000  C
  C341     1.0000 0.16090  0.78410  0.20410  Biso   1.000  C
  C342     1.0000 0.16090  0.28410  0.29590  Biso   1.000  C
  C343     1.0000 0.33910  0.78410  0.70410  Biso   1.000  C
  C344     1.0000 0.66090  0.71590  0.20410  Biso   1.000  C
  H313     1.0000 0.86820  0.21500  0.77890  Biso   1.000  H
  H314     1.0000 0.86820  0.71500  0.72110  Biso   1.000  H
  H315     1.0000 0.63180  0.21500  0.27890  Biso   1.000  H
  H316     1.0000 0.36820  0.28500  0.77890  Biso   1.000  H
  H317     1.0000 0.13180  0.78500  0.22110  Biso   1.000  H
  H318     1.0000 0.13180  0.28500  0.27890  Biso   1.000  H
  H319     1.0000 0.36820  0.78500  0.72110  Biso   1.000  H
  H320     1.0000 0.63180  0.71500  0.22110  Biso   1.000  H
  C345     1.0000 0.79990  0.20910  0.76410  Biso   1.000  C
  C346     1.0000 0.79990  0.70910  0.73590  Biso   1.000  C
  C347     1.0000 0.70010  0.20910  0.26410  Biso   1.000  C
  C348     1.0000 0.29990  0.29090  0.76410  Biso   1.000  C
  C349     1.0000 0.20010  0.79090  0.23590  Biso   1.000  C
  C350     1.0000 0.20010  0.29090  0.26410  Biso   1.000  C
  C351     1.0000 0.29990  0.79090  0.73590  Biso   1.000  C
  C352     1.0000 0.70010  0.70910  0.23590  Biso   1.000  C
  C353     1.0000 0.75890  0.21120  0.79020  Biso   1.000  C
  C354     1.0000 0.75890  0.71120  0.70980  Biso   1.000  C
  C355     1.0000 0.74110  0.21120  0.29020  Biso   1.000  C
  C356     1.0000 0.25890  0.28880  0.79020  Biso   1.000  C
  C357     1.0000 0.24110  0.78880  0.20980  Biso   1.000  C
  C358     1.0000 0.24110  0.28880  0.29020  Biso   1.000  C
  C359     1.0000 0.25890  0.78880  0.70980  Biso   1.000  C
  C360     1.0000 0.74110  0.71120  0.20980  Biso   1.000  C
  H321     1.0000 0.73170  0.20690  0.76990  Biso   1.000  H
  H322     1.0000 0.73170  0.70690  0.73010  Biso   1.000  H
  H323     1.0000 0.76830  0.20690  0.26990  Biso   1.000  H
  H324     1.0000 0.23170  0.29310  0.76990  Biso   1.000  H
  H325     1.0000 0.26830  0.79310  0.23010  Biso   1.000  H
  H326     1.0000 0.26830  0.29310  0.26990  Biso   1.000  H
  H327     1.0000 0.23170  0.79310  0.73010  Biso   1.000  H
  H328     1.0000 0.76830  0.70690  0.23010  Biso   1.000  H
  C361     1.0000 0.75640  0.21950  0.84690  Biso   1.000  C
  C362     1.0000 0.75640  0.71950  0.65310  Biso   1.000  C
  C363     1.0000 0.74360  0.21950  0.34690  Biso   1.000  C
  C364     1.0000 0.25640  0.28050  0.84690  Biso   1.000  C
  C365     1.0000 0.24360  0.78050  0.15310  Biso   1.000  C
  C366     1.0000 0.24360  0.28050  0.34690  Biso   1.000  C
  C367     1.0000 0.25640  0.78050  0.65310  Biso   1.000  C
  C368     1.0000 0.74360  0.71950  0.15310  Biso   1.000  C
  H329     1.0000 0.72730  0.22130  0.86370  Biso   1.000  H
  H330     1.0000 0.72730  0.72130  0.63630  Biso   1.000  H
  H331     1.0000 0.77270  0.22130  0.36370  Biso   1.000  H
  H332     1.0000 0.22730  0.27870  0.86370  Biso   1.000  H
  H333     1.0000 0.27270  0.77870  0.13630  Biso   1.000  H
  H334     1.0000 0.27270  0.27870  0.36370  Biso   1.000  H
  H335     1.0000 0.22730  0.77870  0.63630  Biso   1.000  H
  H336     1.0000 0.77270  0.72130  0.13630  Biso   1.000  H
  C369     1.0000 0.00620  0.23820  0.89690  Biso   1.000  C
  C370     1.0000 0.00620  0.73820  0.60310  Biso   1.000  C
  C371     1.0000 0.49380  0.23820  0.39690  Biso   1.000  C
  C372     1.0000 0.50620  0.26180  0.89690  Biso   1.000  C
  C373     1.0000 0.99380  0.76180  0.10310  Biso   1.000  C
  C374     1.0000 0.99380  0.26180  0.39690  Biso   1.000  C
  C375     1.0000 0.50620  0.76180  0.60310  Biso   1.000  C
  C376     1.0000 0.49380  0.73820  0.10310  Biso   1.000  C
  H337     1.0000 0.01370  0.21010  0.87450  Biso   1.000  H
  H338     1.0000 0.01370  0.71010  0.62550  Biso   1.000  H
  H339     1.0000 0.48630  0.21010  0.37450  Biso   1.000  H
  H340     1.0000 0.51370  0.28990  0.87450  Biso   1.000  H
  H341     1.0000 0.98630  0.78990  0.12550  Biso   1.000  H
  H342     1.0000 0.98630  0.28990  0.37450  Biso   1.000  H
  H343     1.0000 0.51370  0.78990  0.62550  Biso   1.000  H
  H344     1.0000 0.48630  0.71010  0.12550  Biso   1.000  H
  H345     1.0000 0.02530  0.23820  0.92990  Biso   1.000  H
  H346     1.0000 0.02530  0.73820  0.57010  Biso   1.000  H
  H347     1.0000 0.47470  0.23820  0.42990  Biso   1.000  H
  H348     1.0000 0.52530  0.26180  0.92990  Biso   1.000  H
  H349     1.0000 0.97470  0.76180  0.07010  Biso   1.000  H
  H350     1.0000 0.97470  0.26180  0.42990  Biso   1.000  H
  H351     1.0000 0.52530  0.76180  0.57010  Biso   1.000  H
  H352     1.0000 0.47470  0.73820  0.07010  Biso   1.000  H
  H353     1.0000 0.01190  0.26750  0.87590  Biso   1.000  H
  H354     1.0000 0.01190  0.76750  0.62410  Biso   1.000  H
  H355     1.0000 0.48810  0.26750  0.37590  Biso   1.000  H
  H356     1.0000 0.51190  0.23250  0.87590  Biso   1.000  H
  H357     1.0000 0.98810  0.73250  0.12410  Biso   1.000  H
  H358     1.0000 0.98810  0.23250  0.37590  Biso   1.000  H
  H359     1.0000 0.51190  0.73250  0.62410  Biso   1.000  H
  H360     1.0000 0.48810  0.76750  0.12410  Biso   1.000  H
  C377     1.0000 0.80450  0.20090  0.70120  Biso   1.000  C
  C378     1.0000 0.80450  0.70090  0.79880  Biso   1.000  C
  C379     1.0000 0.69550  0.20090  0.20120  Biso   1.000  C
  C380     1.0000 0.30450  0.29910  0.70120  Biso   1.000  C
  C381     1.0000 0.19550  0.79910  0.29880  Biso   1.000  C
  C382     1.0000 0.19550  0.29910  0.20120  Biso   1.000  C
  C383     1.0000 0.30450  0.79910  0.79880  Biso   1.000  C
  C384     1.0000 0.69550  0.70090  0.29880  Biso   1.000  C
  H361     1.0000 0.81570  0.23040  0.68390  Biso   1.000  H
  H362     1.0000 0.81570  0.73040  0.81610  Biso   1.000  H
  H363     1.0000 0.68430  0.23040  0.18390  Biso   1.000  H
  H364     1.0000 0.31570  0.26960  0.68390  Biso   1.000  H
  H365     1.0000 0.18430  0.76960  0.31610  Biso   1.000  H
  H366     1.0000 0.18430  0.26960  0.18390  Biso   1.000  H
  H367     1.0000 0.31570  0.76960  0.81610  Biso   1.000  H
  H368     1.0000 0.68430  0.73040  0.31610  Biso   1.000  H
  H369     1.0000 0.77460  0.19260  0.68590  Biso   1.000  H
  H370     1.0000 0.77460  0.69260  0.81410  Biso   1.000  H
  H371     1.0000 0.72540  0.19260  0.18590  Biso   1.000  H
  H372     1.0000 0.27460  0.30740  0.68590  Biso   1.000  H
  H373     1.0000 0.22540  0.80740  0.31410  Biso   1.000  H
  H374     1.0000 0.22540  0.30740  0.18590  Biso   1.000  H
  H375     1.0000 0.27460  0.80740  0.81410  Biso   1.000  H
  H376     1.0000 0.72540  0.69260  0.31410  Biso   1.000  H
  H377     1.0000 0.82600  0.17460  0.69440  Biso   1.000  H
  H378     1.0000 0.82600  0.67460  0.80560  Biso   1.000  H
  H379     1.0000 0.67400  0.17460  0.19440  Biso   1.000  H
  H380     1.0000 0.32600  0.32540  0.69440  Biso   1.000  H
  H381     1.0000 0.17400  0.82540  0.30560  Biso   1.000  H
  H382     1.0000 0.17400  0.32540  0.19440  Biso   1.000  H
  H383     1.0000 0.32600  0.82540  0.80560  Biso   1.000  H
  H384     1.0000 0.67400  0.67460  0.30560  Biso   1.000  H
  C385     1.0000 0.68310  0.04780  0.07690  Biso   1.000  C
  C386     1.0000 0.68310  0.54780  0.42310  Biso   1.000  C
  C387     1.0000 0.81690  0.04780  0.57690  Biso   1.000  C
  C388     1.0000 0.18310  0.45220  0.07690  Biso   1.000  C
  C389     1.0000 0.31690  0.95220  0.92310  Biso   1.000  C
  C390     1.0000 0.31690  0.45220  0.57690  Biso   1.000  C
  C391     1.0000 0.18310  0.95220  0.42310  Biso   1.000  C
  C392     1.0000 0.81690  0.54780  0.92310  Biso   1.000  C
  C393     1.0000 0.64890  0.06210  0.12100  Biso   1.000  C
  C394     1.0000 0.64890  0.56210  0.37900  Biso   1.000  C
  C395     1.0000 0.85110  0.06210  0.62100  Biso   1.000  C
  C396     1.0000 0.14890  0.43790  0.12100  Biso   1.000  C
  C397     1.0000 0.35110  0.93790  0.87900  Biso   1.000  C
  C398     1.0000 0.35110  0.43790  0.62100  Biso   1.000  C
  C399     1.0000 0.14890  0.93790  0.37900  Biso   1.000  C
  C400     1.0000 0.85110  0.56210  0.87900  Biso   1.000  C
  H385     1.0000 0.61780  0.06120  0.10540  Biso   1.000  H
  H386     1.0000 0.61780  0.56120  0.39460  Biso   1.000  H
  H387     1.0000 0.88220  0.06120  0.60540  Biso   1.000  H
  H388     1.0000 0.11780  0.43880  0.10540  Biso   1.000  H
  H389     1.0000 0.38220  0.93880  0.89460  Biso   1.000  H
  H390     1.0000 0.38220  0.43880  0.60540  Biso   1.000  H
  H391     1.0000 0.11780  0.93880  0.39460  Biso   1.000  H
  H392     1.0000 0.88220  0.56120  0.89460  Biso   1.000  H
  H393     1.0000 0.65520  0.09550  0.13270  Biso   1.000  H
  H394     1.0000 0.65520  0.59550  0.36730  Biso   1.000  H
  H395     1.0000 0.84480  0.09550  0.63270  Biso   1.000  H
  H396     1.0000 0.15520  0.40450  0.13270  Biso   1.000  H
  H397     1.0000 0.34480  0.90450  0.86730  Biso   1.000  H
  H398     1.0000 0.34480  0.40450  0.63270  Biso   1.000  H
  H399     1.0000 0.15520  0.90450  0.36730  Biso   1.000  H
  H400     1.0000 0.84480  0.59550  0.86730  Biso   1.000  H
  C401     1.0000 0.65090  0.02860  0.17190  Biso   1.000  C
  C402     1.0000 0.65090  0.52860  0.32810  Biso   1.000  C
  C403     1.0000 0.84910  0.02860  0.67190  Biso   1.000  C
  C404     1.0000 0.15090  0.47140  0.17190  Biso   1.000  C
  C405     1.0000 0.34910  0.97140  0.82810  Biso   1.000  C
  C406     1.0000 0.34910  0.47140  0.67190  Biso   1.000  C
  C407     1.0000 0.15090  0.97140  0.32810  Biso   1.000  C
  C408     1.0000 0.84910  0.52860  0.82810  Biso   1.000  C
  H401     1.0000 0.64680  0.99480  0.16010  Biso   1.000  H
  H402     1.0000 0.64680  0.49480  0.33990  Biso   1.000  H
  H403     1.0000 0.85320  0.99480  0.66010  Biso   1.000  H
  H404     1.0000 0.14680  0.50520  0.16010  Biso   1.000  H
  H405     1.0000 0.35320  0.00520  0.83990  Biso   1.000  H
  H406     1.0000 0.35320  0.50520  0.66010  Biso   1.000  H
  H407     1.0000 0.14680  0.00520  0.33990  Biso   1.000  H
  H408     1.0000 0.85320  0.49480  0.83990  Biso   1.000  H
  H409     1.0000 0.62550  0.03670  0.19700  Biso   1.000  H
  H410     1.0000 0.62550  0.53670  0.30300  Biso   1.000  H
  H411     1.0000 0.87450  0.03670  0.69700  Biso   1.000  H
  H412     1.0000 0.12550  0.46330  0.19700  Biso   1.000  H
  H413     1.0000 0.37450  0.96330  0.80300  Biso   1.000  H
  H414     1.0000 0.37450  0.46330  0.69700  Biso   1.000  H
  H415     1.0000 0.12550  0.96330  0.30300  Biso   1.000  H
  H416     1.0000 0.87450  0.53670  0.80300  Biso   1.000  H
  C409     1.0000 0.69720  0.03370  0.20270  Biso   1.000  C
  C410     1.0000 0.69720  0.53370  0.29730  Biso   1.000  C
  C411     1.0000 0.80280  0.03370  0.70270  Biso   1.000  C
  C412     1.0000 0.19720  0.46630  0.20270  Biso   1.000  C
  C413     1.0000 0.30280  0.96630  0.79730  Biso   1.000  C
  C414     1.0000 0.30280  0.46630  0.70270  Biso   1.000  C
  C415     1.0000 0.19720  0.96630  0.29730  Biso   1.000  C
  C416     1.0000 0.80280  0.53370  0.79730  Biso   1.000  C
  O81      1.0000 0.72100  0.07020  0.20030  Biso   1.000  O
  O82      1.0000 0.72100  0.57020  0.29970  Biso   1.000  O
  O83      1.0000 0.77900  0.07020  0.70030  Biso   1.000  O
  O84      1.0000 0.22100  0.42980  0.20030  Biso   1.000  O
  O85      1.0000 0.27900  0.92980  0.79970  Biso   1.000  O
  O86      1.0000 0.27900  0.42980  0.70030  Biso   1.000  O
  O87      1.0000 0.22100  0.92980  0.29970  Biso   1.000  O
  O88      1.0000 0.77900  0.57020  0.79970  Biso   1.000  O
  N65      1.0000 0.70870  0.99470  0.23440  Biso   1.000  N
  N66      1.0000 0.70870  0.49470  0.26560  Biso   1.000  N
  N67      1.0000 0.79130  0.99470  0.73440  Biso   1.000  N
  N68      1.0000 0.20870  0.50530  0.23440  Biso   1.000  N
  N69      1.0000 0.29130  0.00530  0.76560  Biso   1.000  N
  N70      1.0000 0.29130  0.50530  0.73440  Biso   1.000  N
  N71      1.0000 0.20870  0.00530  0.26560  Biso   1.000  N
  N72      1.0000 0.79130  0.49470  0.76560  Biso   1.000  N
  H417     1.0000 0.73380  0.99510  0.25390  Biso   1.000  H
  H418     1.0000 0.73380  0.49510  0.24610  Biso   1.000  H
  H419     1.0000 0.76620  0.99510  0.75390  Biso   1.000  H
  H420     1.0000 0.23380  0.50490  0.25390  Biso   1.000  H
  H421     1.0000 0.26620  0.00490  0.74610  Biso   1.000  H
  H422     1.0000 0.26620  0.50490  0.75390  Biso   1.000  H
  H423     1.0000 0.23380  0.00490  0.24610  Biso   1.000  H
  H424     1.0000 0.76620  0.49510  0.74610  Biso   1.000  H
  H425     1.0000 0.69080  0.96930  0.23510  Biso   1.000  H
  H426     1.0000 0.69080  0.46930  0.26490  Biso   1.000  H
  H427     1.0000 0.80920  0.96930  0.73510  Biso   1.000  H
  H428     1.0000 0.19080  0.53070  0.23510  Biso   1.000  H
  H429     1.0000 0.30920  0.03070  0.76490  Biso   1.000  H
  H430     1.0000 0.30920  0.53070  0.73510  Biso   1.000  H
  H431     1.0000 0.19080  0.03070  0.26490  Biso   1.000  H
  H432     1.0000 0.80920  0.46930  0.76490  Biso   1.000  H
  C417     1.0000 0.67910  0.01730  0.92950  Biso   1.000  C
  C418     1.0000 0.67910  0.51730  0.57050  Biso   1.000  C
  C419     1.0000 0.82090  0.01730  0.42950  Biso   1.000  C
  C420     1.0000 0.17910  0.48270  0.92950  Biso   1.000  C
  C421     1.0000 0.32090  0.98270  0.07050  Biso   1.000  C
  C422     1.0000 0.32090  0.48270  0.42950  Biso   1.000  C
  C423     1.0000 0.17910  0.98270  0.57050  Biso   1.000  C
  C424     1.0000 0.82090  0.51730  0.07050  Biso   1.000  C
  C425     1.0000 0.64010  0.00880  0.88890  Biso   1.000  C
  C426     1.0000 0.64010  0.50880  0.61110  Biso   1.000  C
  C427     1.0000 0.85990  0.00880  0.38890  Biso   1.000  C
  C428     1.0000 0.14010  0.49120  0.88890  Biso   1.000  C
  C429     1.0000 0.35990  0.99120  0.11110  Biso   1.000  C
  C430     1.0000 0.35990  0.49120  0.38890  Biso   1.000  C
  C431     1.0000 0.14010  0.99120  0.61110  Biso   1.000  C
  C432     1.0000 0.85990  0.50880  0.11110  Biso   1.000  C
  H433     1.0000 0.64260  0.97560  0.87460  Biso   1.000  H
  H434     1.0000 0.64260  0.47560  0.62540  Biso   1.000  H
  H435     1.0000 0.85740  0.97560  0.37460  Biso   1.000  H
  H436     1.0000 0.14260  0.52440  0.87460  Biso   1.000  H
  H437     1.0000 0.35740  0.02440  0.12540  Biso   1.000  H
  H438     1.0000 0.35740  0.52440  0.37460  Biso   1.000  H
  H439     1.0000 0.14260  0.02440  0.62540  Biso   1.000  H
  H440     1.0000 0.85740  0.47560  0.12540  Biso   1.000  H
  H441     1.0000 0.61080  0.01120  0.90880  Biso   1.000  H
  H442     1.0000 0.61080  0.51120  0.59120  Biso   1.000  H
  H443     1.0000 0.88920  0.01120  0.40880  Biso   1.000  H
  H444     1.0000 0.11080  0.48880  0.90880  Biso   1.000  H
  H445     1.0000 0.38920  0.98880  0.09120  Biso   1.000  H
  H446     1.0000 0.38920  0.48880  0.40880  Biso   1.000  H
  H447     1.0000 0.11080  0.98880  0.59120  Biso   1.000  H
  H448     1.0000 0.88920  0.51120  0.09120  Biso   1.000  H
  C433     1.0000 0.63890  0.04330  0.84070  Biso   1.000  C
  C434     1.0000 0.63890  0.54330  0.65930  Biso   1.000  C
  C435     1.0000 0.86110  0.04330  0.34070  Biso   1.000  C
  C436     1.0000 0.13890  0.45670  0.84070  Biso   1.000  C
  C437     1.0000 0.36110  0.95670  0.15930  Biso   1.000  C
  C438     1.0000 0.36110  0.45670  0.34070  Biso   1.000  C
  C439     1.0000 0.13890  0.95670  0.65930  Biso   1.000  C
  C440     1.0000 0.86110  0.54330  0.15930  Biso   1.000  C
  H449     1.0000 0.61120  0.03720  0.81860  Biso   1.000  H
  H450     1.0000 0.61120  0.53720  0.68140  Biso   1.000  H
  H451     1.0000 0.88880  0.03720  0.31860  Biso   1.000  H
  H452     1.0000 0.11120  0.46280  0.81860  Biso   1.000  H
  H453     1.0000 0.38880  0.96280  0.18140  Biso   1.000  H
  H454     1.0000 0.38880  0.46280  0.31860  Biso   1.000  H
  H455     1.0000 0.11120  0.96280  0.68140  Biso   1.000  H
  H456     1.0000 0.88880  0.53720  0.18140  Biso   1.000  H
  H457     1.0000 0.63740  0.07670  0.85440  Biso   1.000  H
  H458     1.0000 0.63740  0.57670  0.64560  Biso   1.000  H
  H459     1.0000 0.86260  0.07670  0.35440  Biso   1.000  H
  H460     1.0000 0.13740  0.42330  0.85440  Biso   1.000  H
  H461     1.0000 0.36260  0.92330  0.14560  Biso   1.000  H
  H462     1.0000 0.36260  0.42330  0.35440  Biso   1.000  H
  H463     1.0000 0.13740  0.92330  0.64560  Biso   1.000  H
  H464     1.0000 0.86260  0.57670  0.14560  Biso   1.000  H
  C441     1.0000 0.68080  0.03730  0.80500  Biso   1.000  C
  C442     1.0000 0.68080  0.53730  0.69500  Biso   1.000  C
  C443     1.0000 0.81920  0.03730  0.30500  Biso   1.000  C
  C444     1.0000 0.18080  0.46270  0.80500  Biso   1.000  C
  C445     1.0000 0.31920  0.96270  0.19500  Biso   1.000  C
  C446     1.0000 0.31920  0.46270  0.30500  Biso   1.000  C
  C447     1.0000 0.18080  0.96270  0.69500  Biso   1.000  C
  C448     1.0000 0.81920  0.53730  0.19500  Biso   1.000  C
  O89      1.0000 0.70500  0.00090  0.80170  Biso   1.000  O
  O90      1.0000 0.70500  0.50090  0.69830  Biso   1.000  O
  O91      1.0000 0.79500  0.00090  0.30170  Biso   1.000  O
  O92      1.0000 0.20500  0.49910  0.80170  Biso   1.000  O
  O93      1.0000 0.29500  0.99910  0.19830  Biso   1.000  O
  O94      1.0000 0.29500  0.49910  0.30170  Biso   1.000  O
  O95      1.0000 0.20500  0.99910  0.69830  Biso   1.000  O
  O96      1.0000 0.79500  0.50090  0.19830  Biso   1.000  O
  N73      1.0000 0.69430  0.07760  0.77310  Biso   1.000  N
  N74      1.0000 0.69430  0.57760  0.72690  Biso   1.000  N
  N75      1.0000 0.80570  0.07760  0.27310  Biso   1.000  N
  N76      1.0000 0.19430  0.42240  0.77310  Biso   1.000  N
  N77      1.0000 0.30570  0.92240  0.22690  Biso   1.000  N
  N78      1.0000 0.30570  0.42240  0.27310  Biso   1.000  N
  N79      1.0000 0.19430  0.92240  0.72690  Biso   1.000  N
  N80      1.0000 0.80570  0.57760  0.22690  Biso   1.000  N
  H465     1.0000 0.71870  0.07590  0.75240  Biso   1.000  H
  H466     1.0000 0.71870  0.57590  0.74760  Biso   1.000  H
  H467     1.0000 0.78130  0.07590  0.25240  Biso   1.000  H
  H468     1.0000 0.21870  0.42410  0.75240  Biso   1.000  H
  H469     1.0000 0.28130  0.92410  0.24760  Biso   1.000  H
  H470     1.0000 0.28130  0.42410  0.25240  Biso   1.000  H
  H471     1.0000 0.21870  0.92410  0.74760  Biso   1.000  H
  H472     1.0000 0.78130  0.57590  0.24760  Biso   1.000  H
  H473     1.0000 0.67820  0.10420  0.77410  Biso   1.000  H
  H474     1.0000 0.67820  0.60420  0.72590  Biso   1.000  H
  H475     1.0000 0.82180  0.10420  0.27410  Biso   1.000  H
  H476     1.0000 0.17820  0.39580  0.77410  Biso   1.000  H
  H477     1.0000 0.32180  0.89580  0.22590  Biso   1.000  H
  H478     1.0000 0.32180  0.39580  0.27410  Biso   1.000  H
  H479     1.0000 0.17820  0.89580  0.72590  Biso   1.000  H
  H480     1.0000 0.82180  0.60420  0.22590  Biso   1.000  H
  C449     1.0000 0.69530  0.86600  0.04290  Biso   1.000  C
  C450     1.0000 0.69530  0.36600  0.45710  Biso   1.000  C
  C451     1.0000 0.80470  0.86600  0.54290  Biso   1.000  C
  C452     1.0000 0.19530  0.63400  0.04290  Biso   1.000  C
  C453     1.0000 0.30470  0.13400  0.95710  Biso   1.000  C
  C454     1.0000 0.30470  0.63400  0.54290  Biso   1.000  C
  C455     1.0000 0.19530  0.13400  0.45710  Biso   1.000  C
  C456     1.0000 0.80470  0.36600  0.95710  Biso   1.000  C
  C457     1.0000 0.64530  0.87510  0.05870  Biso   1.000  C
  C458     1.0000 0.64530  0.37510  0.44130  Biso   1.000  C
  C459     1.0000 0.85470  0.87510  0.55870  Biso   1.000  C
  C460     1.0000 0.14530  0.62490  0.05870  Biso   1.000  C
  C461     1.0000 0.35470  0.12490  0.94130  Biso   1.000  C
  C462     1.0000 0.35470  0.62490  0.55870  Biso   1.000  C
  C463     1.0000 0.14530  0.12490  0.44130  Biso   1.000  C
  C464     1.0000 0.85470  0.37510  0.94130  Biso   1.000  C
  H481     1.0000 0.64230  0.90590  0.07860  Biso   1.000  H
  H482     1.0000 0.64230  0.40590  0.42140  Biso   1.000  H
  H483     1.0000 0.85770  0.90590  0.57860  Biso   1.000  H
  H484     1.0000 0.14230  0.59410  0.07860  Biso   1.000  H
  H485     1.0000 0.35770  0.09410  0.92140  Biso   1.000  H
  H486     1.0000 0.35770  0.59410  0.57860  Biso   1.000  H
  H487     1.0000 0.14230  0.09410  0.42140  Biso   1.000  H
  H488     1.0000 0.85770  0.40590  0.92140  Biso   1.000  H
  H489     1.0000 0.63380  0.84890  0.08250  Biso   1.000  H
  H490     1.0000 0.63380  0.34890  0.41750  Biso   1.000  H
  H491     1.0000 0.86620  0.84890  0.58250  Biso   1.000  H
  H492     1.0000 0.13380  0.65110  0.08250  Biso   1.000  H
  H493     1.0000 0.36620  0.15110  0.91750  Biso   1.000  H
  H494     1.0000 0.36620  0.65110  0.58250  Biso   1.000  H
  H495     1.0000 0.13380  0.15110  0.41750  Biso   1.000  H
  H496     1.0000 0.86620  0.34890  0.91750  Biso   1.000  H
  C465     1.0000 0.61470  0.87690  0.99750  Biso   1.000  C
  C466     1.0000 0.61470  0.37690  0.50250  Biso   1.000  C
  C467     1.0000 0.88530  0.87690  0.49750  Biso   1.000  C
  C468     1.0000 0.11470  0.62310  0.99750  Biso   1.000  C
  C469     1.0000 0.38530  0.12310  0.00250  Biso   1.000  C
  C470     1.0000 0.38530  0.62310  0.49750  Biso   1.000  C
  C471     1.0000 0.11470  0.12310  0.50250  Biso   1.000  C
  C472     1.0000 0.88530  0.37690  0.00250  Biso   1.000  C
  H497     1.0000 0.61860  0.90880  0.98020  Biso   1.000  H
  H498     1.0000 0.61860  0.40880  0.51980  Biso   1.000  H
  H499     1.0000 0.88140  0.90880  0.48020  Biso   1.000  H
  H500     1.0000 0.11860  0.59120  0.98020  Biso   1.000  H
  H501     1.0000 0.38140  0.09120  0.01980  Biso   1.000  H
  H502     1.0000 0.38140  0.59120  0.48020  Biso   1.000  H
  H503     1.0000 0.11860  0.09120  0.51980  Biso   1.000  H
  H504     1.0000 0.88140  0.40880  0.01980  Biso   1.000  H
  H505     1.0000 0.62670  0.85230  0.97210  Biso   1.000  H
  H506     1.0000 0.62670  0.35230  0.52790  Biso   1.000  H
  H507     1.0000 0.87330  0.85230  0.47210  Biso   1.000  H
  H508     1.0000 0.12670  0.64770  0.97210  Biso   1.000  H
  H509     1.0000 0.37330  0.14770  0.02790  Biso   1.000  H
  H510     1.0000 0.37330  0.64770  0.47210  Biso   1.000  H
  H511     1.0000 0.12670  0.14770  0.52790  Biso   1.000  H
  H512     1.0000 0.87330  0.35230  0.02790  Biso   1.000  H
  C473     1.0000 0.56460  0.86780  0.00750  Biso   1.000  C
  C474     1.0000 0.56460  0.36780  0.49250  Biso   1.000  C
  C475     1.0000 0.93540  0.86780  0.50750  Biso   1.000  C
  C476     1.0000 0.06460  0.63220  0.00750  Biso   1.000  C
  C477     1.0000 0.43540  0.13220  0.99250  Biso   1.000  C
  C478     1.0000 0.43540  0.63220  0.50750  Biso   1.000  C
  C479     1.0000 0.06460  0.13220  0.49250  Biso   1.000  C
  C480     1.0000 0.93540  0.36780  0.99250  Biso   1.000  C
  O97      1.0000 0.53940  0.85860  0.96990  Biso   1.000  O
  O98      1.0000 0.53940  0.35860  0.53010  Biso   1.000  O
  O99      1.0000 0.96060  0.85860  0.46990  Biso   1.000  O
  O100     1.0000 0.03940  0.64140  0.96990  Biso   1.000  O
  O101     1.0000 0.46060  0.14140  0.03010  Biso   1.000  O
  O102     1.0000 0.46060  0.64140  0.46990  Biso   1.000  O
  O103     1.0000 0.03940  0.14140  0.53010  Biso   1.000  O
  O104     1.0000 0.96060  0.35860  0.03010  Biso   1.000  O
  N81      1.0000 0.54860  0.87690  0.05150  Biso   1.000  N
  N82      1.0000 0.54860  0.37690  0.44850  Biso   1.000  N
  N83      1.0000 0.95140  0.87690  0.55150  Biso   1.000  N
  N84      1.0000 0.04860  0.62310  0.05150  Biso   1.000  N
  N85      1.0000 0.45140  0.12310  0.94850  Biso   1.000  N
  N86      1.0000 0.45140  0.62310  0.55150  Biso   1.000  N
  N87      1.0000 0.04860  0.12310  0.44850  Biso   1.000  N
  N88      1.0000 0.95140  0.37690  0.94850  Biso   1.000  N
  H513     1.0000 0.51890  0.87690  0.05590  Biso   1.000  H
  H514     1.0000 0.51890  0.37690  0.44410  Biso   1.000  H
  H515     1.0000 0.98110  0.87690  0.55590  Biso   1.000  H
  H516     1.0000 0.01890  0.62310  0.05590  Biso   1.000  H
  H517     1.0000 0.48110  0.12310  0.94410  Biso   1.000  H
  H518     1.0000 0.48110  0.62310  0.55590  Biso   1.000  H
  H519     1.0000 0.01890  0.12310  0.44410  Biso   1.000  H
  H520     1.0000 0.98110  0.37690  0.94410  Biso   1.000  H
  H521     1.0000 0.56660  0.88360  0.07910  Biso   1.000  H
  H522     1.0000 0.56660  0.38360  0.42090  Biso   1.000  H
  H523     1.0000 0.93340  0.88360  0.57910  Biso   1.000  H
  H524     1.0000 0.06660  0.61640  0.07910  Biso   1.000  H
  H525     1.0000 0.43340  0.11640  0.92090  Biso   1.000  H
  H526     1.0000 0.43340  0.61640  0.57910  Biso   1.000  H
  H527     1.0000 0.06660  0.11640  0.42090  Biso   1.000  H
  H528     1.0000 0.93340  0.38360  0.92090  Biso   1.000  H
  C481     1.0000 0.70950  0.20080  0.97660  Biso   1.000  C
  C482     1.0000 0.70950  0.70080  0.52340  Biso   1.000  C
  C483     1.0000 0.79050  0.20080  0.47660  Biso   1.000  C
  C484     1.0000 0.20950  0.29920  0.97660  Biso   1.000  C
  C485     1.0000 0.29050  0.79920  0.02340  Biso   1.000  C
  C486     1.0000 0.29050  0.29920  0.47660  Biso   1.000  C
  C487     1.0000 0.20950  0.79920  0.52340  Biso   1.000  C
  C488     1.0000 0.79050  0.70080  0.02340  Biso   1.000  C
  C489     1.0000 0.65860  0.19800  0.98710  Biso   1.000  C
  C490     1.0000 0.65860  0.69800  0.51290  Biso   1.000  C
  C491     1.0000 0.84140  0.19800  0.48710  Biso   1.000  C
  C492     1.0000 0.15860  0.30200  0.98710  Biso   1.000  C
  C493     1.0000 0.34140  0.80200  0.01290  Biso   1.000  C
  C494     1.0000 0.34140  0.30200  0.48710  Biso   1.000  C
  C495     1.0000 0.15860  0.80200  0.51290  Biso   1.000  C
  C496     1.0000 0.84140  0.69800  0.01290  Biso   1.000  C
  H529     1.0000 0.65440  0.19480  0.02710  Biso   1.000  H
  H530     1.0000 0.65440  0.69480  0.47290  Biso   1.000  H
  H531     1.0000 0.84560  0.19480  0.52710  Biso   1.000  H
  H532     1.0000 0.15440  0.30520  0.02710  Biso   1.000  H
  H533     1.0000 0.34560  0.80520  0.97290  Biso   1.000  H
  H534     1.0000 0.34560  0.30520  0.52710  Biso   1.000  H
  H535     1.0000 0.15440  0.80520  0.47290  Biso   1.000  H
  H536     1.0000 0.84560  0.69480  0.97290  Biso   1.000  H
  H537     1.0000 0.64540  0.22940  0.97650  Biso   1.000  H
  H538     1.0000 0.64540  0.72940  0.52350  Biso   1.000  H
  H539     1.0000 0.85460  0.22940  0.47650  Biso   1.000  H
  H540     1.0000 0.14540  0.27060  0.97650  Biso   1.000  H
  H541     1.0000 0.35460  0.77060  0.02350  Biso   1.000  H
  H542     1.0000 0.35460  0.27060  0.47650  Biso   1.000  H
  H543     1.0000 0.14540  0.77060  0.52350  Biso   1.000  H
  H544     1.0000 0.85460  0.72940  0.02350  Biso   1.000  H
  C497     1.0000 0.63160  0.16150  0.96180  Biso   1.000  C
  C498     1.0000 0.63160  0.66150  0.53820  Biso   1.000  C
  C499     1.0000 0.86840  0.16150  0.46180  Biso   1.000  C
  C500     1.0000 0.13160  0.33850  0.96180  Biso   1.000  C
  C501     1.0000 0.36840  0.83850  0.03820  Biso   1.000  C
  C502     1.0000 0.36840  0.33850  0.46180  Biso   1.000  C
  C503     1.0000 0.13160  0.83850  0.53820  Biso   1.000  C
  C504     1.0000 0.86840  0.66150  0.03820  Biso   1.000  C
  H545     1.0000 0.64650  0.13010  0.96810  Biso   1.000  H
  H546     1.0000 0.64650  0.63010  0.53190  Biso   1.000  H
  H547     1.0000 0.85350  0.13010  0.46810  Biso   1.000  H
  H548     1.0000 0.14650  0.36990  0.96810  Biso   1.000  H
  H549     1.0000 0.35350  0.86990  0.03190  Biso   1.000  H
  H550     1.0000 0.35350  0.36990  0.46810  Biso   1.000  H
  H551     1.0000 0.14650  0.86990  0.53190  Biso   1.000  H
  H552     1.0000 0.85350  0.63010  0.03190  Biso   1.000  H
  H553     1.0000 0.63140  0.16730  0.92180  Biso   1.000  H
  H554     1.0000 0.63140  0.66730  0.57820  Biso   1.000  H
  H555     1.0000 0.86860  0.16730  0.42180  Biso   1.000  H
  H556     1.0000 0.13140  0.33270  0.92180  Biso   1.000  H
  H557     1.0000 0.36860  0.83270  0.07820  Biso   1.000  H
  H558     1.0000 0.36860  0.33270  0.42180  Biso   1.000  H
  H559     1.0000 0.13140  0.83270  0.57820  Biso   1.000  H
  H560     1.0000 0.86860  0.66730  0.07820  Biso   1.000  H
  C505     1.0000 0.58010  0.15800  0.98220  Biso   1.000  C
  C506     1.0000 0.58010  0.65800  0.51780  Biso   1.000  C
  C507     1.0000 0.91990  0.15800  0.48220  Biso   1.000  C
  C508     1.0000 0.08010  0.34200  0.98220  Biso   1.000  C
  C509     1.0000 0.41990  0.84200  0.01780  Biso   1.000  C
  C510     1.0000 0.41990  0.34200  0.48220  Biso   1.000  C
  C511     1.0000 0.08010  0.84200  0.51780  Biso   1.000  C
  C512     1.0000 0.91990  0.65800  0.01780  Biso   1.000  C
  O105     1.0000 0.56460  0.17070  0.01930  Biso   1.000  O
  O106     1.0000 0.56460  0.67070  0.48070  Biso   1.000  O
  O107     1.0000 0.93540  0.17070  0.51930  Biso   1.000  O
  O108     1.0000 0.06460  0.32930  0.01930  Biso   1.000  O
  O109     1.0000 0.43540  0.82930  0.98070  Biso   1.000  O
  O110     1.0000 0.43540  0.32930  0.51930  Biso   1.000  O
  O111     1.0000 0.06460  0.82930  0.48070  Biso   1.000  O
  O112     1.0000 0.93540  0.67070  0.98070  Biso   1.000  O
  N89      1.0000 0.55480  0.14190  0.92920  Biso   1.000  N
  N90      1.0000 0.55480  0.64190  0.57080  Biso   1.000  N
  N91      1.0000 0.94520  0.14190  0.42920  Biso   1.000  N
  N92      1.0000 0.05480  0.35810  0.92920  Biso   1.000  N
  N93      1.0000 0.44520  0.85810  0.07080  Biso   1.000  N
  N94      1.0000 0.44520  0.35810  0.42920  Biso   1.000  N
  N95      1.0000 0.05480  0.85810  0.57080  Biso   1.000  N
  N96      1.0000 0.94520  0.64190  0.07080  Biso   1.000  N
  H561     1.0000 0.52490  0.14270  0.92770  Biso   1.000  H
  H562     1.0000 0.52490  0.64270  0.57230  Biso   1.000  H
  H563     1.0000 0.97510  0.14270  0.42770  Biso   1.000  H
  H564     1.0000 0.02490  0.35730  0.92770  Biso   1.000  H
  H565     1.0000 0.47510  0.85730  0.07230  Biso   1.000  H
  H566     1.0000 0.47510  0.35730  0.42770  Biso   1.000  H
  H567     1.0000 0.02490  0.85730  0.57230  Biso   1.000  H
  H568     1.0000 0.97510  0.64270  0.07230  Biso   1.000  H
  H569     1.0000 0.57050  0.13190  0.90070  Biso   1.000  H
  H570     1.0000 0.57050  0.63190  0.59930  Biso   1.000  H
  H571     1.0000 0.92950  0.13190  0.40070  Biso   1.000  H
  H572     1.0000 0.07050  0.36810  0.90070  Biso   1.000  H
  H573     1.0000 0.42950  0.86810  0.09930  Biso   1.000  H
  H574     1.0000 0.42950  0.36810  0.40070  Biso   1.000  H
  H575     1.0000 0.07050  0.86810  0.59930  Biso   1.000  H
  H576     1.0000 0.92950  0.63190  0.09930  Biso   1.000  H
  C513     1.0000 0.79240  0.27330  0.07620  Biso   1.000  C
  C514     1.0000 0.79240  0.77330  0.42380  Biso   1.000  C
  C515     1.0000 0.70760  0.27330  0.57620  Biso   1.000  C
  C516     1.0000 0.29240  0.22670  0.07620  Biso   1.000  C
  C517     1.0000 0.20760  0.72670  0.92380  Biso   1.000  C
  C518     1.0000 0.20760  0.22670  0.57620  Biso   1.000  C
  C519     1.0000 0.29240  0.72670  0.42380  Biso   1.000  C
  C520     1.0000 0.70760  0.77330  0.92380  Biso   1.000  C
  C521     1.0000 0.81430  0.26780  0.13240  Biso   1.000  C
  C522     1.0000 0.81430  0.76780  0.36760  Biso   1.000  C
  C523     1.0000 0.68570  0.26780  0.63240  Biso   1.000  C
  C524     1.0000 0.31430  0.23220  0.13240  Biso   1.000  C
  C525     1.0000 0.18570  0.73220  0.86760  Biso   1.000  C
  C526     1.0000 0.18570  0.23220  0.63240  Biso   1.000  C
  C527     1.0000 0.31430  0.73220  0.36760  Biso   1.000  C
  C528     1.0000 0.68570  0.76780  0.86760  Biso   1.000  C
  H577     1.0000 0.84770  0.27140  0.12820  Biso   1.000  H
  H578     1.0000 0.84770  0.77140  0.37180  Biso   1.000  H
  H579     1.0000 0.65230  0.27140  0.62820  Biso   1.000  H
  H580     1.0000 0.34770  0.22860  0.12820  Biso   1.000  H
  H581     1.0000 0.15230  0.72860  0.87180  Biso   1.000  H
  H582     1.0000 0.15230  0.22860  0.62820  Biso   1.000  H
  H583     1.0000 0.34770  0.72860  0.37180  Biso   1.000  H
  H584     1.0000 0.65230  0.77140  0.87180  Biso   1.000  H
  H585     1.0000 0.80850  0.23470  0.14550  Biso   1.000  H
  H586     1.0000 0.80850  0.73470  0.35450  Biso   1.000  H
  H587     1.0000 0.69150  0.23470  0.64550  Biso   1.000  H
  H588     1.0000 0.30850  0.26530  0.14550  Biso   1.000  H
  H589     1.0000 0.19150  0.76530  0.85450  Biso   1.000  H
  H590     1.0000 0.19150  0.26530  0.64550  Biso   1.000  H
  H591     1.0000 0.30850  0.76530  0.35450  Biso   1.000  H
  H592     1.0000 0.69150  0.73470  0.85450  Biso   1.000  H
  C529     1.0000 0.79800  0.30320  0.17690  Biso   1.000  C
  C530     1.0000 0.79800  0.80320  0.32310  Biso   1.000  C
  C531     1.0000 0.70200  0.30320  0.67690  Biso   1.000  C
  C532     1.0000 0.29800  0.19680  0.17690  Biso   1.000  C
  C533     1.0000 0.20200  0.69680  0.82310  Biso   1.000  C
  C534     1.0000 0.20200  0.19680  0.67690  Biso   1.000  C
  C535     1.0000 0.29800  0.69680  0.32310  Biso   1.000  C
  C536     1.0000 0.70200  0.80320  0.82310  Biso   1.000  C
  H593     1.0000 0.80800  0.29140  0.21320  Biso   1.000  H
  H594     1.0000 0.80800  0.79140  0.28680  Biso   1.000  H
  H595     1.0000 0.69200  0.29140  0.71320  Biso   1.000  H
  H596     1.0000 0.30800  0.20860  0.21320  Biso   1.000  H
  H597     1.0000 0.19200  0.70860  0.78680  Biso   1.000  H
  H598     1.0000 0.19200  0.20860  0.71320  Biso   1.000  H
  H599     1.0000 0.30800  0.70860  0.28680  Biso   1.000  H
  H600     1.0000 0.69200  0.79140  0.78680  Biso   1.000  H
  H601     1.0000 0.76430  0.30440  0.17680  Biso   1.000  H
  H602     1.0000 0.76430  0.80440  0.32320  Biso   1.000  H
  H603     1.0000 0.73570  0.30440  0.67680  Biso   1.000  H
  H604     1.0000 0.26430  0.19560  0.17680  Biso   1.000  H
  H605     1.0000 0.23570  0.69560  0.82320  Biso   1.000  H
  H606     1.0000 0.23570  0.19560  0.67680  Biso   1.000  H
  H607     1.0000 0.26430  0.69560  0.32320  Biso   1.000  H
  H608     1.0000 0.73570  0.80440  0.82320  Biso   1.000  H
  C537     1.0000 0.81740  0.35540  0.16760  Biso   1.000  C
  C538     1.0000 0.81740  0.85540  0.33240  Biso   1.000  C
  C539     1.0000 0.68260  0.35540  0.66760  Biso   1.000  C
  C540     1.0000 0.31740  0.14460  0.16760  Biso   1.000  C
  C541     1.0000 0.18260  0.64460  0.83240  Biso   1.000  C
  C542     1.0000 0.18260  0.14460  0.66760  Biso   1.000  C
  C543     1.0000 0.31740  0.64460  0.33240  Biso   1.000  C
  C544     1.0000 0.68260  0.85540  0.83240  Biso   1.000  C
  O113     1.0000 0.85270  0.36290  0.14290  Biso   1.000  O
  O114     1.0000 0.85270  0.86290  0.35710  Biso   1.000  O
  O115     1.0000 0.64730  0.36290  0.64290  Biso   1.000  O
  O116     1.0000 0.35270  0.13710  0.14290  Biso   1.000  O
  O117     1.0000 0.14730  0.63710  0.85710  Biso   1.000  O
  O118     1.0000 0.14730  0.13710  0.64290  Biso   1.000  O
  O119     1.0000 0.35270  0.63710  0.35710  Biso   1.000  O
  O120     1.0000 0.64730  0.86290  0.85710  Biso   1.000  O
  N97      1.0000 0.79030  0.39080  0.19040  Biso   1.000  N
  N98      1.0000 0.79030  0.89080  0.30960  Biso   1.000  N
  N99      1.0000 0.70970  0.39080  0.69040  Biso   1.000  N
  N100     1.0000 0.29030  0.10920  0.19040  Biso   1.000  N
  N101     1.0000 0.20970  0.60920  0.80960  Biso   1.000  N
  N102     1.0000 0.20970  0.10920  0.69040  Biso   1.000  N
  N103     1.0000 0.29030  0.60920  0.30960  Biso   1.000  N
  N104     1.0000 0.70970  0.89080  0.80960  Biso   1.000  N
  H609     1.0000 0.79820  0.42110  0.18760  Biso   1.000  H
  H610     1.0000 0.79820  0.92110  0.31240  Biso   1.000  H
  H611     1.0000 0.70180  0.42110  0.68760  Biso   1.000  H
  H612     1.0000 0.29820  0.07890  0.18760  Biso   1.000  H
  H613     1.0000 0.20180  0.57890  0.81240  Biso   1.000  H
  H614     1.0000 0.20180  0.07890  0.68760  Biso   1.000  H
  H615     1.0000 0.29820  0.57890  0.31240  Biso   1.000  H
  H616     1.0000 0.70180  0.92110  0.81240  Biso   1.000  H
  H617     1.0000 0.76520  0.38290  0.20770  Biso   1.000  H
  H618     1.0000 0.76520  0.88290  0.29230  Biso   1.000  H
  H619     1.0000 0.73480  0.38290  0.70770  Biso   1.000  H
  H620     1.0000 0.26520  0.11710  0.20770  Biso   1.000  H
  H621     1.0000 0.23480  0.61710  0.79230  Biso   1.000  H
  H622     1.0000 0.23480  0.11710  0.70770  Biso   1.000  H
  H623     1.0000 0.26520  0.61710  0.29230  Biso   1.000  H
  H624     1.0000 0.73480  0.88290  0.79230  Biso   1.000  H
  Cl1      1.0000 0.32450  0.14040  0.77320  Biso   1.000  Cl
  Cl2      1.0000 0.32450  0.64040  0.72680  Biso   1.000  Cl
  Cl3      1.0000 0.17550  0.14040  0.27320  Biso   1.000  Cl
  Cl4      1.0000 0.82450  0.35960  0.77320  Biso   1.000  Cl
  Cl5      1.0000 0.67550  0.85960  0.22680  Biso   1.000  Cl
  Cl6      1.0000 0.67550  0.35960  0.27320  Biso   1.000  Cl
  Cl7      1.0000 0.82450  0.85960  0.72680  Biso   1.000  Cl
  Cl8      1.0000 0.17550  0.64040  0.22680  Biso   1.000  Cl
  O121     1.0000 0.35280  0.09940  0.75960  Biso   1.000  O
  O122     1.0000 0.35280  0.59940  0.74040  Biso   1.000  O
  O123     1.0000 0.14720  0.09940  0.25960  Biso   1.000  O
  O124     1.0000 0.85280  0.40060  0.75960  Biso   1.000  O
  O125     1.0000 0.64720  0.90060  0.24040  Biso   1.000  O
  O126     1.0000 0.64720  0.40060  0.25960  Biso   1.000  O
  O127     1.0000 0.85280  0.90060  0.74040  Biso   1.000  O
  O128     1.0000 0.14720  0.59940  0.24040  Biso   1.000  O
  O129     1.0000 0.31810  0.17040  0.72470  Biso   1.000  O
  O130     1.0000 0.31810  0.67040  0.77530  Biso   1.000  O
  O131     1.0000 0.18190  0.17040  0.22470  Biso   1.000  O
  O132     1.0000 0.81810  0.32960  0.72470  Biso   1.000  O
  O133     1.0000 0.68190  0.82960  0.27530  Biso   1.000  O
  O134     1.0000 0.68190  0.32960  0.22470  Biso   1.000  O
  O135     1.0000 0.81810  0.82960  0.77530  Biso   1.000  O
  O136     1.0000 0.18190  0.67040  0.27530  Biso   1.000  O
  O137     1.0000 0.34890  0.16900  0.81310  Biso   1.000  O
  O138     1.0000 0.34890  0.66900  0.68690  Biso   1.000  O
  O139     1.0000 0.15110  0.16900  0.31310  Biso   1.000  O
  O140     1.0000 0.84890  0.33100  0.81310  Biso   1.000  O
  O141     1.0000 0.65110  0.83100  0.18690  Biso   1.000  O
  O142     1.0000 0.65110  0.33100  0.31310  Biso   1.000  O
  O143     1.0000 0.84890  0.83100  0.68690  Biso   1.000  O
  O144     1.0000 0.15110  0.66900  0.18690  Biso   1.000  O
  O145     1.0000 0.28040  0.12240  0.79020  Biso   1.000  O
  O146     1.0000 0.28040  0.62240  0.70980  Biso   1.000  O
  O147     1.0000 0.21960  0.12240  0.29020  Biso   1.000  O
  O148     1.0000 0.78040  0.37760  0.79020  Biso   1.000  O
  O149     1.0000 0.71960  0.87760  0.20980  Biso   1.000  O
  O150     1.0000 0.71960  0.37760  0.29020  Biso   1.000  O
  O151     1.0000 0.78040  0.87760  0.70980  Biso   1.000  O
  O152     1.0000 0.21960  0.62240  0.20980  Biso   1.000  O
  O153     1.0000 0.30580  0.16530  0.81820  Biso   1.000  O
  O154     1.0000 0.30580  0.66530  0.68180  Biso   1.000  O
  O155     1.0000 0.19420  0.16530  0.31820  Biso   1.000  O
  O156     1.0000 0.80580  0.33470  0.81820  Biso   1.000  O
  O157     1.0000 0.69420  0.83470  0.18180  Biso   1.000  O
  O158     1.0000 0.69420  0.33470  0.31820  Biso   1.000  O
  O159     1.0000 0.80580  0.83470  0.68180  Biso   1.000  O
  O160     1.0000 0.19420  0.66530  0.18180  Biso   1.000  O
  O161     1.0000 0.36900  0.17210  0.76560  Biso   1.000  O
  O162     1.0000 0.36900  0.67210  0.73440  Biso   1.000  O
  O163     1.0000 0.13100  0.17210  0.26560  Biso   1.000  O
  O164     1.0000 0.86900  0.32790  0.76560  Biso   1.000  O
  O165     1.0000 0.63100  0.82790  0.23440  Biso   1.000  O
  O166     1.0000 0.63100  0.32790  0.26560  Biso   1.000  O
  O167     1.0000 0.86900  0.82790  0.73440  Biso   1.000  O
  O168     1.0000 0.13100  0.67210  0.23440  Biso   1.000  O
  O169     1.0000 0.34540  0.09590  0.78900  Biso   1.000  O
  O170     1.0000 0.34540  0.59590  0.71100  Biso   1.000  O
  O171     1.0000 0.15460  0.09590  0.28900  Biso   1.000  O
  O172     1.0000 0.84540  0.40410  0.78900  Biso   1.000  O
  O173     1.0000 0.65460  0.90410  0.21100  Biso   1.000  O
  O174     1.0000 0.65460  0.40410  0.28900  Biso   1.000  O
  O175     1.0000 0.84540  0.90410  0.71100  Biso   1.000  O
  O176     1.0000 0.15460  0.59590  0.21100  Biso   1.000  O
  O177     1.0000 0.30270  0.14090  0.72370  Biso   1.000  O
  O178     1.0000 0.30270  0.64090  0.77630  Biso   1.000  O
  O179     1.0000 0.19730  0.14090  0.22370  Biso   1.000  O
  O180     1.0000 0.80270  0.35910  0.72370  Biso   1.000  O
  O181     1.0000 0.69730  0.85910  0.27630  Biso   1.000  O
  O182     1.0000 0.69730  0.35910  0.22370  Biso   1.000  O
  O183     1.0000 0.80270  0.85910  0.77630  Biso   1.000  O
  O184     1.0000 0.19730  0.64090  0.27630  Biso   1.000  O
  Cl9      1.0000 0.50495  0.07770  0.46940  Biso   1.000  Cl
  Cl10     1.0000 0.50495  0.57770  0.03060  Biso   1.000  Cl
  Cl11     1.0000 0.99505  0.07770  0.96940  Biso   1.000  Cl
  Cl12     1.0000 0.00495  0.42230  0.46940  Biso   1.000  Cl
  Cl13     1.0000 0.49505  0.92230  0.53060  Biso   1.000  Cl
  Cl14     1.0000 0.49505  0.42230  0.96940  Biso   1.000  Cl
  Cl15     1.0000 0.00495  0.92230  0.03060  Biso   1.000  Cl
  Cl16     1.0000 0.99505  0.57770  0.53060  Biso   1.000  Cl
  O185     1.0000 0.51610  0.12770  0.46690  Biso   1.000  O
  O186     1.0000 0.51610  0.62770  0.03310  Biso   1.000  O
  O187     1.0000 0.98390  0.12770  0.96690  Biso   1.000  O
  O188     1.0000 0.01610  0.37230  0.46690  Biso   1.000  O
  O189     1.0000 0.48390  0.87230  0.53310  Biso   1.000  O
  O190     1.0000 0.48390  0.37230  0.96690  Biso   1.000  O
  O191     1.0000 0.01610  0.87230  0.03310  Biso   1.000  O
  O192     1.0000 0.98390  0.62770  0.53310  Biso   1.000  O
  O193     1.0000 0.46470  0.06880  0.49680  Biso   1.000  O
  O194     1.0000 0.46470  0.56880  0.00320  Biso   1.000  O
  O195     1.0000 0.03530  0.06880  0.99680  Biso   1.000  O
  O196     1.0000 0.96470  0.43120  0.49680  Biso   1.000  O
  O197     1.0000 0.53530  0.93120  0.50320  Biso   1.000  O
  O198     1.0000 0.53530  0.43120  0.99680  Biso   1.000  O
  O199     1.0000 0.96470  0.93120  0.00320  Biso   1.000  O
  O200     1.0000 0.03530  0.56880  0.50320  Biso   1.000  O
  O201     1.0000 0.54380  0.05330  0.48880  Biso   1.000  O
  O202     1.0000 0.54380  0.55330  0.01120  Biso   1.000  O
  O203     1.0000 0.95620  0.05330  0.98880  Biso   1.000  O
  O204     1.0000 0.04380  0.44670  0.48880  Biso   1.000  O
  O205     1.0000 0.45620  0.94670  0.51120  Biso   1.000  O
  O206     1.0000 0.45620  0.44670  0.98880  Biso   1.000  O
  O207     1.0000 0.04380  0.94670  0.01120  Biso   1.000  O
  O208     1.0000 0.95620  0.55330  0.51120  Biso   1.000  O
  O209     1.0000 0.49690  0.06170  0.41260  Biso   1.000  O
  O210     1.0000 0.49690  0.56170  0.08740  Biso   1.000  O
  O211     1.0000 0.00310  0.06170  0.91260  Biso   1.000  O
  O212     1.0000 0.99690  0.43830  0.41260  Biso   1.000  O
  O213     1.0000 0.50310  0.93830  0.58740  Biso   1.000  O
  O214     1.0000 0.50310  0.43830  0.91260  Biso   1.000  O
  O215     1.0000 0.99690  0.93830  0.08740  Biso   1.000  O
  O216     1.0000 0.00310  0.56170  0.58740  Biso   1.000  O
  O217     1.0000 0.53770  0.04580  0.44790  Biso   1.000  O
  O218     1.0000 0.53770  0.54580  0.05210  Biso   1.000  O
  O219     1.0000 0.96230  0.04580  0.94790  Biso   1.000  O
  O220     1.0000 0.03770  0.45420  0.44790  Biso   1.000  O
  O221     1.0000 0.46230  0.95420  0.55210  Biso   1.000  O
  O222     1.0000 0.46230  0.45420  0.94790  Biso   1.000  O
  O223     1.0000 0.03770  0.95420  0.05210  Biso   1.000  O
  O224     1.0000 0.96230  0.54580  0.55210  Biso   1.000  O
  O225     1.0000 0.46040  0.06570  0.45650  Biso   1.000  O
  O226     1.0000 0.46040  0.56570  0.04350  Biso   1.000  O
  O227     1.0000 0.03960  0.06570  0.95650  Biso   1.000  O
  O228     1.0000 0.96040  0.43430  0.45650  Biso   1.000  O
  O229     1.0000 0.53960  0.93430  0.54350  Biso   1.000  O
  O230     1.0000 0.53960  0.43430  0.95650  Biso   1.000  O
  O231     1.0000 0.96040  0.93430  0.04350  Biso   1.000  O
  O232     1.0000 0.03960  0.56570  0.54350  Biso   1.000  O
  O233     1.0000 0.50750  0.06910  0.53240  Biso   1.000  O
  O234     1.0000 0.50750  0.56910  0.96760  Biso   1.000  O
  O235     1.0000 0.99250  0.06910  0.03240  Biso   1.000  O
  O236     1.0000 0.00750  0.43090  0.53240  Biso   1.000  O
  O237     1.0000 0.49250  0.93090  0.46760  Biso   1.000  O
  O238     1.0000 0.49250  0.43090  0.03240  Biso   1.000  O
  O239     1.0000 0.00750  0.93090  0.96760  Biso   1.000  O
  O240     1.0000 0.99250  0.56910  0.46760  Biso   1.000  O
  Cl17     1.0000 0.61880  0.20130  0.78950  Biso   1.000  Cl
  Cl18     1.0000 0.61880  0.70130  0.71050  Biso   1.000  Cl
  Cl19     1.0000 0.88120  0.20130  0.28950  Biso   1.000  Cl
  Cl20     1.0000 0.11880  0.29870  0.78950  Biso   1.000  Cl
  Cl21     1.0000 0.38120  0.79870  0.21050  Biso   1.000  Cl
  Cl22     1.0000 0.38120  0.29870  0.28950  Biso   1.000  Cl
  Cl23     1.0000 0.11880  0.79870  0.71050  Biso   1.000  Cl
  Cl24     1.0000 0.88120  0.70130  0.21050  Biso   1.000  Cl
  O241     1.0000 0.65050  0.18670  0.74970  Biso   1.000  O
  O242     1.0000 0.65050  0.68670  0.75030  Biso   1.000  O
  O243     1.0000 0.84950  0.18670  0.24970  Biso   1.000  O
  O244     1.0000 0.15050  0.31330  0.74970  Biso   1.000  O
  O245     1.0000 0.34950  0.81330  0.25030  Biso   1.000  O
  O246     1.0000 0.34950  0.31330  0.24970  Biso   1.000  O
  O247     1.0000 0.15050  0.81330  0.75030  Biso   1.000  O
  O248     1.0000 0.84950  0.68670  0.25030  Biso   1.000  O
  O249     1.0000 0.63770  0.23140  0.82670  Biso   1.000  O
  O250     1.0000 0.63770  0.73140  0.67330  Biso   1.000  O
  O251     1.0000 0.86230  0.23140  0.32670  Biso   1.000  O
  O252     1.0000 0.13770  0.26860  0.82670  Biso   1.000  O
  O253     1.0000 0.36230  0.76860  0.17330  Biso   1.000  O
  O254     1.0000 0.36230  0.26860  0.32670  Biso   1.000  O
  O255     1.0000 0.13770  0.76860  0.67330  Biso   1.000  O
  O256     1.0000 0.86230  0.73140  0.17330  Biso   1.000  O
  O257     1.0000 0.59880  0.16140  0.81080  Biso   1.000  O
  O258     1.0000 0.59880  0.66140  0.68920  Biso   1.000  O
  O259     1.0000 0.90120  0.16140  0.31080  Biso   1.000  O
  O260     1.0000 0.09880  0.33860  0.81080  Biso   1.000  O
  O261     1.0000 0.40120  0.83860  0.18920  Biso   1.000  O
  O262     1.0000 0.40120  0.33860  0.31080  Biso   1.000  O
  O263     1.0000 0.09880  0.83860  0.68920  Biso   1.000  O
  O264     1.0000 0.90120  0.66140  0.18920  Biso   1.000  O
  O265     1.0000 0.58320  0.22390  0.76170  Biso   1.000  O
  O266     1.0000 0.58320  0.72390  0.73830  Biso   1.000  O
  O267     1.0000 0.91680  0.22390  0.26170  Biso   1.000  O
  O268     1.0000 0.08320  0.27610  0.76170  Biso   1.000  O
  O269     1.0000 0.41680  0.77610  0.23830  Biso   1.000  O
  O270     1.0000 0.41680  0.27610  0.26170  Biso   1.000  O
  O271     1.0000 0.08320  0.77610  0.73830  Biso   1.000  O
  O272     1.0000 0.91680  0.72390  0.23830  Biso   1.000  O
  O273     1.0000 0.42990  0.20120  0.11310  Biso   1.000  O
  O274     1.0000 0.42990  0.70120  0.38690  Biso   1.000  O
  O275     1.0000 0.07010  0.20120  0.61310  Biso   1.000  O
  O276     1.0000 0.92990  0.29880  0.11310  Biso   1.000  O
  O277     1.0000 0.57010  0.79880  0.88690  Biso   1.000  O
  O278     1.0000 0.57010  0.29880  0.61310  Biso   1.000  O
  O279     1.0000 0.92990  0.79880  0.38690  Biso   1.000  O
  O280     1.0000 0.07010  0.70120  0.88690  Biso   1.000  O
  C545     1.0000 0.44780  0.21200  0.16680  Biso   1.000  C
  C546     1.0000 0.44780  0.71200  0.33320  Biso   1.000  C
  C547     1.0000 0.05220  0.21200  0.66680  Biso   1.000  C
  C548     1.0000 0.94780  0.28800  0.16680  Biso   1.000  C
  C549     1.0000 0.55220  0.78800  0.83320  Biso   1.000  C
  C550     1.0000 0.55220  0.28800  0.66680  Biso   1.000  C
  C551     1.0000 0.94780  0.78800  0.33320  Biso   1.000  C
  C552     1.0000 0.05220  0.71200  0.83320  Biso   1.000  C
  O281     1.0000 0.56170  0.21010  0.22450  Biso   1.000  O
  O282     1.0000 0.56170  0.71010  0.27550  Biso   1.000  O
  O283     1.0000 0.93830  0.21010  0.72450  Biso   1.000  O
  O284     1.0000 0.06170  0.28990  0.22450  Biso   1.000  O
  O285     1.0000 0.43830  0.78990  0.77550  Biso   1.000  O
  O286     1.0000 0.43830  0.28990  0.72450  Biso   1.000  O
  O287     1.0000 0.06170  0.78990  0.27550  Biso   1.000  O
  O288     1.0000 0.93830  0.71010  0.77550  Biso   1.000  O
  O289     1.0000 0.57370  0.17340  0.14700  Biso   1.000  O
  O290     1.0000 0.57370  0.67340  0.35300  Biso   1.000  O
  O291     1.0000 0.92630  0.17340  0.64700  Biso   1.000  O
  O292     1.0000 0.07370  0.32660  0.14700  Biso   1.000  O
  O293     1.0000 0.42630  0.82660  0.85300  Biso   1.000  O
  O294     1.0000 0.42630  0.32660  0.64700  Biso   1.000  O
  O295     1.0000 0.07370  0.82660  0.35300  Biso   1.000  O
  O296     1.0000 0.92630  0.67340  0.85300  Biso   1.000  O
