data_image0
_cell_length_a       44.4742
_cell_length_b       44.4742
_cell_length_c       44.4742
_cell_angle_alpha    90
_cell_angle_beta     90
_cell_angle_gamma    90

_symmetry_space_group_name_H-M    "P 1"
_symmetry_int_tables_number       1

loop_
  _symmetry_equiv_pos_as_xyz
  'x, y, z'

loop_
  _atom_site_label
  _atom_site_occupancy
  _atom_site_fract_x
  _atom_site_fract_y
  _atom_site_fract_z
  _atom_site_thermal_displace_type
  _atom_site_B_iso_or_equiv
  _atom_site_type_symbol
  Cu1      1.0000 0.16867  0.16867  0.00000  Biso   1.000  Cu
  Cu2      1.0000 0.16867  0.00000  0.16867  Biso   1.000  Cu
  Cu3      1.0000 0.16867  0.00000  0.83133  Biso   1.000  Cu
  Cu4      1.0000 0.00000  0.16867  0.83133  Biso   1.000  Cu
  Cu5      1.0000 0.00000  0.16867  0.16867  Biso   1.000  Cu
  Cu6      1.0000 0.83133  0.16867  0.00000  Biso   1.000  Cu
  Cu7      1.0000 0.16867  0.83133  0.00000  Biso   1.000  Cu
  Cu8      1.0000 0.83133  0.00000  0.16867  Biso   1.000  Cu
  Cu9      1.0000 0.00000  0.83133  0.83133  Biso   1.000  Cu
  Cu10     1.0000 0.83133  0.00000  0.83133  Biso   1.000  Cu
  Cu11     1.0000 0.00000  0.83133  0.16867  Biso   1.000  Cu
  Cu12     1.0000 0.83133  0.83133  0.00000  Biso   1.000  Cu
  Cu13     1.0000 0.16867  0.66867  0.50000  Biso   1.000  Cu
  Cu14     1.0000 0.16867  0.50000  0.66867  Biso   1.000  Cu
  Cu15     1.0000 0.16867  0.50000  0.33133  Biso   1.000  Cu
  Cu16     1.0000 0.00000  0.66867  0.33133  Biso   1.000  Cu
  Cu17     1.0000 0.00000  0.66867  0.66867  Biso   1.000  Cu
  Cu18     1.0000 0.83133  0.66867  0.50000  Biso   1.000  Cu
  Cu19     1.0000 0.16867  0.33133  0.50000  Biso   1.000  Cu
  Cu20     1.0000 0.83133  0.50000  0.66867  Biso   1.000  Cu
  Cu21     1.0000 0.00000  0.33133  0.33133  Biso   1.000  Cu
  Cu22     1.0000 0.83133  0.50000  0.33133  Biso   1.000  Cu
  Cu23     1.0000 0.00000  0.33133  0.66867  Biso   1.000  Cu
  Cu24     1.0000 0.83133  0.33133  0.50000  Biso   1.000  Cu
  Cu25     1.0000 0.66867  0.16867  0.50000  Biso   1.000  Cu
  Cu26     1.0000 0.66867  0.00000  0.66867  Biso   1.000  Cu
  Cu27     1.0000 0.66867  0.00000  0.33133  Biso   1.000  Cu
  Cu28     1.0000 0.50000  0.16867  0.33133  Biso   1.000  Cu
  Cu29     1.0000 0.50000  0.16867  0.66867  Biso   1.000  Cu
  Cu30     1.0000 0.33133  0.16867  0.50000  Biso   1.000  Cu
  Cu31     1.0000 0.66867  0.83133  0.50000  Biso   1.000  Cu
  Cu32     1.0000 0.33133  0.00000  0.66867  Biso   1.000  Cu
  Cu33     1.0000 0.50000  0.83133  0.33133  Biso   1.000  Cu
  Cu34     1.0000 0.33133  0.00000  0.33133  Biso   1.000  Cu
  Cu35     1.0000 0.50000  0.83133  0.66867  Biso   1.000  Cu
  Cu36     1.0000 0.33133  0.83133  0.50000  Biso   1.000  Cu
  Cu37     1.0000 0.66867  0.66867  0.00000  Biso   1.000  Cu
  Cu38     1.0000 0.66867  0.50000  0.16867  Biso   1.000  Cu
  Cu39     1.0000 0.66867  0.50000  0.83133  Biso   1.000  Cu
  Cu40     1.0000 0.50000  0.66867  0.83133  Biso   1.000  Cu
  Cu41     1.0000 0.50000  0.66867  0.16867  Biso   1.000  Cu
  Cu42     1.0000 0.33133  0.66867  0.00000  Biso   1.000  Cu
  Cu43     1.0000 0.66867  0.33133  0.00000  Biso   1.000  Cu
  Cu44     1.0000 0.33133  0.50000  0.16867  Biso   1.000  Cu
  Cu45     1.0000 0.50000  0.33133  0.83133  Biso   1.000  Cu
  Cu46     1.0000 0.33133  0.50000  0.83133  Biso   1.000  Cu
  Cu47     1.0000 0.50000  0.33133  0.16867  Biso   1.000  Cu
  Cu48     1.0000 0.33133  0.33133  0.00000  Biso   1.000  Cu
  Cu49     1.0000 0.12656  0.12656  0.00000  Biso   1.000  Cu
  Cu50     1.0000 0.12656  0.00000  0.12656  Biso   1.000  Cu
  Cu51     1.0000 0.12656  0.00000  0.87344  Biso   1.000  Cu
  Cu52     1.0000 0.00000  0.12656  0.87344  Biso   1.000  Cu
  Cu53     1.0000 0.00000  0.12656  0.12656  Biso   1.000  Cu
  Cu54     1.0000 0.87344  0.12656  0.00000  Biso   1.000  Cu
  Cu55     1.0000 0.12656  0.87344  0.00000  Biso   1.000  Cu
  Cu56     1.0000 0.87344  0.00000  0.12656  Biso   1.000  Cu
  Cu57     1.0000 0.00000  0.87344  0.87344  Biso   1.000  Cu
  Cu58     1.0000 0.87344  0.00000  0.87344  Biso   1.000  Cu
  Cu59     1.0000 0.00000  0.87344  0.12656  Biso   1.000  Cu
  Cu60     1.0000 0.87344  0.87344  0.00000  Biso   1.000  Cu
  Cu61     1.0000 0.12656  0.62656  0.50000  Biso   1.000  Cu
  Cu62     1.0000 0.12656  0.50000  0.62656  Biso   1.000  Cu
  Cu63     1.0000 0.12656  0.50000  0.37344  Biso   1.000  Cu
  Cu64     1.0000 0.00000  0.62656  0.37344  Biso   1.000  Cu
  Cu65     1.0000 0.00000  0.62656  0.62656  Biso   1.000  Cu
  Cu66     1.0000 0.87344  0.62656  0.50000  Biso   1.000  Cu
  Cu67     1.0000 0.12656  0.37344  0.50000  Biso   1.000  Cu
  Cu68     1.0000 0.87344  0.50000  0.62656  Biso   1.000  Cu
  Cu69     1.0000 0.00000  0.37344  0.37344  Biso   1.000  Cu
  Cu70     1.0000 0.87344  0.50000  0.37344  Biso   1.000  Cu
  Cu71     1.0000 0.00000  0.37344  0.62656  Biso   1.000  Cu
  Cu72     1.0000 0.87344  0.37344  0.50000  Biso   1.000  Cu
  Cu73     1.0000 0.62656  0.12656  0.50000  Biso   1.000  Cu
  Cu74     1.0000 0.62656  0.00000  0.62656  Biso   1.000  Cu
  Cu75     1.0000 0.62656  0.00000  0.37344  Biso   1.000  Cu
  Cu76     1.0000 0.50000  0.12656  0.37344  Biso   1.000  Cu
  Cu77     1.0000 0.50000  0.12656  0.62656  Biso   1.000  Cu
  Cu78     1.0000 0.37344  0.12656  0.50000  Biso   1.000  Cu
  Cu79     1.0000 0.62656  0.87344  0.50000  Biso   1.000  Cu
  Cu80     1.0000 0.37344  0.00000  0.62656  Biso   1.000  Cu
  Cu81     1.0000 0.50000  0.87344  0.37344  Biso   1.000  Cu
  Cu82     1.0000 0.37344  0.00000  0.37344  Biso   1.000  Cu
  Cu83     1.0000 0.50000  0.87344  0.62656  Biso   1.000  Cu
  Cu84     1.0000 0.37344  0.87344  0.50000  Biso   1.000  Cu
  Cu85     1.0000 0.62656  0.62656  0.00000  Biso   1.000  Cu
  Cu86     1.0000 0.62656  0.50000  0.12656  Biso   1.000  Cu
  Cu87     1.0000 0.62656  0.50000  0.87344  Biso   1.000  Cu
  Cu88     1.0000 0.50000  0.62656  0.87344  Biso   1.000  Cu
  Cu89     1.0000 0.50000  0.62656  0.12656  Biso   1.000  Cu
  Cu90     1.0000 0.37344  0.62656  0.00000  Biso   1.000  Cu
  Cu91     1.0000 0.62656  0.37344  0.00000  Biso   1.000  Cu
  Cu92     1.0000 0.37344  0.50000  0.12656  Biso   1.000  Cu
  Cu93     1.0000 0.50000  0.37344  0.87344  Biso   1.000  Cu
  Cu94     1.0000 0.37344  0.50000  0.87344  Biso   1.000  Cu
  Cu95     1.0000 0.50000  0.37344  0.12656  Biso   1.000  Cu
  Cu96     1.0000 0.37344  0.37344  0.00000  Biso   1.000  Cu
  Cu97     1.0000 0.32504  0.17496  0.12195  Biso   1.000  Cu
  Cu98     1.0000 0.32504  0.87805  0.17496  Biso   1.000  Cu
  Cu99     1.0000 0.32504  0.12195  0.82504  Biso   1.000  Cu
  Cu100    1.0000 0.12195  0.17496  0.67496  Biso   1.000  Cu
  Cu101    1.0000 0.87805  0.17496  0.32504  Biso   1.000  Cu
  Cu102    1.0000 0.82504  0.32504  0.12195  Biso   1.000  Cu
  Cu103    1.0000 0.17496  0.67496  0.12195  Biso   1.000  Cu
  Cu104    1.0000 0.12195  0.32504  0.17496  Biso   1.000  Cu
  Cu105    1.0000 0.17496  0.12195  0.32504  Biso   1.000  Cu
  Cu106    1.0000 0.82504  0.87805  0.32504  Biso   1.000  Cu
  Cu107    1.0000 0.12195  0.67496  0.82504  Biso   1.000  Cu
  Cu108    1.0000 0.82504  0.12195  0.67496  Biso   1.000  Cu
  Cu109    1.0000 0.87805  0.67496  0.17496  Biso   1.000  Cu
  Cu110    1.0000 0.87805  0.32504  0.82504  Biso   1.000  Cu
  Cu111    1.0000 0.17496  0.87805  0.67496  Biso   1.000  Cu
  Cu112    1.0000 0.32504  0.82504  0.87805  Biso   1.000  Cu
  Cu113    1.0000 0.67496  0.17496  0.87805  Biso   1.000  Cu
  Cu114    1.0000 0.67496  0.82504  0.12195  Biso   1.000  Cu
  Cu115    1.0000 0.17496  0.32504  0.87805  Biso   1.000  Cu
  Cu116    1.0000 0.82504  0.67496  0.87805  Biso   1.000  Cu
  Cu117    1.0000 0.12195  0.82504  0.32504  Biso   1.000  Cu
  Cu118    1.0000 0.87805  0.82504  0.67496  Biso   1.000  Cu
  Cu119    1.0000 0.67496  0.12195  0.17496  Biso   1.000  Cu
  Cu120    1.0000 0.67496  0.87805  0.82504  Biso   1.000  Cu
  Cu121    1.0000 0.32504  0.67496  0.62195  Biso   1.000  Cu
  Cu122    1.0000 0.32504  0.37805  0.67496  Biso   1.000  Cu
  Cu123    1.0000 0.32504  0.62195  0.32504  Biso   1.000  Cu
  Cu124    1.0000 0.12195  0.67496  0.17496  Biso   1.000  Cu
  Cu125    1.0000 0.87805  0.67496  0.82504  Biso   1.000  Cu
  Cu126    1.0000 0.82504  0.82504  0.62195  Biso   1.000  Cu
  Cu127    1.0000 0.17496  0.17496  0.62195  Biso   1.000  Cu
  Cu128    1.0000 0.12195  0.82504  0.67496  Biso   1.000  Cu
  Cu129    1.0000 0.17496  0.62195  0.82504  Biso   1.000  Cu
  Cu130    1.0000 0.82504  0.37805  0.82504  Biso   1.000  Cu
  Cu131    1.0000 0.12195  0.17496  0.32504  Biso   1.000  Cu
  Cu132    1.0000 0.82504  0.62195  0.17496  Biso   1.000  Cu
  Cu133    1.0000 0.87805  0.17496  0.67496  Biso   1.000  Cu
  Cu134    1.0000 0.87805  0.82504  0.32504  Biso   1.000  Cu
  Cu135    1.0000 0.17496  0.37805  0.17496  Biso   1.000  Cu
  Cu136    1.0000 0.32504  0.32504  0.37805  Biso   1.000  Cu
  Cu137    1.0000 0.67496  0.67496  0.37805  Biso   1.000  Cu
  Cu138    1.0000 0.67496  0.32504  0.62195  Biso   1.000  Cu
  Cu139    1.0000 0.17496  0.82504  0.37805  Biso   1.000  Cu
  Cu140    1.0000 0.82504  0.17496  0.37805  Biso   1.000  Cu
  Cu141    1.0000 0.12195  0.32504  0.82504  Biso   1.000  Cu
  Cu142    1.0000 0.87805  0.32504  0.17496  Biso   1.000  Cu
  Cu143    1.0000 0.67496  0.62195  0.67496  Biso   1.000  Cu
  Cu144    1.0000 0.67496  0.37805  0.32504  Biso   1.000  Cu
  Cu145    1.0000 0.82504  0.17496  0.62195  Biso   1.000  Cu
  Cu146    1.0000 0.82504  0.87805  0.67496  Biso   1.000  Cu
  Cu147    1.0000 0.82504  0.12195  0.32504  Biso   1.000  Cu
  Cu148    1.0000 0.62195  0.17496  0.17496  Biso   1.000  Cu
  Cu149    1.0000 0.37805  0.17496  0.82504  Biso   1.000  Cu
  Cu150    1.0000 0.32504  0.32504  0.62195  Biso   1.000  Cu
  Cu151    1.0000 0.67496  0.67496  0.62195  Biso   1.000  Cu
  Cu152    1.0000 0.62195  0.32504  0.67496  Biso   1.000  Cu
  Cu153    1.0000 0.67496  0.12195  0.82504  Biso   1.000  Cu
  Cu154    1.0000 0.32504  0.87805  0.82504  Biso   1.000  Cu
  Cu155    1.0000 0.62195  0.67496  0.32504  Biso   1.000  Cu
  Cu156    1.0000 0.32504  0.12195  0.17496  Biso   1.000  Cu
  Cu157    1.0000 0.37805  0.67496  0.67496  Biso   1.000  Cu
  Cu158    1.0000 0.37805  0.32504  0.32504  Biso   1.000  Cu
  Cu159    1.0000 0.67496  0.87805  0.17496  Biso   1.000  Cu
  Cu160    1.0000 0.82504  0.82504  0.37805  Biso   1.000  Cu
  Cu161    1.0000 0.17496  0.17496  0.37805  Biso   1.000  Cu
  Cu162    1.0000 0.17496  0.82504  0.62195  Biso   1.000  Cu
  Cu163    1.0000 0.67496  0.32504  0.37805  Biso   1.000  Cu
  Cu164    1.0000 0.32504  0.67496  0.37805  Biso   1.000  Cu
  Cu165    1.0000 0.62195  0.82504  0.82504  Biso   1.000  Cu
  Cu166    1.0000 0.37805  0.82504  0.17496  Biso   1.000  Cu
  Cu167    1.0000 0.17496  0.12195  0.67496  Biso   1.000  Cu
  Cu168    1.0000 0.17496  0.87805  0.32504  Biso   1.000  Cu
  Cu169    1.0000 0.82504  0.67496  0.12195  Biso   1.000  Cu
  Cu170    1.0000 0.82504  0.37805  0.17496  Biso   1.000  Cu
  Cu171    1.0000 0.82504  0.62195  0.82504  Biso   1.000  Cu
  Cu172    1.0000 0.62195  0.67496  0.67496  Biso   1.000  Cu
  Cu173    1.0000 0.37805  0.67496  0.32504  Biso   1.000  Cu
  Cu174    1.0000 0.32504  0.82504  0.12195  Biso   1.000  Cu
  Cu175    1.0000 0.67496  0.17496  0.12195  Biso   1.000  Cu
  Cu176    1.0000 0.62195  0.82504  0.17496  Biso   1.000  Cu
  Cu177    1.0000 0.67496  0.62195  0.32504  Biso   1.000  Cu
  Cu178    1.0000 0.32504  0.37805  0.32504  Biso   1.000  Cu
  Cu179    1.0000 0.62195  0.17496  0.82504  Biso   1.000  Cu
  Cu180    1.0000 0.32504  0.62195  0.67496  Biso   1.000  Cu
  Cu181    1.0000 0.37805  0.17496  0.17496  Biso   1.000  Cu
  Cu182    1.0000 0.37805  0.82504  0.82504  Biso   1.000  Cu
  Cu183    1.0000 0.67496  0.37805  0.67496  Biso   1.000  Cu
  Cu184    1.0000 0.82504  0.32504  0.87805  Biso   1.000  Cu
  Cu185    1.0000 0.17496  0.67496  0.87805  Biso   1.000  Cu
  Cu186    1.0000 0.17496  0.32504  0.12195  Biso   1.000  Cu
  Cu187    1.0000 0.67496  0.82504  0.87805  Biso   1.000  Cu
  Cu188    1.0000 0.32504  0.17496  0.87805  Biso   1.000  Cu
  Cu189    1.0000 0.62195  0.32504  0.32504  Biso   1.000  Cu
  Cu190    1.0000 0.37805  0.32504  0.67496  Biso   1.000  Cu
  Cu191    1.0000 0.17496  0.62195  0.17496  Biso   1.000  Cu
  Cu192    1.0000 0.17496  0.37805  0.82504  Biso   1.000  Cu
  O1       1.0000 0.09280  0.09280  0.00000  Biso   1.000  O
  O2       1.0000 0.09280  0.00000  0.09280  Biso   1.000  O
  O3       1.0000 0.09280  0.00000  0.90720  Biso   1.000  O
  O4       1.0000 0.00000  0.09280  0.90720  Biso   1.000  O
  O5       1.0000 0.00000  0.09280  0.09280  Biso   1.000  O
  O6       1.0000 0.90720  0.09280  0.00000  Biso   1.000  O
  O7       1.0000 0.09280  0.90720  0.00000  Biso   1.000  O
  O8       1.0000 0.90720  0.00000  0.09280  Biso   1.000  O
  O9       1.0000 0.00000  0.90720  0.90720  Biso   1.000  O
  O10      1.0000 0.90720  0.00000  0.90720  Biso   1.000  O
  O11      1.0000 0.00000  0.90720  0.09280  Biso   1.000  O
  O12      1.0000 0.90720  0.90720  0.00000  Biso   1.000  O
  O13      1.0000 0.09280  0.59280  0.50000  Biso   1.000  O
  O14      1.0000 0.09280  0.50000  0.59280  Biso   1.000  O
  O15      1.0000 0.09280  0.50000  0.40720  Biso   1.000  O
  O16      1.0000 0.00000  0.59280  0.40720  Biso   1.000  O
  O17      1.0000 0.00000  0.59280  0.59280  Biso   1.000  O
  O18      1.0000 0.90720  0.59280  0.50000  Biso   1.000  O
  O19      1.0000 0.09280  0.40720  0.50000  Biso   1.000  O
  O20      1.0000 0.90720  0.50000  0.59280  Biso   1.000  O
  O21      1.0000 0.00000  0.40720  0.40720  Biso   1.000  O
  O22      1.0000 0.90720  0.50000  0.40720  Biso   1.000  O
  O23      1.0000 0.00000  0.40720  0.59280  Biso   1.000  O
  O24      1.0000 0.90720  0.40720  0.50000  Biso   1.000  O
  O25      1.0000 0.59280  0.09280  0.50000  Biso   1.000  O
  O26      1.0000 0.59280  0.00000  0.59280  Biso   1.000  O
  O27      1.0000 0.59280  0.00000  0.40720  Biso   1.000  O
  O28      1.0000 0.50000  0.09280  0.40720  Biso   1.000  O
  O29      1.0000 0.50000  0.09280  0.59280  Biso   1.000  O
  O30      1.0000 0.40720  0.09280  0.50000  Biso   1.000  O
  O31      1.0000 0.59280  0.90720  0.50000  Biso   1.000  O
  O32      1.0000 0.40720  0.00000  0.59280  Biso   1.000  O
  O33      1.0000 0.50000  0.90720  0.40720  Biso   1.000  O
  O34      1.0000 0.40720  0.00000  0.40720  Biso   1.000  O
  O35      1.0000 0.50000  0.90720  0.59280  Biso   1.000  O
  O36      1.0000 0.40720  0.90720  0.50000  Biso   1.000  O
  O37      1.0000 0.59280  0.59280  0.00000  Biso   1.000  O
  O38      1.0000 0.59280  0.50000  0.09280  Biso   1.000  O
  O39      1.0000 0.59280  0.50000  0.90720  Biso   1.000  O
  O40      1.0000 0.50000  0.59280  0.90720  Biso   1.000  O
  O41      1.0000 0.50000  0.59280  0.09280  Biso   1.000  O
  O42      1.0000 0.40720  0.59280  0.00000  Biso   1.000  O
  O43      1.0000 0.59280  0.40720  0.00000  Biso   1.000  O
  O44      1.0000 0.40720  0.50000  0.09280  Biso   1.000  O
  O45      1.0000 0.50000  0.40720  0.90720  Biso   1.000  O
  O46      1.0000 0.40720  0.50000  0.90720  Biso   1.000  O
  O47      1.0000 0.50000  0.40720  0.09280  Biso   1.000  O
  O48      1.0000 0.40720  0.40720  0.00000  Biso   1.000  O
  O49      1.0000 0.20274  0.20274  0.00000  Biso   1.000  O
  O50      1.0000 0.20274  0.00000  0.20274  Biso   1.000  O
  O51      1.0000 0.20274  0.00000  0.79726  Biso   1.000  O
  O52      1.0000 0.00000  0.20274  0.79726  Biso   1.000  O
  O53      1.0000 0.00000  0.20274  0.20274  Biso   1.000  O
  O54      1.0000 0.79726  0.20274  0.00000  Biso   1.000  O
  O55      1.0000 0.20274  0.79726  0.00000  Biso   1.000  O
  O56      1.0000 0.79726  0.00000  0.20274  Biso   1.000  O
  O57      1.0000 0.00000  0.79726  0.79726  Biso   1.000  O
  O58      1.0000 0.79726  0.00000  0.79726  Biso   1.000  O
  O59      1.0000 0.00000  0.79726  0.20274  Biso   1.000  O
  O60      1.0000 0.79726  0.79726  0.00000  Biso   1.000  O
  O61      1.0000 0.20274  0.70274  0.50000  Biso   1.000  O
  O62      1.0000 0.20274  0.50000  0.70274  Biso   1.000  O
  O63      1.0000 0.20274  0.50000  0.29726  Biso   1.000  O
  O64      1.0000 0.00000  0.70274  0.29726  Biso   1.000  O
  O65      1.0000 0.00000  0.70274  0.70274  Biso   1.000  O
  O66      1.0000 0.79726  0.70274  0.50000  Biso   1.000  O
  O67      1.0000 0.20274  0.29726  0.50000  Biso   1.000  O
  O68      1.0000 0.79726  0.50000  0.70274  Biso   1.000  O
  O69      1.0000 0.00000  0.29726  0.29726  Biso   1.000  O
  O70      1.0000 0.79726  0.50000  0.29726  Biso   1.000  O
  O71      1.0000 0.00000  0.29726  0.70274  Biso   1.000  O
  O72      1.0000 0.79726  0.29726  0.50000  Biso   1.000  O
  O73      1.0000 0.70274  0.20274  0.50000  Biso   1.000  O
  O74      1.0000 0.70274  0.00000  0.70274  Biso   1.000  O
  O75      1.0000 0.70274  0.00000  0.29726  Biso   1.000  O
  O76      1.0000 0.50000  0.20274  0.29726  Biso   1.000  O
  O77      1.0000 0.50000  0.20274  0.70274  Biso   1.000  O
  O78      1.0000 0.29726  0.20274  0.50000  Biso   1.000  O
  O79      1.0000 0.70274  0.79726  0.50000  Biso   1.000  O
  O80      1.0000 0.29726  0.00000  0.70274  Biso   1.000  O
  O81      1.0000 0.50000  0.79726  0.29726  Biso   1.000  O
  O82      1.0000 0.29726  0.00000  0.29726  Biso   1.000  O
  O83      1.0000 0.50000  0.79726  0.70274  Biso   1.000  O
  O84      1.0000 0.29726  0.79726  0.50000  Biso   1.000  O
  O85      1.0000 0.70274  0.70274  0.00000  Biso   1.000  O
  O86      1.0000 0.70274  0.50000  0.20274  Biso   1.000  O
  O87      1.0000 0.70274  0.50000  0.79726  Biso   1.000  O
  O88      1.0000 0.50000  0.70274  0.79726  Biso   1.000  O
  O89      1.0000 0.50000  0.70274  0.20274  Biso   1.000  O
  O90      1.0000 0.29726  0.70274  0.00000  Biso   1.000  O
  O91      1.0000 0.70274  0.29726  0.00000  Biso   1.000  O
  O92      1.0000 0.29726  0.50000  0.20274  Biso   1.000  O
  O93      1.0000 0.50000  0.29726  0.79726  Biso   1.000  O
  O94      1.0000 0.29726  0.50000  0.79726  Biso   1.000  O
  O95      1.0000 0.50000  0.29726  0.20274  Biso   1.000  O
  O96      1.0000 0.29726  0.29726  0.00000  Biso   1.000  O
  O97      1.0000 0.15180  0.10747  0.03080  Biso   1.000  O
  O98      1.0000 0.15180  0.96920  0.10747  Biso   1.000  O
  O99      1.0000 0.15180  0.03080  0.89253  Biso   1.000  O
  O100     1.0000 0.03080  0.10747  0.84820  Biso   1.000  O
  O101     1.0000 0.96920  0.10747  0.15180  Biso   1.000  O
  O102     1.0000 0.89253  0.15180  0.03080  Biso   1.000  O
  O103     1.0000 0.10747  0.84820  0.03080  Biso   1.000  O
  O104     1.0000 0.03080  0.15180  0.10747  Biso   1.000  O
  O105     1.0000 0.10747  0.03080  0.15180  Biso   1.000  O
  O106     1.0000 0.89253  0.96920  0.15180  Biso   1.000  O
  O107     1.0000 0.03080  0.84820  0.89253  Biso   1.000  O
  O108     1.0000 0.89253  0.03080  0.84820  Biso   1.000  O
  O109     1.0000 0.96920  0.84820  0.10747  Biso   1.000  O
  O110     1.0000 0.96920  0.15180  0.89253  Biso   1.000  O
  O111     1.0000 0.10747  0.96920  0.84820  Biso   1.000  O
  O112     1.0000 0.15180  0.89253  0.96920  Biso   1.000  O
  O113     1.0000 0.84820  0.10747  0.96920  Biso   1.000  O
  O114     1.0000 0.84820  0.89253  0.03080  Biso   1.000  O
  O115     1.0000 0.10747  0.15180  0.96920  Biso   1.000  O
  O116     1.0000 0.89253  0.84820  0.96920  Biso   1.000  O
  O117     1.0000 0.03080  0.89253  0.15180  Biso   1.000  O
  O118     1.0000 0.96920  0.89253  0.84820  Biso   1.000  O
  O119     1.0000 0.84820  0.03080  0.10747  Biso   1.000  O
  O120     1.0000 0.84820  0.96920  0.89253  Biso   1.000  O
  O121     1.0000 0.15180  0.60747  0.53080  Biso   1.000  O
  O122     1.0000 0.15180  0.46920  0.60747  Biso   1.000  O
  O123     1.0000 0.15180  0.53080  0.39253  Biso   1.000  O
  O124     1.0000 0.03080  0.60747  0.34820  Biso   1.000  O
  O125     1.0000 0.96920  0.60747  0.65180  Biso   1.000  O
  O126     1.0000 0.89253  0.65180  0.53080  Biso   1.000  O
  O127     1.0000 0.10747  0.34820  0.53080  Biso   1.000  O
  O128     1.0000 0.03080  0.65180  0.60747  Biso   1.000  O
  O129     1.0000 0.10747  0.53080  0.65180  Biso   1.000  O
  O130     1.0000 0.89253  0.46920  0.65180  Biso   1.000  O
  O131     1.0000 0.03080  0.34820  0.39253  Biso   1.000  O
  O132     1.0000 0.89253  0.53080  0.34820  Biso   1.000  O
  O133     1.0000 0.96920  0.34820  0.60747  Biso   1.000  O
  O134     1.0000 0.96920  0.65180  0.39253  Biso   1.000  O
  O135     1.0000 0.10747  0.46920  0.34820  Biso   1.000  O
  O136     1.0000 0.15180  0.39253  0.46920  Biso   1.000  O
  O137     1.0000 0.84820  0.60747  0.46920  Biso   1.000  O
  O138     1.0000 0.84820  0.39253  0.53080  Biso   1.000  O
  O139     1.0000 0.10747  0.65180  0.46920  Biso   1.000  O
  O140     1.0000 0.89253  0.34820  0.46920  Biso   1.000  O
  O141     1.0000 0.03080  0.39253  0.65180  Biso   1.000  O
  O142     1.0000 0.96920  0.39253  0.34820  Biso   1.000  O
  O143     1.0000 0.84820  0.53080  0.60747  Biso   1.000  O
  O144     1.0000 0.84820  0.46920  0.39253  Biso   1.000  O
  O145     1.0000 0.65180  0.10747  0.53080  Biso   1.000  O
  O146     1.0000 0.65180  0.96920  0.60747  Biso   1.000  O
  O147     1.0000 0.65180  0.03080  0.39253  Biso   1.000  O
  O148     1.0000 0.53080  0.10747  0.34820  Biso   1.000  O
  O149     1.0000 0.46920  0.10747  0.65180  Biso   1.000  O
  O150     1.0000 0.39253  0.15180  0.53080  Biso   1.000  O
  O151     1.0000 0.60747  0.84820  0.53080  Biso   1.000  O
  O152     1.0000 0.53080  0.15180  0.60747  Biso   1.000  O
  O153     1.0000 0.60747  0.03080  0.65180  Biso   1.000  O
  O154     1.0000 0.39253  0.96920  0.65180  Biso   1.000  O
  O155     1.0000 0.53080  0.84820  0.39253  Biso   1.000  O
  O156     1.0000 0.39253  0.03080  0.34820  Biso   1.000  O
  O157     1.0000 0.46920  0.84820  0.60747  Biso   1.000  O
  O158     1.0000 0.46920  0.15180  0.39253  Biso   1.000  O
  O159     1.0000 0.60747  0.96920  0.34820  Biso   1.000  O
  O160     1.0000 0.65180  0.89253  0.46920  Biso   1.000  O
  O161     1.0000 0.34820  0.10747  0.46920  Biso   1.000  O
  O162     1.0000 0.34820  0.89253  0.53080  Biso   1.000  O
  O163     1.0000 0.60747  0.15180  0.46920  Biso   1.000  O
  O164     1.0000 0.39253  0.84820  0.46920  Biso   1.000  O
  O165     1.0000 0.53080  0.89253  0.65180  Biso   1.000  O
  O166     1.0000 0.46920  0.89253  0.34820  Biso   1.000  O
  O167     1.0000 0.34820  0.03080  0.60747  Biso   1.000  O
  O168     1.0000 0.34820  0.96920  0.39253  Biso   1.000  O
  O169     1.0000 0.65180  0.60747  0.03080  Biso   1.000  O
  O170     1.0000 0.65180  0.46920  0.10747  Biso   1.000  O
  O171     1.0000 0.65180  0.53080  0.89253  Biso   1.000  O
  O172     1.0000 0.53080  0.60747  0.84820  Biso   1.000  O
  O173     1.0000 0.46920  0.60747  0.15180  Biso   1.000  O
  O174     1.0000 0.39253  0.65180  0.03080  Biso   1.000  O
  O175     1.0000 0.60747  0.34820  0.03080  Biso   1.000  O
  O176     1.0000 0.53080  0.65180  0.10747  Biso   1.000  O
  O177     1.0000 0.60747  0.53080  0.15180  Biso   1.000  O
  O178     1.0000 0.39253  0.46920  0.15180  Biso   1.000  O
  O179     1.0000 0.53080  0.34820  0.89253  Biso   1.000  O
  O180     1.0000 0.39253  0.53080  0.84820  Biso   1.000  O
  O181     1.0000 0.46920  0.34820  0.10747  Biso   1.000  O
  O182     1.0000 0.46920  0.65180  0.89253  Biso   1.000  O
  O183     1.0000 0.60747  0.46920  0.84820  Biso   1.000  O
  O184     1.0000 0.65180  0.39253  0.96920  Biso   1.000  O
  O185     1.0000 0.34820  0.60747  0.96920  Biso   1.000  O
  O186     1.0000 0.34820  0.39253  0.03080  Biso   1.000  O
  O187     1.0000 0.60747  0.65180  0.96920  Biso   1.000  O
  O188     1.0000 0.39253  0.34820  0.96920  Biso   1.000  O
  O189     1.0000 0.53080  0.39253  0.15180  Biso   1.000  O
  O190     1.0000 0.46920  0.39253  0.84820  Biso   1.000  O
  O191     1.0000 0.34820  0.53080  0.10747  Biso   1.000  O
  O192     1.0000 0.34820  0.46920  0.89253  Biso   1.000  O
  O193     1.0000 0.84820  0.89253  0.96920  Biso   1.000  O
  O194     1.0000 0.84820  0.03080  0.89253  Biso   1.000  O
  O195     1.0000 0.84820  0.96920  0.10747  Biso   1.000  O
  O196     1.0000 0.96920  0.89253  0.15180  Biso   1.000  O
  O197     1.0000 0.03080  0.89253  0.84820  Biso   1.000  O
  O198     1.0000 0.10747  0.84820  0.96920  Biso   1.000  O
  O199     1.0000 0.89253  0.15180  0.96920  Biso   1.000  O
  O200     1.0000 0.96920  0.84820  0.89253  Biso   1.000  O
  O201     1.0000 0.89253  0.96920  0.84820  Biso   1.000  O
  O202     1.0000 0.10747  0.03080  0.84820  Biso   1.000  O
  O203     1.0000 0.96920  0.15180  0.10747  Biso   1.000  O
  O204     1.0000 0.10747  0.96920  0.15180  Biso   1.000  O
  O205     1.0000 0.03080  0.15180  0.89253  Biso   1.000  O
  O206     1.0000 0.03080  0.84820  0.10747  Biso   1.000  O
  O207     1.0000 0.89253  0.03080  0.15180  Biso   1.000  O
  O208     1.0000 0.84820  0.10747  0.03080  Biso   1.000  O
  O209     1.0000 0.15180  0.89253  0.03080  Biso   1.000  O
  O210     1.0000 0.15180  0.10747  0.96920  Biso   1.000  O
  O211     1.0000 0.89253  0.84820  0.03080  Biso   1.000  O
  O212     1.0000 0.10747  0.15180  0.03080  Biso   1.000  O
  O213     1.0000 0.96920  0.10747  0.84820  Biso   1.000  O
  O214     1.0000 0.03080  0.10747  0.15180  Biso   1.000  O
  O215     1.0000 0.15180  0.96920  0.89253  Biso   1.000  O
  O216     1.0000 0.15180  0.03080  0.10747  Biso   1.000  O
  O217     1.0000 0.84820  0.39253  0.46920  Biso   1.000  O
  O218     1.0000 0.84820  0.53080  0.39253  Biso   1.000  O
  O219     1.0000 0.84820  0.46920  0.60747  Biso   1.000  O
  O220     1.0000 0.96920  0.39253  0.65180  Biso   1.000  O
  O221     1.0000 0.03080  0.39253  0.34820  Biso   1.000  O
  O222     1.0000 0.10747  0.34820  0.46920  Biso   1.000  O
  O223     1.0000 0.89253  0.65180  0.46920  Biso   1.000  O
  O224     1.0000 0.96920  0.34820  0.39253  Biso   1.000  O
  O225     1.0000 0.89253  0.46920  0.34820  Biso   1.000  O
  O226     1.0000 0.10747  0.53080  0.34820  Biso   1.000  O
  O227     1.0000 0.96920  0.65180  0.60747  Biso   1.000  O
  O228     1.0000 0.10747  0.46920  0.65180  Biso   1.000  O
  O229     1.0000 0.03080  0.65180  0.39253  Biso   1.000  O
  O230     1.0000 0.03080  0.34820  0.60747  Biso   1.000  O
  O231     1.0000 0.89253  0.53080  0.65180  Biso   1.000  O
  O232     1.0000 0.84820  0.60747  0.53080  Biso   1.000  O
  O233     1.0000 0.15180  0.39253  0.53080  Biso   1.000  O
  O234     1.0000 0.15180  0.60747  0.46920  Biso   1.000  O
  O235     1.0000 0.89253  0.34820  0.53080  Biso   1.000  O
  O236     1.0000 0.10747  0.65180  0.53080  Biso   1.000  O
  O237     1.0000 0.96920  0.60747  0.34820  Biso   1.000  O
  O238     1.0000 0.03080  0.60747  0.65180  Biso   1.000  O
  O239     1.0000 0.15180  0.46920  0.39253  Biso   1.000  O
  O240     1.0000 0.15180  0.53080  0.60747  Biso   1.000  O
  O241     1.0000 0.34820  0.89253  0.46920  Biso   1.000  O
  O242     1.0000 0.34820  0.03080  0.39253  Biso   1.000  O
  O243     1.0000 0.34820  0.96920  0.60747  Biso   1.000  O
  O244     1.0000 0.46920  0.89253  0.65180  Biso   1.000  O
  O245     1.0000 0.53080  0.89253  0.34820  Biso   1.000  O
  O246     1.0000 0.60747  0.84820  0.46920  Biso   1.000  O
  O247     1.0000 0.39253  0.15180  0.46920  Biso   1.000  O
  O248     1.0000 0.46920  0.84820  0.39253  Biso   1.000  O
  O249     1.0000 0.39253  0.96920  0.34820  Biso   1.000  O
  O250     1.0000 0.60747  0.03080  0.34820  Biso   1.000  O
  O251     1.0000 0.46920  0.15180  0.60747  Biso   1.000  O
  O252     1.0000 0.60747  0.96920  0.65180  Biso   1.000  O
  O253     1.0000 0.53080  0.15180  0.39253  Biso   1.000  O
  O254     1.0000 0.53080  0.84820  0.60747  Biso   1.000  O
  O255     1.0000 0.39253  0.03080  0.65180  Biso   1.000  O
  O256     1.0000 0.34820  0.10747  0.53080  Biso   1.000  O
  O257     1.0000 0.65180  0.89253  0.53080  Biso   1.000  O
  O258     1.0000 0.65180  0.10747  0.46920  Biso   1.000  O
  O259     1.0000 0.39253  0.84820  0.53080  Biso   1.000  O
  O260     1.0000 0.60747  0.15180  0.53080  Biso   1.000  O
  O261     1.0000 0.46920  0.10747  0.34820  Biso   1.000  O
  O262     1.0000 0.53080  0.10747  0.65180  Biso   1.000  O
  O263     1.0000 0.65180  0.96920  0.39253  Biso   1.000  O
  O264     1.0000 0.65180  0.03080  0.60747  Biso   1.000  O
  O265     1.0000 0.34820  0.39253  0.96920  Biso   1.000  O
  O266     1.0000 0.34820  0.53080  0.89253  Biso   1.000  O
  O267     1.0000 0.34820  0.46920  0.10747  Biso   1.000  O
  O268     1.0000 0.46920  0.39253  0.15180  Biso   1.000  O
  O269     1.0000 0.53080  0.39253  0.84820  Biso   1.000  O
  O270     1.0000 0.60747  0.34820  0.96920  Biso   1.000  O
  O271     1.0000 0.39253  0.65180  0.96920  Biso   1.000  O
  O272     1.0000 0.46920  0.34820  0.89253  Biso   1.000  O
  O273     1.0000 0.39253  0.46920  0.84820  Biso   1.000  O
  O274     1.0000 0.60747  0.53080  0.84820  Biso   1.000  O
  O275     1.0000 0.46920  0.65180  0.10747  Biso   1.000  O
  O276     1.0000 0.60747  0.46920  0.15180  Biso   1.000  O
  O277     1.0000 0.53080  0.65180  0.89253  Biso   1.000  O
  O278     1.0000 0.53080  0.34820  0.10747  Biso   1.000  O
  O279     1.0000 0.39253  0.53080  0.15180  Biso   1.000  O
  O280     1.0000 0.34820  0.60747  0.03080  Biso   1.000  O
  O281     1.0000 0.65180  0.39253  0.03080  Biso   1.000  O
  O282     1.0000 0.65180  0.60747  0.96920  Biso   1.000  O
  O283     1.0000 0.39253  0.34820  0.03080  Biso   1.000  O
  O284     1.0000 0.60747  0.65180  0.03080  Biso   1.000  O
  O285     1.0000 0.46920  0.60747  0.84820  Biso   1.000  O
  O286     1.0000 0.53080  0.60747  0.15180  Biso   1.000  O
  O287     1.0000 0.65180  0.46920  0.89253  Biso   1.000  O
  O288     1.0000 0.65180  0.53080  0.10747  Biso   1.000  O
  O289     1.0000 0.18716  0.14352  0.03059  Biso   1.000  O
  O290     1.0000 0.18716  0.96941  0.14352  Biso   1.000  O
  O291     1.0000 0.18716  0.03059  0.85648  Biso   1.000  O
  O292     1.0000 0.03059  0.14352  0.81284  Biso   1.000  O
  O293     1.0000 0.96941  0.14352  0.18716  Biso   1.000  O
  O294     1.0000 0.85648  0.18716  0.03059  Biso   1.000  O
  O295     1.0000 0.14352  0.81284  0.03059  Biso   1.000  O
  O296     1.0000 0.03059  0.18716  0.14352  Biso   1.000  O
  O297     1.0000 0.14352  0.03059  0.18716  Biso   1.000  O
  O298     1.0000 0.85648  0.96941  0.18716  Biso   1.000  O
  O299     1.0000 0.03059  0.81284  0.85648  Biso   1.000  O
  O300     1.0000 0.85648  0.03059  0.81284  Biso   1.000  O
  O301     1.0000 0.96941  0.81284  0.14352  Biso   1.000  O
  O302     1.0000 0.96941  0.18716  0.85648  Biso   1.000  O
  O303     1.0000 0.14352  0.96941  0.81284  Biso   1.000  O
  O304     1.0000 0.18716  0.85648  0.96941  Biso   1.000  O
  O305     1.0000 0.81284  0.14352  0.96941  Biso   1.000  O
  O306     1.0000 0.81284  0.85648  0.03059  Biso   1.000  O
  O307     1.0000 0.14352  0.18716  0.96941  Biso   1.000  O
  O308     1.0000 0.85648  0.81284  0.96941  Biso   1.000  O
  O309     1.0000 0.03059  0.85648  0.18716  Biso   1.000  O
  O310     1.0000 0.96941  0.85648  0.81284  Biso   1.000  O
  O311     1.0000 0.81284  0.03059  0.14352  Biso   1.000  O
  O312     1.0000 0.81284  0.96941  0.85648  Biso   1.000  O
  O313     1.0000 0.18716  0.64352  0.53059  Biso   1.000  O
  O314     1.0000 0.18716  0.46941  0.64352  Biso   1.000  O
  O315     1.0000 0.18716  0.53059  0.35648  Biso   1.000  O
  O316     1.0000 0.03059  0.64352  0.31284  Biso   1.000  O
  O317     1.0000 0.96941  0.64352  0.68716  Biso   1.000  O
  O318     1.0000 0.85648  0.68716  0.53059  Biso   1.000  O
  O319     1.0000 0.14352  0.31284  0.53059  Biso   1.000  O
  O320     1.0000 0.03059  0.68716  0.64352  Biso   1.000  O
  O321     1.0000 0.14352  0.53059  0.68716  Biso   1.000  O
  O322     1.0000 0.85648  0.46941  0.68716  Biso   1.000  O
  O323     1.0000 0.03059  0.31284  0.35648  Biso   1.000  O
  O324     1.0000 0.85648  0.53059  0.31284  Biso   1.000  O
  O325     1.0000 0.96941  0.31284  0.64352  Biso   1.000  O
  O326     1.0000 0.96941  0.68716  0.35648  Biso   1.000  O
  O327     1.0000 0.14352  0.46941  0.31284  Biso   1.000  O
  O328     1.0000 0.18716  0.35648  0.46941  Biso   1.000  O
  O329     1.0000 0.81284  0.64352  0.46941  Biso   1.000  O
  O330     1.0000 0.81284  0.35648  0.53059  Biso   1.000  O
  O331     1.0000 0.14352  0.68716  0.46941  Biso   1.000  O
  O332     1.0000 0.85648  0.31284  0.46941  Biso   1.000  O
  O333     1.0000 0.03059  0.35648  0.68716  Biso   1.000  O
  O334     1.0000 0.96941  0.35648  0.31284  Biso   1.000  O
  O335     1.0000 0.81284  0.53059  0.64352  Biso   1.000  O
  O336     1.0000 0.81284  0.46941  0.35648  Biso   1.000  O
  O337     1.0000 0.68716  0.14352  0.53059  Biso   1.000  O
  O338     1.0000 0.68716  0.96941  0.64352  Biso   1.000  O
  O339     1.0000 0.68716  0.03059  0.35648  Biso   1.000  O
  O340     1.0000 0.53059  0.14352  0.31284  Biso   1.000  O
  O341     1.0000 0.46941  0.14352  0.68716  Biso   1.000  O
  O342     1.0000 0.35648  0.18716  0.53059  Biso   1.000  O
  O343     1.0000 0.64352  0.81284  0.53059  Biso   1.000  O
  O344     1.0000 0.53059  0.18716  0.64352  Biso   1.000  O
  O345     1.0000 0.64352  0.03059  0.68716  Biso   1.000  O
  O346     1.0000 0.35648  0.96941  0.68716  Biso   1.000  O
  O347     1.0000 0.53059  0.81284  0.35648  Biso   1.000  O
  O348     1.0000 0.35648  0.03059  0.31284  Biso   1.000  O
  O349     1.0000 0.46941  0.81284  0.64352  Biso   1.000  O
  O350     1.0000 0.46941  0.18716  0.35648  Biso   1.000  O
  O351     1.0000 0.64352  0.96941  0.31284  Biso   1.000  O
  O352     1.0000 0.68716  0.85648  0.46941  Biso   1.000  O
  O353     1.0000 0.31284  0.14352  0.46941  Biso   1.000  O
  O354     1.0000 0.31284  0.85648  0.53059  Biso   1.000  O
  O355     1.0000 0.64352  0.18716  0.46941  Biso   1.000  O
  O356     1.0000 0.35648  0.81284  0.46941  Biso   1.000  O
  O357     1.0000 0.53059  0.85648  0.68716  Biso   1.000  O
  O358     1.0000 0.46941  0.85648  0.31284  Biso   1.000  O
  O359     1.0000 0.31284  0.03059  0.64352  Biso   1.000  O
  O360     1.0000 0.31284  0.96941  0.35648  Biso   1.000  O
  O361     1.0000 0.68716  0.64352  0.03059  Biso   1.000  O
  O362     1.0000 0.68716  0.46941  0.14352  Biso   1.000  O
  O363     1.0000 0.68716  0.53059  0.85648  Biso   1.000  O
  O364     1.0000 0.53059  0.64352  0.81284  Biso   1.000  O
  O365     1.0000 0.46941  0.64352  0.18716  Biso   1.000  O
  O366     1.0000 0.35648  0.68716  0.03059  Biso   1.000  O
  O367     1.0000 0.64352  0.31284  0.03059  Biso   1.000  O
  O368     1.0000 0.53059  0.68716  0.14352  Biso   1.000  O
  O369     1.0000 0.64352  0.53059  0.18716  Biso   1.000  O
  O370     1.0000 0.35648  0.46941  0.18716  Biso   1.000  O
  O371     1.0000 0.53059  0.31284  0.85648  Biso   1.000  O
  O372     1.0000 0.35648  0.53059  0.81284  Biso   1.000  O
  O373     1.0000 0.46941  0.31284  0.14352  Biso   1.000  O
  O374     1.0000 0.46941  0.68716  0.85648  Biso   1.000  O
  O375     1.0000 0.64352  0.46941  0.81284  Biso   1.000  O
  O376     1.0000 0.68716  0.35648  0.96941  Biso   1.000  O
  O377     1.0000 0.31284  0.64352  0.96941  Biso   1.000  O
  O378     1.0000 0.31284  0.35648  0.03059  Biso   1.000  O
  O379     1.0000 0.64352  0.68716  0.96941  Biso   1.000  O
  O380     1.0000 0.35648  0.31284  0.96941  Biso   1.000  O
  O381     1.0000 0.53059  0.35648  0.18716  Biso   1.000  O
  O382     1.0000 0.46941  0.35648  0.81284  Biso   1.000  O
  O383     1.0000 0.31284  0.53059  0.14352  Biso   1.000  O
  O384     1.0000 0.31284  0.46941  0.85648  Biso   1.000  O
  O385     1.0000 0.81284  0.85648  0.96941  Biso   1.000  O
  O386     1.0000 0.81284  0.03059  0.85648  Biso   1.000  O
  O387     1.0000 0.81284  0.96941  0.14352  Biso   1.000  O
  O388     1.0000 0.96941  0.85648  0.18716  Biso   1.000  O
  O389     1.0000 0.03059  0.85648  0.81284  Biso   1.000  O
  O390     1.0000 0.14352  0.81284  0.96941  Biso   1.000  O
  O391     1.0000 0.85648  0.18716  0.96941  Biso   1.000  O
  O392     1.0000 0.96941  0.81284  0.85648  Biso   1.000  O
  O393     1.0000 0.85648  0.96941  0.81284  Biso   1.000  O
  O394     1.0000 0.14352  0.03059  0.81284  Biso   1.000  O
  O395     1.0000 0.96941  0.18716  0.14352  Biso   1.000  O
  O396     1.0000 0.14352  0.96941  0.18716  Biso   1.000  O
  O397     1.0000 0.03059  0.18716  0.85648  Biso   1.000  O
  O398     1.0000 0.03059  0.81284  0.14352  Biso   1.000  O
  O399     1.0000 0.85648  0.03059  0.18716  Biso   1.000  O
  O400     1.0000 0.81284  0.14352  0.03059  Biso   1.000  O
  O401     1.0000 0.18716  0.85648  0.03059  Biso   1.000  O
  O402     1.0000 0.18716  0.14352  0.96941  Biso   1.000  O
  O403     1.0000 0.85648  0.81284  0.03059  Biso   1.000  O
  O404     1.0000 0.14352  0.18716  0.03059  Biso   1.000  O
  O405     1.0000 0.96941  0.14352  0.81284  Biso   1.000  O
  O406     1.0000 0.03059  0.14352  0.18716  Biso   1.000  O
  O407     1.0000 0.18716  0.96941  0.85648  Biso   1.000  O
  O408     1.0000 0.18716  0.03059  0.14352  Biso   1.000  O
  O409     1.0000 0.81284  0.35648  0.46941  Biso   1.000  O
  O410     1.0000 0.81284  0.53059  0.35648  Biso   1.000  O
  O411     1.0000 0.81284  0.46941  0.64352  Biso   1.000  O
  O412     1.0000 0.96941  0.35648  0.68716  Biso   1.000  O
  O413     1.0000 0.03059  0.35648  0.31284  Biso   1.000  O
  O414     1.0000 0.14352  0.31284  0.46941  Biso   1.000  O
  O415     1.0000 0.85648  0.68716  0.46941  Biso   1.000  O
  O416     1.0000 0.96941  0.31284  0.35648  Biso   1.000  O
  O417     1.0000 0.85648  0.46941  0.31284  Biso   1.000  O
  O418     1.0000 0.14352  0.53059  0.31284  Biso   1.000  O
  O419     1.0000 0.96941  0.68716  0.64352  Biso   1.000  O
  O420     1.0000 0.14352  0.46941  0.68716  Biso   1.000  O
  O421     1.0000 0.03059  0.68716  0.35648  Biso   1.000  O
  O422     1.0000 0.03059  0.31284  0.64352  Biso   1.000  O
  O423     1.0000 0.85648  0.53059  0.68716  Biso   1.000  O
  O424     1.0000 0.81284  0.64352  0.53059  Biso   1.000  O
  O425     1.0000 0.18716  0.35648  0.53059  Biso   1.000  O
  O426     1.0000 0.18716  0.64352  0.46941  Biso   1.000  O
  O427     1.0000 0.85648  0.31284  0.53059  Biso   1.000  O
  O428     1.0000 0.14352  0.68716  0.53059  Biso   1.000  O
  O429     1.0000 0.96941  0.64352  0.31284  Biso   1.000  O
  O430     1.0000 0.03059  0.64352  0.68716  Biso   1.000  O
  O431     1.0000 0.18716  0.46941  0.35648  Biso   1.000  O
  O432     1.0000 0.18716  0.53059  0.64352  Biso   1.000  O
  O433     1.0000 0.31284  0.85648  0.46941  Biso   1.000  O
  O434     1.0000 0.31284  0.03059  0.35648  Biso   1.000  O
  O435     1.0000 0.31284  0.96941  0.64352  Biso   1.000  O
  O436     1.0000 0.46941  0.85648  0.68716  Biso   1.000  O
  O437     1.0000 0.53059  0.85648  0.31284  Biso   1.000  O
  O438     1.0000 0.64352  0.81284  0.46941  Biso   1.000  O
  O439     1.0000 0.35648  0.18716  0.46941  Biso   1.000  O
  O440     1.0000 0.46941  0.81284  0.35648  Biso   1.000  O
  O441     1.0000 0.35648  0.96941  0.31284  Biso   1.000  O
  O442     1.0000 0.64352  0.03059  0.31284  Biso   1.000  O
  O443     1.0000 0.46941  0.18716  0.64352  Biso   1.000  O
  O444     1.0000 0.64352  0.96941  0.68716  Biso   1.000  O
  O445     1.0000 0.53059  0.18716  0.35648  Biso   1.000  O
  O446     1.0000 0.53059  0.81284  0.64352  Biso   1.000  O
  O447     1.0000 0.35648  0.03059  0.68716  Biso   1.000  O
  O448     1.0000 0.31284  0.14352  0.53059  Biso   1.000  O
  O449     1.0000 0.68716  0.85648  0.53059  Biso   1.000  O
  O450     1.0000 0.68716  0.14352  0.46941  Biso   1.000  O
  O451     1.0000 0.35648  0.81284  0.53059  Biso   1.000  O
  O452     1.0000 0.64352  0.18716  0.53059  Biso   1.000  O
  O453     1.0000 0.46941  0.14352  0.31284  Biso   1.000  O
  O454     1.0000 0.53059  0.14352  0.68716  Biso   1.000  O
  O455     1.0000 0.68716  0.96941  0.35648  Biso   1.000  O
  O456     1.0000 0.68716  0.03059  0.64352  Biso   1.000  O
  O457     1.0000 0.31284  0.35648  0.96941  Biso   1.000  O
  O458     1.0000 0.31284  0.53059  0.85648  Biso   1.000  O
  O459     1.0000 0.31284  0.46941  0.14352  Biso   1.000  O
  O460     1.0000 0.46941  0.35648  0.18716  Biso   1.000  O
  O461     1.0000 0.53059  0.35648  0.81284  Biso   1.000  O
  O462     1.0000 0.64352  0.31284  0.96941  Biso   1.000  O
  O463     1.0000 0.35648  0.68716  0.96941  Biso   1.000  O
  O464     1.0000 0.46941  0.31284  0.85648  Biso   1.000  O
  O465     1.0000 0.35648  0.46941  0.81284  Biso   1.000  O
  O466     1.0000 0.64352  0.53059  0.81284  Biso   1.000  O
  O467     1.0000 0.46941  0.68716  0.14352  Biso   1.000  O
  O468     1.0000 0.64352  0.46941  0.18716  Biso   1.000  O
  O469     1.0000 0.53059  0.68716  0.85648  Biso   1.000  O
  O470     1.0000 0.53059  0.31284  0.14352  Biso   1.000  O
  O471     1.0000 0.35648  0.53059  0.18716  Biso   1.000  O
  O472     1.0000 0.31284  0.64352  0.03059  Biso   1.000  O
  O473     1.0000 0.68716  0.35648  0.03059  Biso   1.000  O
  O474     1.0000 0.68716  0.64352  0.96941  Biso   1.000  O
  O475     1.0000 0.35648  0.31284  0.03059  Biso   1.000  O
  O476     1.0000 0.64352  0.68716  0.03059  Biso   1.000  O
  O477     1.0000 0.46941  0.64352  0.81284  Biso   1.000  O
  O478     1.0000 0.53059  0.64352  0.18716  Biso   1.000  O
  O479     1.0000 0.68716  0.46941  0.85648  Biso   1.000  O
  O480     1.0000 0.68716  0.53059  0.14352  Biso   1.000  O
  O481     1.0000 0.33930  0.16070  0.16070  Biso   1.000  O
  O482     1.0000 0.33930  0.83930  0.16070  Biso   1.000  O
  O483     1.0000 0.33930  0.16070  0.83930  Biso   1.000  O
  O484     1.0000 0.16070  0.16070  0.66070  Biso   1.000  O
  O485     1.0000 0.83930  0.16070  0.33930  Biso   1.000  O
  O486     1.0000 0.83930  0.33930  0.16070  Biso   1.000  O
  O487     1.0000 0.16070  0.66070  0.16070  Biso   1.000  O
  O488     1.0000 0.16070  0.33930  0.16070  Biso   1.000  O
  O489     1.0000 0.16070  0.16070  0.33930  Biso   1.000  O
  O490     1.0000 0.83930  0.83930  0.33930  Biso   1.000  O
  O491     1.0000 0.16070  0.66070  0.83930  Biso   1.000  O
  O492     1.0000 0.83930  0.16070  0.66070  Biso   1.000  O
  O493     1.0000 0.83930  0.66070  0.16070  Biso   1.000  O
  O494     1.0000 0.83930  0.33930  0.83930  Biso   1.000  O
  O495     1.0000 0.16070  0.83930  0.66070  Biso   1.000  O
  O496     1.0000 0.33930  0.83930  0.83930  Biso   1.000  O
  O497     1.0000 0.66070  0.16070  0.83930  Biso   1.000  O
  O498     1.0000 0.66070  0.83930  0.16070  Biso   1.000  O
  O499     1.0000 0.16070  0.33930  0.83930  Biso   1.000  O
  O500     1.0000 0.83930  0.66070  0.83930  Biso   1.000  O
  O501     1.0000 0.16070  0.83930  0.33930  Biso   1.000  O
  O502     1.0000 0.83930  0.83930  0.66070  Biso   1.000  O
  O503     1.0000 0.66070  0.16070  0.16070  Biso   1.000  O
  O504     1.0000 0.66070  0.83930  0.83930  Biso   1.000  O
  O505     1.0000 0.33930  0.66070  0.66070  Biso   1.000  O
  O506     1.0000 0.33930  0.33930  0.66070  Biso   1.000  O
  O507     1.0000 0.33930  0.66070  0.33930  Biso   1.000  O
  O508     1.0000 0.33930  0.33930  0.33930  Biso   1.000  O
  O509     1.0000 0.66070  0.66070  0.33930  Biso   1.000  O
  O510     1.0000 0.66070  0.33930  0.66070  Biso   1.000  O
  O511     1.0000 0.66070  0.66070  0.66070  Biso   1.000  O
  O512     1.0000 0.66070  0.33930  0.33930  Biso   1.000  O
  O513     1.0000 0.30420  0.19580  0.08910  Biso   1.000  O
  O514     1.0000 0.30420  0.91090  0.19580  Biso   1.000  O
  O515     1.0000 0.30420  0.08910  0.80420  Biso   1.000  O
  O516     1.0000 0.08910  0.19580  0.69580  Biso   1.000  O
  O517     1.0000 0.91090  0.19580  0.30420  Biso   1.000  O
  O518     1.0000 0.80420  0.30420  0.08910  Biso   1.000  O
  O519     1.0000 0.19580  0.69580  0.08910  Biso   1.000  O
  O520     1.0000 0.08910  0.30420  0.19580  Biso   1.000  O
  O521     1.0000 0.19580  0.08910  0.30420  Biso   1.000  O
  O522     1.0000 0.80420  0.91090  0.30420  Biso   1.000  O
  O523     1.0000 0.08910  0.69580  0.80420  Biso   1.000  O
  O524     1.0000 0.80420  0.08910  0.69580  Biso   1.000  O
  O525     1.0000 0.91090  0.69580  0.19580  Biso   1.000  O
  O526     1.0000 0.91090  0.30420  0.80420  Biso   1.000  O
  O527     1.0000 0.19580  0.91090  0.69580  Biso   1.000  O
  O528     1.0000 0.30420  0.80420  0.91090  Biso   1.000  O
  O529     1.0000 0.69580  0.19580  0.91090  Biso   1.000  O
  O530     1.0000 0.69580  0.80420  0.08910  Biso   1.000  O
  O531     1.0000 0.19580  0.30420  0.91090  Biso   1.000  O
  O532     1.0000 0.80420  0.69580  0.91090  Biso   1.000  O
  O533     1.0000 0.08910  0.80420  0.30420  Biso   1.000  O
  O534     1.0000 0.91090  0.80420  0.69580  Biso   1.000  O
  O535     1.0000 0.69580  0.08910  0.19580  Biso   1.000  O
  O536     1.0000 0.69580  0.91090  0.80420  Biso   1.000  O
  O537     1.0000 0.30420  0.69580  0.58910  Biso   1.000  O
  O538     1.0000 0.30420  0.41090  0.69580  Biso   1.000  O
  O539     1.0000 0.30420  0.58910  0.30420  Biso   1.000  O
  O540     1.0000 0.08910  0.69580  0.19580  Biso   1.000  O
  O541     1.0000 0.91090  0.69580  0.80420  Biso   1.000  O
  O542     1.0000 0.80420  0.80420  0.58910  Biso   1.000  O
  O543     1.0000 0.19580  0.19580  0.58910  Biso   1.000  O
  O544     1.0000 0.08910  0.80420  0.69580  Biso   1.000  O
  O545     1.0000 0.19580  0.58910  0.80420  Biso   1.000  O
  O546     1.0000 0.80420  0.41090  0.80420  Biso   1.000  O
  O547     1.0000 0.08910  0.19580  0.30420  Biso   1.000  O
  O548     1.0000 0.80420  0.58910  0.19580  Biso   1.000  O
  O549     1.0000 0.91090  0.19580  0.69580  Biso   1.000  O
  O550     1.0000 0.91090  0.80420  0.30420  Biso   1.000  O
  O551     1.0000 0.19580  0.41090  0.19580  Biso   1.000  O
  O552     1.0000 0.30420  0.30420  0.41090  Biso   1.000  O
  O553     1.0000 0.69580  0.69580  0.41090  Biso   1.000  O
  O554     1.0000 0.69580  0.30420  0.58910  Biso   1.000  O
  O555     1.0000 0.19580  0.80420  0.41090  Biso   1.000  O
  O556     1.0000 0.80420  0.19580  0.41090  Biso   1.000  O
  O557     1.0000 0.08910  0.30420  0.80420  Biso   1.000  O
  O558     1.0000 0.91090  0.30420  0.19580  Biso   1.000  O
  O559     1.0000 0.69580  0.58910  0.69580  Biso   1.000  O
  O560     1.0000 0.69580  0.41090  0.30420  Biso   1.000  O
  O561     1.0000 0.80420  0.19580  0.58910  Biso   1.000  O
  O562     1.0000 0.80420  0.91090  0.69580  Biso   1.000  O
  O563     1.0000 0.80420  0.08910  0.30420  Biso   1.000  O
  O564     1.0000 0.58910  0.19580  0.19580  Biso   1.000  O
  O565     1.0000 0.41090  0.19580  0.80420  Biso   1.000  O
  O566     1.0000 0.30420  0.30420  0.58910  Biso   1.000  O
  O567     1.0000 0.69580  0.69580  0.58910  Biso   1.000  O
  O568     1.0000 0.58910  0.30420  0.69580  Biso   1.000  O
  O569     1.0000 0.69580  0.08910  0.80420  Biso   1.000  O
  O570     1.0000 0.30420  0.91090  0.80420  Biso   1.000  O
  O571     1.0000 0.58910  0.69580  0.30420  Biso   1.000  O
  O572     1.0000 0.30420  0.08910  0.19580  Biso   1.000  O
  O573     1.0000 0.41090  0.69580  0.69580  Biso   1.000  O
  O574     1.0000 0.41090  0.30420  0.30420  Biso   1.000  O
  O575     1.0000 0.69580  0.91090  0.19580  Biso   1.000  O
  O576     1.0000 0.80420  0.80420  0.41090  Biso   1.000  O
  O577     1.0000 0.19580  0.19580  0.41090  Biso   1.000  O
  O578     1.0000 0.19580  0.80420  0.58910  Biso   1.000  O
  O579     1.0000 0.69580  0.30420  0.41090  Biso   1.000  O
  O580     1.0000 0.30420  0.69580  0.41090  Biso   1.000  O
  O581     1.0000 0.58910  0.80420  0.80420  Biso   1.000  O
  O582     1.0000 0.41090  0.80420  0.19580  Biso   1.000  O
  O583     1.0000 0.19580  0.08910  0.69580  Biso   1.000  O
  O584     1.0000 0.19580  0.91090  0.30420  Biso   1.000  O
  O585     1.0000 0.80420  0.69580  0.08910  Biso   1.000  O
  O586     1.0000 0.80420  0.41090  0.19580  Biso   1.000  O
  O587     1.0000 0.80420  0.58910  0.80420  Biso   1.000  O
  O588     1.0000 0.58910  0.69580  0.69580  Biso   1.000  O
  O589     1.0000 0.41090  0.69580  0.30420  Biso   1.000  O
  O590     1.0000 0.30420  0.80420  0.08910  Biso   1.000  O
  O591     1.0000 0.69580  0.19580  0.08910  Biso   1.000  O
  O592     1.0000 0.58910  0.80420  0.19580  Biso   1.000  O
  O593     1.0000 0.69580  0.58910  0.30420  Biso   1.000  O
  O594     1.0000 0.30420  0.41090  0.30420  Biso   1.000  O
  O595     1.0000 0.58910  0.19580  0.80420  Biso   1.000  O
  O596     1.0000 0.30420  0.58910  0.69580  Biso   1.000  O
  O597     1.0000 0.41090  0.19580  0.19580  Biso   1.000  O
  O598     1.0000 0.41090  0.80420  0.80420  Biso   1.000  O
  O599     1.0000 0.69580  0.41090  0.69580  Biso   1.000  O
  O600     1.0000 0.80420  0.30420  0.91090  Biso   1.000  O
  O601     1.0000 0.19580  0.69580  0.91090  Biso   1.000  O
  O602     1.0000 0.19580  0.30420  0.08910  Biso   1.000  O
  O603     1.0000 0.69580  0.80420  0.91090  Biso   1.000  O
  O604     1.0000 0.30420  0.19580  0.91090  Biso   1.000  O
  O605     1.0000 0.58910  0.30420  0.30420  Biso   1.000  O
  O606     1.0000 0.41090  0.30420  0.69580  Biso   1.000  O
  O607     1.0000 0.19580  0.58910  0.19580  Biso   1.000  O
  O608     1.0000 0.19580  0.41090  0.80420  Biso   1.000  O
  N1       1.0000 0.27094  0.13891  0.10352  Biso   1.000  N
  N2       1.0000 0.27094  0.89648  0.13891  Biso   1.000  N
  N3       1.0000 0.27094  0.10352  0.86109  Biso   1.000  N
  N4       1.0000 0.10352  0.13891  0.72906  Biso   1.000  N
  N5       1.0000 0.89648  0.13891  0.27094  Biso   1.000  N
  N6       1.0000 0.86109  0.27094  0.10352  Biso   1.000  N
  N7       1.0000 0.13891  0.72906  0.10352  Biso   1.000  N
  N8       1.0000 0.10352  0.27094  0.13891  Biso   1.000  N
  N9       1.0000 0.13891  0.10352  0.27094  Biso   1.000  N
  N10      1.0000 0.86109  0.89648  0.27094  Biso   1.000  N
  N11      1.0000 0.10352  0.72906  0.86109  Biso   1.000  N
  N12      1.0000 0.86109  0.10352  0.72906  Biso   1.000  N
  N13      1.0000 0.89648  0.72906  0.13891  Biso   1.000  N
  N14      1.0000 0.89648  0.27094  0.86109  Biso   1.000  N
  N15      1.0000 0.13891  0.89648  0.72906  Biso   1.000  N
  N16      1.0000 0.27094  0.86109  0.89648  Biso   1.000  N
  N17      1.0000 0.72906  0.13891  0.89648  Biso   1.000  N
  N18      1.0000 0.72906  0.86109  0.10352  Biso   1.000  N
  N19      1.0000 0.13891  0.27094  0.89648  Biso   1.000  N
  N20      1.0000 0.86109  0.72906  0.89648  Biso   1.000  N
  N21      1.0000 0.10352  0.86109  0.27094  Biso   1.000  N
  N22      1.0000 0.89648  0.86109  0.72906  Biso   1.000  N
  N23      1.0000 0.72906  0.10352  0.13891  Biso   1.000  N
  N24      1.0000 0.72906  0.89648  0.86109  Biso   1.000  N
  N25      1.0000 0.27094  0.63891  0.60352  Biso   1.000  N
  N26      1.0000 0.27094  0.39648  0.63891  Biso   1.000  N
  N27      1.0000 0.27094  0.60352  0.36109  Biso   1.000  N
  N28      1.0000 0.10352  0.63891  0.22906  Biso   1.000  N
  N29      1.0000 0.89648  0.63891  0.77094  Biso   1.000  N
  N30      1.0000 0.86109  0.77094  0.60352  Biso   1.000  N
  N31      1.0000 0.13891  0.22906  0.60352  Biso   1.000  N
  N32      1.0000 0.10352  0.77094  0.63891  Biso   1.000  N
  N33      1.0000 0.13891  0.60352  0.77094  Biso   1.000  N
  N34      1.0000 0.86109  0.39648  0.77094  Biso   1.000  N
  N35      1.0000 0.10352  0.22906  0.36109  Biso   1.000  N
  N36      1.0000 0.86109  0.60352  0.22906  Biso   1.000  N
  N37      1.0000 0.89648  0.22906  0.63891  Biso   1.000  N
  N38      1.0000 0.89648  0.77094  0.36109  Biso   1.000  N
  N39      1.0000 0.13891  0.39648  0.22906  Biso   1.000  N
  N40      1.0000 0.27094  0.36109  0.39648  Biso   1.000  N
  N41      1.0000 0.72906  0.63891  0.39648  Biso   1.000  N
  N42      1.0000 0.72906  0.36109  0.60352  Biso   1.000  N
  N43      1.0000 0.13891  0.77094  0.39648  Biso   1.000  N
  N44      1.0000 0.86109  0.22906  0.39648  Biso   1.000  N
  N45      1.0000 0.10352  0.36109  0.77094  Biso   1.000  N
  N46      1.0000 0.89648  0.36109  0.22906  Biso   1.000  N
  N47      1.0000 0.72906  0.60352  0.63891  Biso   1.000  N
  N48      1.0000 0.72906  0.39648  0.36109  Biso   1.000  N
  N49      1.0000 0.77094  0.13891  0.60352  Biso   1.000  N
  N50      1.0000 0.77094  0.89648  0.63891  Biso   1.000  N
  N51      1.0000 0.77094  0.10352  0.36109  Biso   1.000  N
  N52      1.0000 0.60352  0.13891  0.22906  Biso   1.000  N
  N53      1.0000 0.39648  0.13891  0.77094  Biso   1.000  N
  N54      1.0000 0.36109  0.27094  0.60352  Biso   1.000  N
  N55      1.0000 0.63891  0.72906  0.60352  Biso   1.000  N
  N56      1.0000 0.60352  0.27094  0.63891  Biso   1.000  N
  N57      1.0000 0.63891  0.10352  0.77094  Biso   1.000  N
  N58      1.0000 0.36109  0.89648  0.77094  Biso   1.000  N
  N59      1.0000 0.60352  0.72906  0.36109  Biso   1.000  N
  N60      1.0000 0.36109  0.10352  0.22906  Biso   1.000  N
  N61      1.0000 0.39648  0.72906  0.63891  Biso   1.000  N
  N62      1.0000 0.39648  0.27094  0.36109  Biso   1.000  N
  N63      1.0000 0.63891  0.89648  0.22906  Biso   1.000  N
  N64      1.0000 0.77094  0.86109  0.39648  Biso   1.000  N
  N65      1.0000 0.22906  0.13891  0.39648  Biso   1.000  N
  N66      1.0000 0.22906  0.86109  0.60352  Biso   1.000  N
  N67      1.0000 0.63891  0.27094  0.39648  Biso   1.000  N
  N68      1.0000 0.36109  0.72906  0.39648  Biso   1.000  N
  N69      1.0000 0.60352  0.86109  0.77094  Biso   1.000  N
  N70      1.0000 0.39648  0.86109  0.22906  Biso   1.000  N
  N71      1.0000 0.22906  0.10352  0.63891  Biso   1.000  N
  N72      1.0000 0.22906  0.89648  0.36109  Biso   1.000  N
  N73      1.0000 0.77094  0.63891  0.10352  Biso   1.000  N
  N74      1.0000 0.77094  0.39648  0.13891  Biso   1.000  N
  N75      1.0000 0.77094  0.60352  0.86109  Biso   1.000  N
  N76      1.0000 0.60352  0.63891  0.72906  Biso   1.000  N
  N77      1.0000 0.39648  0.63891  0.27094  Biso   1.000  N
  N78      1.0000 0.36109  0.77094  0.10352  Biso   1.000  N
  N79      1.0000 0.63891  0.22906  0.10352  Biso   1.000  N
  N80      1.0000 0.60352  0.77094  0.13891  Biso   1.000  N
  N81      1.0000 0.63891  0.60352  0.27094  Biso   1.000  N
  N82      1.0000 0.36109  0.39648  0.27094  Biso   1.000  N
  N83      1.0000 0.60352  0.22906  0.86109  Biso   1.000  N
  N84      1.0000 0.36109  0.60352  0.72906  Biso   1.000  N
  N85      1.0000 0.39648  0.22906  0.13891  Biso   1.000  N
  N86      1.0000 0.39648  0.77094  0.86109  Biso   1.000  N
  N87      1.0000 0.63891  0.39648  0.72906  Biso   1.000  N
  N88      1.0000 0.77094  0.36109  0.89648  Biso   1.000  N
  N89      1.0000 0.22906  0.63891  0.89648  Biso   1.000  N
  N90      1.0000 0.22906  0.36109  0.10352  Biso   1.000  N
  N91      1.0000 0.63891  0.77094  0.89648  Biso   1.000  N
  N92      1.0000 0.36109  0.22906  0.89648  Biso   1.000  N
  N93      1.0000 0.60352  0.36109  0.27094  Biso   1.000  N
  N94      1.0000 0.39648  0.36109  0.72906  Biso   1.000  N
  N95      1.0000 0.22906  0.60352  0.13891  Biso   1.000  N
  N96      1.0000 0.22906  0.39648  0.86109  Biso   1.000  N
  N97      1.0000 0.72906  0.86109  0.89648  Biso   1.000  N
  N98      1.0000 0.72906  0.10352  0.86109  Biso   1.000  N
  N99      1.0000 0.72906  0.89648  0.13891  Biso   1.000  N
  N100     1.0000 0.89648  0.86109  0.27094  Biso   1.000  N
  N101     1.0000 0.10352  0.86109  0.72906  Biso   1.000  N
  N102     1.0000 0.13891  0.72906  0.89648  Biso   1.000  N
  N103     1.0000 0.86109  0.27094  0.89648  Biso   1.000  N
  N104     1.0000 0.89648  0.72906  0.86109  Biso   1.000  N
  N105     1.0000 0.86109  0.89648  0.72906  Biso   1.000  N
  N106     1.0000 0.13891  0.10352  0.72906  Biso   1.000  N
  N107     1.0000 0.89648  0.27094  0.13891  Biso   1.000  N
  N108     1.0000 0.13891  0.89648  0.27094  Biso   1.000  N
  N109     1.0000 0.10352  0.27094  0.86109  Biso   1.000  N
  N110     1.0000 0.10352  0.72906  0.13891  Biso   1.000  N
  N111     1.0000 0.86109  0.10352  0.27094  Biso   1.000  N
  N112     1.0000 0.72906  0.13891  0.10352  Biso   1.000  N
  N113     1.0000 0.27094  0.86109  0.10352  Biso   1.000  N
  N114     1.0000 0.27094  0.13891  0.89648  Biso   1.000  N
  N115     1.0000 0.86109  0.72906  0.10352  Biso   1.000  N
  N116     1.0000 0.13891  0.27094  0.10352  Biso   1.000  N
  N117     1.0000 0.89648  0.13891  0.72906  Biso   1.000  N
  N118     1.0000 0.10352  0.13891  0.27094  Biso   1.000  N
  N119     1.0000 0.27094  0.89648  0.86109  Biso   1.000  N
  N120     1.0000 0.27094  0.10352  0.13891  Biso   1.000  N
  N121     1.0000 0.72906  0.36109  0.39648  Biso   1.000  N
  N122     1.0000 0.72906  0.60352  0.36109  Biso   1.000  N
  N123     1.0000 0.72906  0.39648  0.63891  Biso   1.000  N
  N124     1.0000 0.89648  0.36109  0.77094  Biso   1.000  N
  N125     1.0000 0.10352  0.36109  0.22906  Biso   1.000  N
  N126     1.0000 0.13891  0.22906  0.39648  Biso   1.000  N
  N127     1.0000 0.86109  0.77094  0.39648  Biso   1.000  N
  N128     1.0000 0.89648  0.22906  0.36109  Biso   1.000  N
  N129     1.0000 0.86109  0.39648  0.22906  Biso   1.000  N
  N130     1.0000 0.13891  0.60352  0.22906  Biso   1.000  N
  N131     1.0000 0.89648  0.77094  0.63891  Biso   1.000  N
  N132     1.0000 0.13891  0.39648  0.77094  Biso   1.000  N
  N133     1.0000 0.10352  0.77094  0.36109  Biso   1.000  N
  N134     1.0000 0.10352  0.22906  0.63891  Biso   1.000  N
  N135     1.0000 0.86109  0.60352  0.77094  Biso   1.000  N
  N136     1.0000 0.72906  0.63891  0.60352  Biso   1.000  N
  N137     1.0000 0.27094  0.36109  0.60352  Biso   1.000  N
  N138     1.0000 0.27094  0.63891  0.39648  Biso   1.000  N
  N139     1.0000 0.86109  0.22906  0.60352  Biso   1.000  N
  N140     1.0000 0.13891  0.77094  0.60352  Biso   1.000  N
  N141     1.0000 0.89648  0.63891  0.22906  Biso   1.000  N
  N142     1.0000 0.10352  0.63891  0.77094  Biso   1.000  N
  N143     1.0000 0.27094  0.39648  0.36109  Biso   1.000  N
  N144     1.0000 0.27094  0.60352  0.63891  Biso   1.000  N
  N145     1.0000 0.22906  0.86109  0.39648  Biso   1.000  N
  N146     1.0000 0.22906  0.10352  0.36109  Biso   1.000  N
  N147     1.0000 0.22906  0.89648  0.63891  Biso   1.000  N
  N148     1.0000 0.39648  0.86109  0.77094  Biso   1.000  N
  N149     1.0000 0.60352  0.86109  0.22906  Biso   1.000  N
  N150     1.0000 0.63891  0.72906  0.39648  Biso   1.000  N
  N151     1.0000 0.36109  0.27094  0.39648  Biso   1.000  N
  N152     1.0000 0.39648  0.72906  0.36109  Biso   1.000  N
  N153     1.0000 0.36109  0.89648  0.22906  Biso   1.000  N
  N154     1.0000 0.63891  0.10352  0.22906  Biso   1.000  N
  N155     1.0000 0.39648  0.27094  0.63891  Biso   1.000  N
  N156     1.0000 0.63891  0.89648  0.77094  Biso   1.000  N
  N157     1.0000 0.60352  0.27094  0.36109  Biso   1.000  N
  N158     1.0000 0.60352  0.72906  0.63891  Biso   1.000  N
  N159     1.0000 0.36109  0.10352  0.77094  Biso   1.000  N
  N160     1.0000 0.22906  0.13891  0.60352  Biso   1.000  N
  N161     1.0000 0.77094  0.86109  0.60352  Biso   1.000  N
  N162     1.0000 0.77094  0.13891  0.39648  Biso   1.000  N
  N163     1.0000 0.36109  0.72906  0.60352  Biso   1.000  N
  N164     1.0000 0.63891  0.27094  0.60352  Biso   1.000  N
  N165     1.0000 0.39648  0.13891  0.22906  Biso   1.000  N
  N166     1.0000 0.60352  0.13891  0.77094  Biso   1.000  N
  N167     1.0000 0.77094  0.89648  0.36109  Biso   1.000  N
  N168     1.0000 0.77094  0.10352  0.63891  Biso   1.000  N
  N169     1.0000 0.22906  0.36109  0.89648  Biso   1.000  N
  N170     1.0000 0.22906  0.60352  0.86109  Biso   1.000  N
  N171     1.0000 0.22906  0.39648  0.13891  Biso   1.000  N
  N172     1.0000 0.39648  0.36109  0.27094  Biso   1.000  N
  N173     1.0000 0.60352  0.36109  0.72906  Biso   1.000  N
  N174     1.0000 0.63891  0.22906  0.89648  Biso   1.000  N
  N175     1.0000 0.36109  0.77094  0.89648  Biso   1.000  N
  N176     1.0000 0.39648  0.22906  0.86109  Biso   1.000  N
  N177     1.0000 0.36109  0.39648  0.72906  Biso   1.000  N
  N178     1.0000 0.63891  0.60352  0.72906  Biso   1.000  N
  N179     1.0000 0.39648  0.77094  0.13891  Biso   1.000  N
  N180     1.0000 0.63891  0.39648  0.27094  Biso   1.000  N
  N181     1.0000 0.60352  0.77094  0.86109  Biso   1.000  N
  N182     1.0000 0.60352  0.22906  0.13891  Biso   1.000  N
  N183     1.0000 0.36109  0.60352  0.27094  Biso   1.000  N
  N184     1.0000 0.22906  0.63891  0.10352  Biso   1.000  N
  N185     1.0000 0.77094  0.36109  0.10352  Biso   1.000  N
  N186     1.0000 0.77094  0.63891  0.89648  Biso   1.000  N
  N187     1.0000 0.36109  0.22906  0.10352  Biso   1.000  N
  N188     1.0000 0.63891  0.77094  0.10352  Biso   1.000  N
  N189     1.0000 0.39648  0.63891  0.72906  Biso   1.000  N
  N190     1.0000 0.60352  0.63891  0.27094  Biso   1.000  N
  N191     1.0000 0.77094  0.39648  0.86109  Biso   1.000  N
  N192     1.0000 0.77094  0.60352  0.13891  Biso   1.000  N
  N193     1.0000 0.29256  0.14567  0.12575  Biso   1.000  N
  N194     1.0000 0.29256  0.87425  0.14567  Biso   1.000  N
  N195     1.0000 0.29256  0.12575  0.85433  Biso   1.000  N
  N196     1.0000 0.12575  0.14567  0.70744  Biso   1.000  N
  N197     1.0000 0.87425  0.14567  0.29256  Biso   1.000  N
  N198     1.0000 0.85433  0.29256  0.12575  Biso   1.000  N
  N199     1.0000 0.14567  0.70744  0.12575  Biso   1.000  N
  N200     1.0000 0.12575  0.29256  0.14567  Biso   1.000  N
  N201     1.0000 0.14567  0.12575  0.29256  Biso   1.000  N
  N202     1.0000 0.85433  0.87425  0.29256  Biso   1.000  N
  N203     1.0000 0.12575  0.70744  0.85433  Biso   1.000  N
  N204     1.0000 0.85433  0.12575  0.70744  Biso   1.000  N
  N205     1.0000 0.87425  0.70744  0.14567  Biso   1.000  N
  N206     1.0000 0.87425  0.29256  0.85433  Biso   1.000  N
  N207     1.0000 0.14567  0.87425  0.70744  Biso   1.000  N
  N208     1.0000 0.29256  0.85433  0.87425  Biso   1.000  N
  N209     1.0000 0.70744  0.14567  0.87425  Biso   1.000  N
  N210     1.0000 0.70744  0.85433  0.12575  Biso   1.000  N
  N211     1.0000 0.14567  0.29256  0.87425  Biso   1.000  N
  N212     1.0000 0.85433  0.70744  0.87425  Biso   1.000  N
  N213     1.0000 0.12575  0.85433  0.29256  Biso   1.000  N
  N214     1.0000 0.87425  0.85433  0.70744  Biso   1.000  N
  N215     1.0000 0.70744  0.12575  0.14567  Biso   1.000  N
  N216     1.0000 0.70744  0.87425  0.85433  Biso   1.000  N
  N217     1.0000 0.29256  0.64567  0.62575  Biso   1.000  N
  N218     1.0000 0.29256  0.37425  0.64567  Biso   1.000  N
  N219     1.0000 0.29256  0.62575  0.35433  Biso   1.000  N
  N220     1.0000 0.12575  0.64567  0.20744  Biso   1.000  N
  N221     1.0000 0.87425  0.64567  0.79256  Biso   1.000  N
  N222     1.0000 0.85433  0.79256  0.62575  Biso   1.000  N
  N223     1.0000 0.14567  0.20744  0.62575  Biso   1.000  N
  N224     1.0000 0.12575  0.79256  0.64567  Biso   1.000  N
  N225     1.0000 0.14567  0.62575  0.79256  Biso   1.000  N
  N226     1.0000 0.85433  0.37425  0.79256  Biso   1.000  N
  N227     1.0000 0.12575  0.20744  0.35433  Biso   1.000  N
  N228     1.0000 0.85433  0.62575  0.20744  Biso   1.000  N
  N229     1.0000 0.87425  0.20744  0.64567  Biso   1.000  N
  N230     1.0000 0.87425  0.79256  0.35433  Biso   1.000  N
  N231     1.0000 0.14567  0.37425  0.20744  Biso   1.000  N
  N232     1.0000 0.29256  0.35433  0.37425  Biso   1.000  N
  N233     1.0000 0.70744  0.64567  0.37425  Biso   1.000  N
  N234     1.0000 0.70744  0.35433  0.62575  Biso   1.000  N
  N235     1.0000 0.14567  0.79256  0.37425  Biso   1.000  N
  N236     1.0000 0.85433  0.20744  0.37425  Biso   1.000  N
  N237     1.0000 0.12575  0.35433  0.79256  Biso   1.000  N
  N238     1.0000 0.87425  0.35433  0.20744  Biso   1.000  N
  N239     1.0000 0.70744  0.62575  0.64567  Biso   1.000  N
  N240     1.0000 0.70744  0.37425  0.35433  Biso   1.000  N
  N241     1.0000 0.79256  0.14567  0.62575  Biso   1.000  N
  N242     1.0000 0.79256  0.87425  0.64567  Biso   1.000  N
  N243     1.0000 0.79256  0.12575  0.35433  Biso   1.000  N
  N244     1.0000 0.62575  0.14567  0.20744  Biso   1.000  N
  N245     1.0000 0.37425  0.14567  0.79256  Biso   1.000  N
  N246     1.0000 0.35433  0.29256  0.62575  Biso   1.000  N
  N247     1.0000 0.64567  0.70744  0.62575  Biso   1.000  N
  N248     1.0000 0.62575  0.29256  0.64567  Biso   1.000  N
  N249     1.0000 0.64567  0.12575  0.79256  Biso   1.000  N
  N250     1.0000 0.35433  0.87425  0.79256  Biso   1.000  N
  N251     1.0000 0.62575  0.70744  0.35433  Biso   1.000  N
  N252     1.0000 0.35433  0.12575  0.20744  Biso   1.000  N
  N253     1.0000 0.37425  0.70744  0.64567  Biso   1.000  N
  N254     1.0000 0.37425  0.29256  0.35433  Biso   1.000  N
  N255     1.0000 0.64567  0.87425  0.20744  Biso   1.000  N
  N256     1.0000 0.79256  0.85433  0.37425  Biso   1.000  N
  N257     1.0000 0.20744  0.14567  0.37425  Biso   1.000  N
  N258     1.0000 0.20744  0.85433  0.62575  Biso   1.000  N
  N259     1.0000 0.64567  0.29256  0.37425  Biso   1.000  N
  N260     1.0000 0.35433  0.70744  0.37425  Biso   1.000  N
  N261     1.0000 0.62575  0.85433  0.79256  Biso   1.000  N
  N262     1.0000 0.37425  0.85433  0.20744  Biso   1.000  N
  N263     1.0000 0.20744  0.12575  0.64567  Biso   1.000  N
  N264     1.0000 0.20744  0.87425  0.35433  Biso   1.000  N
  N265     1.0000 0.79256  0.64567  0.12575  Biso   1.000  N
  N266     1.0000 0.79256  0.37425  0.14567  Biso   1.000  N
  N267     1.0000 0.79256  0.62575  0.85433  Biso   1.000  N
  N268     1.0000 0.62575  0.64567  0.70744  Biso   1.000  N
  N269     1.0000 0.37425  0.64567  0.29256  Biso   1.000  N
  N270     1.0000 0.35433  0.79256  0.12575  Biso   1.000  N
  N271     1.0000 0.64567  0.20744  0.12575  Biso   1.000  N
  N272     1.0000 0.62575  0.79256  0.14567  Biso   1.000  N
  N273     1.0000 0.64567  0.62575  0.29256  Biso   1.000  N
  N274     1.0000 0.35433  0.37425  0.29256  Biso   1.000  N
  N275     1.0000 0.62575  0.20744  0.85433  Biso   1.000  N
  N276     1.0000 0.35433  0.62575  0.70744  Biso   1.000  N
  N277     1.0000 0.37425  0.20744  0.14567  Biso   1.000  N
  N278     1.0000 0.37425  0.79256  0.85433  Biso   1.000  N
  N279     1.0000 0.64567  0.37425  0.70744  Biso   1.000  N
  N280     1.0000 0.79256  0.35433  0.87425  Biso   1.000  N
  N281     1.0000 0.20744  0.64567  0.87425  Biso   1.000  N
  N282     1.0000 0.20744  0.35433  0.12575  Biso   1.000  N
  N283     1.0000 0.64567  0.79256  0.87425  Biso   1.000  N
  N284     1.0000 0.35433  0.20744  0.87425  Biso   1.000  N
  N285     1.0000 0.62575  0.35433  0.29256  Biso   1.000  N
  N286     1.0000 0.37425  0.35433  0.70744  Biso   1.000  N
  N287     1.0000 0.20744  0.62575  0.14567  Biso   1.000  N
  N288     1.0000 0.20744  0.37425  0.85433  Biso   1.000  N
  N289     1.0000 0.70744  0.85433  0.87425  Biso   1.000  N
  N290     1.0000 0.70744  0.12575  0.85433  Biso   1.000  N
  N291     1.0000 0.70744  0.87425  0.14567  Biso   1.000  N
  N292     1.0000 0.87425  0.85433  0.29256  Biso   1.000  N
  N293     1.0000 0.12575  0.85433  0.70744  Biso   1.000  N
  N294     1.0000 0.14567  0.70744  0.87425  Biso   1.000  N
  N295     1.0000 0.85433  0.29256  0.87425  Biso   1.000  N
  N296     1.0000 0.87425  0.70744  0.85433  Biso   1.000  N
  N297     1.0000 0.85433  0.87425  0.70744  Biso   1.000  N
  N298     1.0000 0.14567  0.12575  0.70744  Biso   1.000  N
  N299     1.0000 0.87425  0.29256  0.14567  Biso   1.000  N
  N300     1.0000 0.14567  0.87425  0.29256  Biso   1.000  N
  N301     1.0000 0.12575  0.29256  0.85433  Biso   1.000  N
  N302     1.0000 0.12575  0.70744  0.14567  Biso   1.000  N
  N303     1.0000 0.85433  0.12575  0.29256  Biso   1.000  N
  N304     1.0000 0.70744  0.14567  0.12575  Biso   1.000  N
  N305     1.0000 0.29256  0.85433  0.12575  Biso   1.000  N
  N306     1.0000 0.29256  0.14567  0.87425  Biso   1.000  N
  N307     1.0000 0.85433  0.70744  0.12575  Biso   1.000  N
  N308     1.0000 0.14567  0.29256  0.12575  Biso   1.000  N
  N309     1.0000 0.87425  0.14567  0.70744  Biso   1.000  N
  N310     1.0000 0.12575  0.14567  0.29256  Biso   1.000  N
  N311     1.0000 0.29256  0.87425  0.85433  Biso   1.000  N
  N312     1.0000 0.29256  0.12575  0.14567  Biso   1.000  N
  N313     1.0000 0.70744  0.35433  0.37425  Biso   1.000  N
  N314     1.0000 0.70744  0.62575  0.35433  Biso   1.000  N
  N315     1.0000 0.70744  0.37425  0.64567  Biso   1.000  N
  N316     1.0000 0.87425  0.35433  0.79256  Biso   1.000  N
  N317     1.0000 0.12575  0.35433  0.20744  Biso   1.000  N
  N318     1.0000 0.14567  0.20744  0.37425  Biso   1.000  N
  N319     1.0000 0.85433  0.79256  0.37425  Biso   1.000  N
  N320     1.0000 0.87425  0.20744  0.35433  Biso   1.000  N
  N321     1.0000 0.85433  0.37425  0.20744  Biso   1.000  N
  N322     1.0000 0.14567  0.62575  0.20744  Biso   1.000  N
  N323     1.0000 0.87425  0.79256  0.64567  Biso   1.000  N
  N324     1.0000 0.14567  0.37425  0.79256  Biso   1.000  N
  N325     1.0000 0.12575  0.79256  0.35433  Biso   1.000  N
  N326     1.0000 0.12575  0.20744  0.64567  Biso   1.000  N
  N327     1.0000 0.85433  0.62575  0.79256  Biso   1.000  N
  N328     1.0000 0.70744  0.64567  0.62575  Biso   1.000  N
  N329     1.0000 0.29256  0.35433  0.62575  Biso   1.000  N
  N330     1.0000 0.29256  0.64567  0.37425  Biso   1.000  N
  N331     1.0000 0.85433  0.20744  0.62575  Biso   1.000  N
  N332     1.0000 0.14567  0.79256  0.62575  Biso   1.000  N
  N333     1.0000 0.87425  0.64567  0.20744  Biso   1.000  N
  N334     1.0000 0.12575  0.64567  0.79256  Biso   1.000  N
  N335     1.0000 0.29256  0.37425  0.35433  Biso   1.000  N
  N336     1.0000 0.29256  0.62575  0.64567  Biso   1.000  N
  N337     1.0000 0.20744  0.85433  0.37425  Biso   1.000  N
  N338     1.0000 0.20744  0.12575  0.35433  Biso   1.000  N
  N339     1.0000 0.20744  0.87425  0.64567  Biso   1.000  N
  N340     1.0000 0.37425  0.85433  0.79256  Biso   1.000  N
  N341     1.0000 0.62575  0.85433  0.20744  Biso   1.000  N
  N342     1.0000 0.64567  0.70744  0.37425  Biso   1.000  N
  N343     1.0000 0.35433  0.29256  0.37425  Biso   1.000  N
  N344     1.0000 0.37425  0.70744  0.35433  Biso   1.000  N
  N345     1.0000 0.35433  0.87425  0.20744  Biso   1.000  N
  N346     1.0000 0.64567  0.12575  0.20744  Biso   1.000  N
  N347     1.0000 0.37425  0.29256  0.64567  Biso   1.000  N
  N348     1.0000 0.64567  0.87425  0.79256  Biso   1.000  N
  N349     1.0000 0.62575  0.29256  0.35433  Biso   1.000  N
  N350     1.0000 0.62575  0.70744  0.64567  Biso   1.000  N
  N351     1.0000 0.35433  0.12575  0.79256  Biso   1.000  N
  N352     1.0000 0.20744  0.14567  0.62575  Biso   1.000  N
  N353     1.0000 0.79256  0.85433  0.62575  Biso   1.000  N
  N354     1.0000 0.79256  0.14567  0.37425  Biso   1.000  N
  N355     1.0000 0.35433  0.70744  0.62575  Biso   1.000  N
  N356     1.0000 0.64567  0.29256  0.62575  Biso   1.000  N
  N357     1.0000 0.37425  0.14567  0.20744  Biso   1.000  N
  N358     1.0000 0.62575  0.14567  0.79256  Biso   1.000  N
  N359     1.0000 0.79256  0.87425  0.35433  Biso   1.000  N
  N360     1.0000 0.79256  0.12575  0.64567  Biso   1.000  N
  N361     1.0000 0.20744  0.35433  0.87425  Biso   1.000  N
  N362     1.0000 0.20744  0.62575  0.85433  Biso   1.000  N
  N363     1.0000 0.20744  0.37425  0.14567  Biso   1.000  N
  N364     1.0000 0.37425  0.35433  0.29256  Biso   1.000  N
  N365     1.0000 0.62575  0.35433  0.70744  Biso   1.000  N
  N366     1.0000 0.64567  0.20744  0.87425  Biso   1.000  N
  N367     1.0000 0.35433  0.79256  0.87425  Biso   1.000  N
  N368     1.0000 0.37425  0.20744  0.85433  Biso   1.000  N
  N369     1.0000 0.35433  0.37425  0.70744  Biso   1.000  N
  N370     1.0000 0.64567  0.62575  0.70744  Biso   1.000  N
  N371     1.0000 0.37425  0.79256  0.14567  Biso   1.000  N
  N372     1.0000 0.64567  0.37425  0.29256  Biso   1.000  N
  N373     1.0000 0.62575  0.79256  0.85433  Biso   1.000  N
  N374     1.0000 0.62575  0.20744  0.14567  Biso   1.000  N
  N375     1.0000 0.35433  0.62575  0.29256  Biso   1.000  N
  N376     1.0000 0.20744  0.64567  0.12575  Biso   1.000  N
  N377     1.0000 0.79256  0.35433  0.12575  Biso   1.000  N
  N378     1.0000 0.79256  0.64567  0.87425  Biso   1.000  N
  N379     1.0000 0.35433  0.20744  0.12575  Biso   1.000  N
  N380     1.0000 0.64567  0.79256  0.12575  Biso   1.000  N
  N381     1.0000 0.37425  0.64567  0.70744  Biso   1.000  N
  N382     1.0000 0.62575  0.64567  0.29256  Biso   1.000  N
  N383     1.0000 0.79256  0.37425  0.85433  Biso   1.000  N
  N384     1.0000 0.79256  0.62575  0.14567  Biso   1.000  N
  C1       1.0000 0.25600  0.11874  0.11874  Biso   1.000  C
  C2       1.0000 0.25600  0.88126  0.11874  Biso   1.000  C
  C3       1.0000 0.25600  0.11874  0.88126  Biso   1.000  C
  C4       1.0000 0.11874  0.11874  0.74400  Biso   1.000  C
  C5       1.0000 0.88126  0.11874  0.25600  Biso   1.000  C
  C6       1.0000 0.88126  0.25600  0.11874  Biso   1.000  C
  C7       1.0000 0.11874  0.74400  0.11874  Biso   1.000  C
  C8       1.0000 0.11874  0.25600  0.11874  Biso   1.000  C
  C9       1.0000 0.11874  0.11874  0.25600  Biso   1.000  C
  C10      1.0000 0.88126  0.88126  0.25600  Biso   1.000  C
  C11      1.0000 0.11874  0.74400  0.88126  Biso   1.000  C
  C12      1.0000 0.88126  0.11874  0.74400  Biso   1.000  C
  C13      1.0000 0.88126  0.74400  0.11874  Biso   1.000  C
  C14      1.0000 0.88126  0.25600  0.88126  Biso   1.000  C
  C15      1.0000 0.11874  0.88126  0.74400  Biso   1.000  C
  C16      1.0000 0.25600  0.88126  0.88126  Biso   1.000  C
  C17      1.0000 0.74400  0.11874  0.88126  Biso   1.000  C
  C18      1.0000 0.74400  0.88126  0.11874  Biso   1.000  C
  C19      1.0000 0.11874  0.25600  0.88126  Biso   1.000  C
  C20      1.0000 0.88126  0.74400  0.88126  Biso   1.000  C
  C21      1.0000 0.11874  0.88126  0.25600  Biso   1.000  C
  C22      1.0000 0.88126  0.88126  0.74400  Biso   1.000  C
  C23      1.0000 0.74400  0.11874  0.11874  Biso   1.000  C
  C24      1.0000 0.74400  0.88126  0.88126  Biso   1.000  C
  C25      1.0000 0.25600  0.61874  0.61874  Biso   1.000  C
  C26      1.0000 0.25600  0.38126  0.61874  Biso   1.000  C
  C27      1.0000 0.25600  0.61874  0.38126  Biso   1.000  C
  C28      1.0000 0.11874  0.61874  0.24400  Biso   1.000  C
  C29      1.0000 0.88126  0.61874  0.75600  Biso   1.000  C
  C30      1.0000 0.88126  0.75600  0.61874  Biso   1.000  C
  C31      1.0000 0.11874  0.24400  0.61874  Biso   1.000  C
  C32      1.0000 0.11874  0.75600  0.61874  Biso   1.000  C
  C33      1.0000 0.11874  0.61874  0.75600  Biso   1.000  C
  C34      1.0000 0.88126  0.38126  0.75600  Biso   1.000  C
  C35      1.0000 0.11874  0.24400  0.38126  Biso   1.000  C
  C36      1.0000 0.88126  0.61874  0.24400  Biso   1.000  C
  C37      1.0000 0.88126  0.24400  0.61874  Biso   1.000  C
  C38      1.0000 0.88126  0.75600  0.38126  Biso   1.000  C
  C39      1.0000 0.11874  0.38126  0.24400  Biso   1.000  C
  C40      1.0000 0.25600  0.38126  0.38126  Biso   1.000  C
  C41      1.0000 0.74400  0.61874  0.38126  Biso   1.000  C
  C42      1.0000 0.74400  0.38126  0.61874  Biso   1.000  C
  C43      1.0000 0.11874  0.75600  0.38126  Biso   1.000  C
  C44      1.0000 0.88126  0.24400  0.38126  Biso   1.000  C
  C45      1.0000 0.11874  0.38126  0.75600  Biso   1.000  C
  C46      1.0000 0.88126  0.38126  0.24400  Biso   1.000  C
  C47      1.0000 0.74400  0.61874  0.61874  Biso   1.000  C
  C48      1.0000 0.74400  0.38126  0.38126  Biso   1.000  C
  C49      1.0000 0.75600  0.11874  0.61874  Biso   1.000  C
  C50      1.0000 0.75600  0.88126  0.61874  Biso   1.000  C
  C51      1.0000 0.75600  0.11874  0.38126  Biso   1.000  C
  C52      1.0000 0.61874  0.11874  0.24400  Biso   1.000  C
  C53      1.0000 0.38126  0.11874  0.75600  Biso   1.000  C
  C54      1.0000 0.38126  0.25600  0.61874  Biso   1.000  C
  C55      1.0000 0.61874  0.74400  0.61874  Biso   1.000  C
  C56      1.0000 0.61874  0.25600  0.61874  Biso   1.000  C
  C57      1.0000 0.61874  0.11874  0.75600  Biso   1.000  C
  C58      1.0000 0.38126  0.88126  0.75600  Biso   1.000  C
  C59      1.0000 0.61874  0.74400  0.38126  Biso   1.000  C
  C60      1.0000 0.38126  0.11874  0.24400  Biso   1.000  C
  C61      1.0000 0.38126  0.74400  0.61874  Biso   1.000  C
  C62      1.0000 0.38126  0.25600  0.38126  Biso   1.000  C
  C63      1.0000 0.61874  0.88126  0.24400  Biso   1.000  C
  C64      1.0000 0.75600  0.88126  0.38126  Biso   1.000  C
  C65      1.0000 0.24400  0.11874  0.38126  Biso   1.000  C
  C66      1.0000 0.24400  0.88126  0.61874  Biso   1.000  C
  C67      1.0000 0.61874  0.25600  0.38126  Biso   1.000  C
  C68      1.0000 0.38126  0.74400  0.38126  Biso   1.000  C
  C69      1.0000 0.61874  0.88126  0.75600  Biso   1.000  C
  C70      1.0000 0.38126  0.88126  0.24400  Biso   1.000  C
  C71      1.0000 0.24400  0.11874  0.61874  Biso   1.000  C
  C72      1.0000 0.24400  0.88126  0.38126  Biso   1.000  C
  C73      1.0000 0.75600  0.61874  0.11874  Biso   1.000  C
  C74      1.0000 0.75600  0.38126  0.11874  Biso   1.000  C
  C75      1.0000 0.75600  0.61874  0.88126  Biso   1.000  C
  C76      1.0000 0.61874  0.61874  0.74400  Biso   1.000  C
  C77      1.0000 0.38126  0.61874  0.25600  Biso   1.000  C
  C78      1.0000 0.38126  0.75600  0.11874  Biso   1.000  C
  C79      1.0000 0.61874  0.24400  0.11874  Biso   1.000  C
  C80      1.0000 0.61874  0.75600  0.11874  Biso   1.000  C
  C81      1.0000 0.61874  0.61874  0.25600  Biso   1.000  C
  C82      1.0000 0.38126  0.38126  0.25600  Biso   1.000  C
  C83      1.0000 0.61874  0.24400  0.88126  Biso   1.000  C
  C84      1.0000 0.38126  0.61874  0.74400  Biso   1.000  C
  C85      1.0000 0.38126  0.24400  0.11874  Biso   1.000  C
  C86      1.0000 0.38126  0.75600  0.88126  Biso   1.000  C
  C87      1.0000 0.61874  0.38126  0.74400  Biso   1.000  C
  C88      1.0000 0.75600  0.38126  0.88126  Biso   1.000  C
  C89      1.0000 0.24400  0.61874  0.88126  Biso   1.000  C
  C90      1.0000 0.24400  0.38126  0.11874  Biso   1.000  C
  C91      1.0000 0.61874  0.75600  0.88126  Biso   1.000  C
  C92      1.0000 0.38126  0.24400  0.88126  Biso   1.000  C
  C93      1.0000 0.61874  0.38126  0.25600  Biso   1.000  C
  C94      1.0000 0.38126  0.38126  0.74400  Biso   1.000  C
  C95      1.0000 0.24400  0.61874  0.11874  Biso   1.000  C
  C96      1.0000 0.24400  0.38126  0.88126  Biso   1.000  C
  C97      1.0000 0.22810  0.10390  0.10390  Biso   1.000  C
  C98      1.0000 0.22810  0.89610  0.10390  Biso   1.000  C
  C99      1.0000 0.22810  0.10390  0.89610  Biso   1.000  C
  C100     1.0000 0.10390  0.10390  0.77190  Biso   1.000  C
  C101     1.0000 0.89610  0.10390  0.22810  Biso   1.000  C
  C102     1.0000 0.89610  0.22810  0.10390  Biso   1.000  C
  C103     1.0000 0.10390  0.77190  0.10390  Biso   1.000  C
  C104     1.0000 0.10390  0.22810  0.10390  Biso   1.000  C
  C105     1.0000 0.10390  0.10390  0.22810  Biso   1.000  C
  C106     1.0000 0.89610  0.89610  0.22810  Biso   1.000  C
  C107     1.0000 0.10390  0.77190  0.89610  Biso   1.000  C
  C108     1.0000 0.89610  0.10390  0.77190  Biso   1.000  C
  C109     1.0000 0.89610  0.77190  0.10390  Biso   1.000  C
  C110     1.0000 0.89610  0.22810  0.89610  Biso   1.000  C
  C111     1.0000 0.10390  0.89610  0.77190  Biso   1.000  C
  C112     1.0000 0.22810  0.89610  0.89610  Biso   1.000  C
  C113     1.0000 0.77190  0.10390  0.89610  Biso   1.000  C
  C114     1.0000 0.77190  0.89610  0.10390  Biso   1.000  C
  C115     1.0000 0.10390  0.22810  0.89610  Biso   1.000  C
  C116     1.0000 0.89610  0.77190  0.89610  Biso   1.000  C
  C117     1.0000 0.10390  0.89610  0.22810  Biso   1.000  C
  C118     1.0000 0.89610  0.89610  0.77190  Biso   1.000  C
  C119     1.0000 0.77190  0.10390  0.10390  Biso   1.000  C
  C120     1.0000 0.77190  0.89610  0.89610  Biso   1.000  C
  C121     1.0000 0.22810  0.60390  0.60390  Biso   1.000  C
  C122     1.0000 0.22810  0.39610  0.60390  Biso   1.000  C
  C123     1.0000 0.22810  0.60390  0.39610  Biso   1.000  C
  C124     1.0000 0.10390  0.60390  0.27190  Biso   1.000  C
  C125     1.0000 0.89610  0.60390  0.72810  Biso   1.000  C
  C126     1.0000 0.89610  0.72810  0.60390  Biso   1.000  C
  C127     1.0000 0.10390  0.27190  0.60390  Biso   1.000  C
  C128     1.0000 0.10390  0.72810  0.60390  Biso   1.000  C
  C129     1.0000 0.10390  0.60390  0.72810  Biso   1.000  C
  C130     1.0000 0.89610  0.39610  0.72810  Biso   1.000  C
  C131     1.0000 0.10390  0.27190  0.39610  Biso   1.000  C
  C132     1.0000 0.89610  0.60390  0.27190  Biso   1.000  C
  C133     1.0000 0.89610  0.27190  0.60390  Biso   1.000  C
  C134     1.0000 0.89610  0.72810  0.39610  Biso   1.000  C
  C135     1.0000 0.10390  0.39610  0.27190  Biso   1.000  C
  C136     1.0000 0.22810  0.39610  0.39610  Biso   1.000  C
  C137     1.0000 0.77190  0.60390  0.39610  Biso   1.000  C
  C138     1.0000 0.77190  0.39610  0.60390  Biso   1.000  C
  C139     1.0000 0.10390  0.72810  0.39610  Biso   1.000  C
  C140     1.0000 0.89610  0.27190  0.39610  Biso   1.000  C
  C141     1.0000 0.10390  0.39610  0.72810  Biso   1.000  C
  C142     1.0000 0.89610  0.39610  0.27190  Biso   1.000  C
  C143     1.0000 0.77190  0.60390  0.60390  Biso   1.000  C
  C144     1.0000 0.77190  0.39610  0.39610  Biso   1.000  C
  C145     1.0000 0.72810  0.10390  0.60390  Biso   1.000  C
  C146     1.0000 0.72810  0.89610  0.60390  Biso   1.000  C
  C147     1.0000 0.72810  0.10390  0.39610  Biso   1.000  C
  C148     1.0000 0.60390  0.10390  0.27190  Biso   1.000  C
  C149     1.0000 0.39610  0.10390  0.72810  Biso   1.000  C
  C150     1.0000 0.39610  0.22810  0.60390  Biso   1.000  C
  C151     1.0000 0.60390  0.77190  0.60390  Biso   1.000  C
  C152     1.0000 0.60390  0.22810  0.60390  Biso   1.000  C
  C153     1.0000 0.60390  0.10390  0.72810  Biso   1.000  C
  C154     1.0000 0.39610  0.89610  0.72810  Biso   1.000  C
  C155     1.0000 0.60390  0.77190  0.39610  Biso   1.000  C
  C156     1.0000 0.39610  0.10390  0.27190  Biso   1.000  C
  C157     1.0000 0.39610  0.77190  0.60390  Biso   1.000  C
  C158     1.0000 0.39610  0.22810  0.39610  Biso   1.000  C
  C159     1.0000 0.60390  0.89610  0.27190  Biso   1.000  C
  C160     1.0000 0.72810  0.89610  0.39610  Biso   1.000  C
  C161     1.0000 0.27190  0.10390  0.39610  Biso   1.000  C
  C162     1.0000 0.27190  0.89610  0.60390  Biso   1.000  C
  C163     1.0000 0.60390  0.22810  0.39610  Biso   1.000  C
  C164     1.0000 0.39610  0.77190  0.39610  Biso   1.000  C
  C165     1.0000 0.60390  0.89610  0.72810  Biso   1.000  C
  C166     1.0000 0.39610  0.89610  0.27190  Biso   1.000  C
  C167     1.0000 0.27190  0.10390  0.60390  Biso   1.000  C
  C168     1.0000 0.27190  0.89610  0.39610  Biso   1.000  C
  C169     1.0000 0.72810  0.60390  0.10390  Biso   1.000  C
  C170     1.0000 0.72810  0.39610  0.10390  Biso   1.000  C
  C171     1.0000 0.72810  0.60390  0.89610  Biso   1.000  C
  C172     1.0000 0.60390  0.60390  0.77190  Biso   1.000  C
  C173     1.0000 0.39610  0.60390  0.22810  Biso   1.000  C
  C174     1.0000 0.39610  0.72810  0.10390  Biso   1.000  C
  C175     1.0000 0.60390  0.27190  0.10390  Biso   1.000  C
  C176     1.0000 0.60390  0.72810  0.10390  Biso   1.000  C
  C177     1.0000 0.60390  0.60390  0.22810  Biso   1.000  C
  C178     1.0000 0.39610  0.39610  0.22810  Biso   1.000  C
  C179     1.0000 0.60390  0.27190  0.89610  Biso   1.000  C
  C180     1.0000 0.39610  0.60390  0.77190  Biso   1.000  C
  C181     1.0000 0.39610  0.27190  0.10390  Biso   1.000  C
  C182     1.0000 0.39610  0.72810  0.89610  Biso   1.000  C
  C183     1.0000 0.60390  0.39610  0.77190  Biso   1.000  C
  C184     1.0000 0.72810  0.39610  0.89610  Biso   1.000  C
  C185     1.0000 0.27190  0.60390  0.89610  Biso   1.000  C
  C186     1.0000 0.27190  0.39610  0.10390  Biso   1.000  C
  C187     1.0000 0.60390  0.72810  0.89610  Biso   1.000  C
  C188     1.0000 0.39610  0.27190  0.89610  Biso   1.000  C
  C189     1.0000 0.60390  0.39610  0.22810  Biso   1.000  C
  C190     1.0000 0.39610  0.39610  0.77190  Biso   1.000  C
  C191     1.0000 0.27190  0.60390  0.10390  Biso   1.000  C
  C192     1.0000 0.27190  0.39610  0.89610  Biso   1.000  C
  C193     1.0000 0.21645  0.11625  0.07728  Biso   1.000  C
  C194     1.0000 0.21645  0.92272  0.11625  Biso   1.000  C
  C195     1.0000 0.21645  0.07728  0.88375  Biso   1.000  C
  C196     1.0000 0.07728  0.11625  0.78355  Biso   1.000  C
  C197     1.0000 0.92272  0.11625  0.21645  Biso   1.000  C
  C198     1.0000 0.88375  0.21645  0.07728  Biso   1.000  C
  C199     1.0000 0.11625  0.78355  0.07728  Biso   1.000  C
  C200     1.0000 0.07728  0.21645  0.11625  Biso   1.000  C
  C201     1.0000 0.11625  0.07728  0.21645  Biso   1.000  C
  C202     1.0000 0.88375  0.92272  0.21645  Biso   1.000  C
  C203     1.0000 0.07728  0.78355  0.88375  Biso   1.000  C
  C204     1.0000 0.88375  0.07728  0.78355  Biso   1.000  C
  C205     1.0000 0.92272  0.78355  0.11625  Biso   1.000  C
  C206     1.0000 0.92272  0.21645  0.88375  Biso   1.000  C
  C207     1.0000 0.11625  0.92272  0.78355  Biso   1.000  C
  C208     1.0000 0.21645  0.88375  0.92272  Biso   1.000  C
  C209     1.0000 0.78355  0.11625  0.92272  Biso   1.000  C
  C210     1.0000 0.78355  0.88375  0.07728  Biso   1.000  C
  C211     1.0000 0.11625  0.21645  0.92272  Biso   1.000  C
  C212     1.0000 0.88375  0.78355  0.92272  Biso   1.000  C
  C213     1.0000 0.07728  0.88375  0.21645  Biso   1.000  C
  C214     1.0000 0.92272  0.88375  0.78355  Biso   1.000  C
  C215     1.0000 0.78355  0.07728  0.11625  Biso   1.000  C
  C216     1.0000 0.78355  0.92272  0.88375  Biso   1.000  C
  C217     1.0000 0.21645  0.61625  0.57728  Biso   1.000  C
  C218     1.0000 0.21645  0.42272  0.61625  Biso   1.000  C
  C219     1.0000 0.21645  0.57728  0.38375  Biso   1.000  C
  C220     1.0000 0.07728  0.61625  0.28355  Biso   1.000  C
  C221     1.0000 0.92272  0.61625  0.71645  Biso   1.000  C
  C222     1.0000 0.88375  0.71645  0.57728  Biso   1.000  C
  C223     1.0000 0.11625  0.28355  0.57728  Biso   1.000  C
  C224     1.0000 0.07728  0.71645  0.61625  Biso   1.000  C
  C225     1.0000 0.11625  0.57728  0.71645  Biso   1.000  C
  C226     1.0000 0.88375  0.42272  0.71645  Biso   1.000  C
  C227     1.0000 0.07728  0.28355  0.38375  Biso   1.000  C
  C228     1.0000 0.88375  0.57728  0.28355  Biso   1.000  C
  C229     1.0000 0.92272  0.28355  0.61625  Biso   1.000  C
  C230     1.0000 0.92272  0.71645  0.38375  Biso   1.000  C
  C231     1.0000 0.11625  0.42272  0.28355  Biso   1.000  C
  C232     1.0000 0.21645  0.38375  0.42272  Biso   1.000  C
  C233     1.0000 0.78355  0.61625  0.42272  Biso   1.000  C
  C234     1.0000 0.78355  0.38375  0.57728  Biso   1.000  C
  C235     1.0000 0.11625  0.71645  0.42272  Biso   1.000  C
  C236     1.0000 0.88375  0.28355  0.42272  Biso   1.000  C
  C237     1.0000 0.07728  0.38375  0.71645  Biso   1.000  C
  C238     1.0000 0.92272  0.38375  0.28355  Biso   1.000  C
  C239     1.0000 0.78355  0.57728  0.61625  Biso   1.000  C
  C240     1.0000 0.78355  0.42272  0.38375  Biso   1.000  C
  C241     1.0000 0.71645  0.11625  0.57728  Biso   1.000  C
  C242     1.0000 0.71645  0.92272  0.61625  Biso   1.000  C
  C243     1.0000 0.71645  0.07728  0.38375  Biso   1.000  C
  C244     1.0000 0.57728  0.11625  0.28355  Biso   1.000  C
  C245     1.0000 0.42272  0.11625  0.71645  Biso   1.000  C
  C246     1.0000 0.38375  0.21645  0.57728  Biso   1.000  C
  C247     1.0000 0.61625  0.78355  0.57728  Biso   1.000  C
  C248     1.0000 0.57728  0.21645  0.61625  Biso   1.000  C
  C249     1.0000 0.61625  0.07728  0.71645  Biso   1.000  C
  C250     1.0000 0.38375  0.92272  0.71645  Biso   1.000  C
  C251     1.0000 0.57728  0.78355  0.38375  Biso   1.000  C
  C252     1.0000 0.38375  0.07728  0.28355  Biso   1.000  C
  C253     1.0000 0.42272  0.78355  0.61625  Biso   1.000  C
  C254     1.0000 0.42272  0.21645  0.38375  Biso   1.000  C
  C255     1.0000 0.61625  0.92272  0.28355  Biso   1.000  C
  C256     1.0000 0.71645  0.88375  0.42272  Biso   1.000  C
  C257     1.0000 0.28355  0.11625  0.42272  Biso   1.000  C
  C258     1.0000 0.28355  0.88375  0.57728  Biso   1.000  C
  C259     1.0000 0.61625  0.21645  0.42272  Biso   1.000  C
  C260     1.0000 0.38375  0.78355  0.42272  Biso   1.000  C
  C261     1.0000 0.57728  0.88375  0.71645  Biso   1.000  C
  C262     1.0000 0.42272  0.88375  0.28355  Biso   1.000  C
  C263     1.0000 0.28355  0.07728  0.61625  Biso   1.000  C
  C264     1.0000 0.28355  0.92272  0.38375  Biso   1.000  C
  C265     1.0000 0.71645  0.61625  0.07728  Biso   1.000  C
  C266     1.0000 0.71645  0.42272  0.11625  Biso   1.000  C
  C267     1.0000 0.71645  0.57728  0.88375  Biso   1.000  C
  C268     1.0000 0.57728  0.61625  0.78355  Biso   1.000  C
  C269     1.0000 0.42272  0.61625  0.21645  Biso   1.000  C
  C270     1.0000 0.38375  0.71645  0.07728  Biso   1.000  C
  C271     1.0000 0.61625  0.28355  0.07728  Biso   1.000  C
  C272     1.0000 0.57728  0.71645  0.11625  Biso   1.000  C
  C273     1.0000 0.61625  0.57728  0.21645  Biso   1.000  C
  C274     1.0000 0.38375  0.42272  0.21645  Biso   1.000  C
  C275     1.0000 0.57728  0.28355  0.88375  Biso   1.000  C
  C276     1.0000 0.38375  0.57728  0.78355  Biso   1.000  C
  C277     1.0000 0.42272  0.28355  0.11625  Biso   1.000  C
  C278     1.0000 0.42272  0.71645  0.88375  Biso   1.000  C
  C279     1.0000 0.61625  0.42272  0.78355  Biso   1.000  C
  C280     1.0000 0.71645  0.38375  0.92272  Biso   1.000  C
  C281     1.0000 0.28355  0.61625  0.92272  Biso   1.000  C
  C282     1.0000 0.28355  0.38375  0.07728  Biso   1.000  C
  C283     1.0000 0.61625  0.71645  0.92272  Biso   1.000  C
  C284     1.0000 0.38375  0.28355  0.92272  Biso   1.000  C
  C285     1.0000 0.57728  0.38375  0.21645  Biso   1.000  C
  C286     1.0000 0.42272  0.38375  0.78355  Biso   1.000  C
  C287     1.0000 0.28355  0.57728  0.11625  Biso   1.000  C
  C288     1.0000 0.28355  0.42272  0.88375  Biso   1.000  C
  C289     1.0000 0.78355  0.88375  0.92272  Biso   1.000  C
  C290     1.0000 0.78355  0.07728  0.88375  Biso   1.000  C
  C291     1.0000 0.78355  0.92272  0.11625  Biso   1.000  C
  C292     1.0000 0.92272  0.88375  0.21645  Biso   1.000  C
  C293     1.0000 0.07728  0.88375  0.78355  Biso   1.000  C
  C294     1.0000 0.11625  0.78355  0.92272  Biso   1.000  C
  C295     1.0000 0.88375  0.21645  0.92272  Biso   1.000  C
  C296     1.0000 0.92272  0.78355  0.88375  Biso   1.000  C
  C297     1.0000 0.88375  0.92272  0.78355  Biso   1.000  C
  C298     1.0000 0.11625  0.07728  0.78355  Biso   1.000  C
  C299     1.0000 0.92272  0.21645  0.11625  Biso   1.000  C
  C300     1.0000 0.11625  0.92272  0.21645  Biso   1.000  C
  C301     1.0000 0.07728  0.21645  0.88375  Biso   1.000  C
  C302     1.0000 0.07728  0.78355  0.11625  Biso   1.000  C
  C303     1.0000 0.88375  0.07728  0.21645  Biso   1.000  C
  C304     1.0000 0.78355  0.11625  0.07728  Biso   1.000  C
  C305     1.0000 0.21645  0.88375  0.07728  Biso   1.000  C
  C306     1.0000 0.21645  0.11625  0.92272  Biso   1.000  C
  C307     1.0000 0.88375  0.78355  0.07728  Biso   1.000  C
  C308     1.0000 0.11625  0.21645  0.07728  Biso   1.000  C
  C309     1.0000 0.92272  0.11625  0.78355  Biso   1.000  C
  C310     1.0000 0.07728  0.11625  0.21645  Biso   1.000  C
  C311     1.0000 0.21645  0.92272  0.88375  Biso   1.000  C
  C312     1.0000 0.21645  0.07728  0.11625  Biso   1.000  C
  C313     1.0000 0.78355  0.38375  0.42272  Biso   1.000  C
  C314     1.0000 0.78355  0.57728  0.38375  Biso   1.000  C
  C315     1.0000 0.78355  0.42272  0.61625  Biso   1.000  C
  C316     1.0000 0.92272  0.38375  0.71645  Biso   1.000  C
  C317     1.0000 0.07728  0.38375  0.28355  Biso   1.000  C
  C318     1.0000 0.11625  0.28355  0.42272  Biso   1.000  C
  C319     1.0000 0.88375  0.71645  0.42272  Biso   1.000  C
  C320     1.0000 0.92272  0.28355  0.38375  Biso   1.000  C
  C321     1.0000 0.88375  0.42272  0.28355  Biso   1.000  C
  C322     1.0000 0.11625  0.57728  0.28355  Biso   1.000  C
  C323     1.0000 0.92272  0.71645  0.61625  Biso   1.000  C
  C324     1.0000 0.11625  0.42272  0.71645  Biso   1.000  C
  C325     1.0000 0.07728  0.71645  0.38375  Biso   1.000  C
  C326     1.0000 0.07728  0.28355  0.61625  Biso   1.000  C
  C327     1.0000 0.88375  0.57728  0.71645  Biso   1.000  C
  C328     1.0000 0.78355  0.61625  0.57728  Biso   1.000  C
  C329     1.0000 0.21645  0.38375  0.57728  Biso   1.000  C
  C330     1.0000 0.21645  0.61625  0.42272  Biso   1.000  C
  C331     1.0000 0.88375  0.28355  0.57728  Biso   1.000  C
  C332     1.0000 0.11625  0.71645  0.57728  Biso   1.000  C
  C333     1.0000 0.92272  0.61625  0.28355  Biso   1.000  C
  C334     1.0000 0.07728  0.61625  0.71645  Biso   1.000  C
  C335     1.0000 0.21645  0.42272  0.38375  Biso   1.000  C
  C336     1.0000 0.21645  0.57728  0.61625  Biso   1.000  C
  C337     1.0000 0.28355  0.88375  0.42272  Biso   1.000  C
  C338     1.0000 0.28355  0.07728  0.38375  Biso   1.000  C
  C339     1.0000 0.28355  0.92272  0.61625  Biso   1.000  C
  C340     1.0000 0.42272  0.88375  0.71645  Biso   1.000  C
  C341     1.0000 0.57728  0.88375  0.28355  Biso   1.000  C
  C342     1.0000 0.61625  0.78355  0.42272  Biso   1.000  C
  C343     1.0000 0.38375  0.21645  0.42272  Biso   1.000  C
  C344     1.0000 0.42272  0.78355  0.38375  Biso   1.000  C
  C345     1.0000 0.38375  0.92272  0.28355  Biso   1.000  C
  C346     1.0000 0.61625  0.07728  0.28355  Biso   1.000  C
  C347     1.0000 0.42272  0.21645  0.61625  Biso   1.000  C
  C348     1.0000 0.61625  0.92272  0.71645  Biso   1.000  C
  C349     1.0000 0.57728  0.21645  0.38375  Biso   1.000  C
  C350     1.0000 0.57728  0.78355  0.61625  Biso   1.000  C
  C351     1.0000 0.38375  0.07728  0.71645  Biso   1.000  C
  C352     1.0000 0.28355  0.11625  0.57728  Biso   1.000  C
  C353     1.0000 0.71645  0.88375  0.57728  Biso   1.000  C
  C354     1.0000 0.71645  0.11625  0.42272  Biso   1.000  C
  C355     1.0000 0.38375  0.78355  0.57728  Biso   1.000  C
  C356     1.0000 0.61625  0.21645  0.57728  Biso   1.000  C
  C357     1.0000 0.42272  0.11625  0.28355  Biso   1.000  C
  C358     1.0000 0.57728  0.11625  0.71645  Biso   1.000  C
  C359     1.0000 0.71645  0.92272  0.38375  Biso   1.000  C
  C360     1.0000 0.71645  0.07728  0.61625  Biso   1.000  C
  C361     1.0000 0.28355  0.38375  0.92272  Biso   1.000  C
  C362     1.0000 0.28355  0.57728  0.88375  Biso   1.000  C
  C363     1.0000 0.28355  0.42272  0.11625  Biso   1.000  C
  C364     1.0000 0.42272  0.38375  0.21645  Biso   1.000  C
  C365     1.0000 0.57728  0.38375  0.78355  Biso   1.000  C
  C366     1.0000 0.61625  0.28355  0.92272  Biso   1.000  C
  C367     1.0000 0.38375  0.71645  0.92272  Biso   1.000  C
  C368     1.0000 0.42272  0.28355  0.88375  Biso   1.000  C
  C369     1.0000 0.38375  0.42272  0.78355  Biso   1.000  C
  C370     1.0000 0.61625  0.57728  0.78355  Biso   1.000  C
  C371     1.0000 0.42272  0.71645  0.11625  Biso   1.000  C
  C372     1.0000 0.61625  0.42272  0.21645  Biso   1.000  C
  C373     1.0000 0.57728  0.71645  0.88375  Biso   1.000  C
  C374     1.0000 0.57728  0.28355  0.11625  Biso   1.000  C
  C375     1.0000 0.38375  0.57728  0.21645  Biso   1.000  C
  C376     1.0000 0.28355  0.61625  0.07728  Biso   1.000  C
  C377     1.0000 0.71645  0.38375  0.07728  Biso   1.000  C
  C378     1.0000 0.71645  0.61625  0.92272  Biso   1.000  C
  C379     1.0000 0.38375  0.28355  0.07728  Biso   1.000  C
  C380     1.0000 0.61625  0.71645  0.07728  Biso   1.000  C
  C381     1.0000 0.42272  0.61625  0.78355  Biso   1.000  C
  C382     1.0000 0.57728  0.61625  0.21645  Biso   1.000  C
  C383     1.0000 0.71645  0.42272  0.88375  Biso   1.000  C
  C384     1.0000 0.71645  0.57728  0.11625  Biso   1.000  C
  H1       1.0000 0.22654  0.13161  0.06731  Biso   1.000  H
  H2       1.0000 0.22654  0.93269  0.13161  Biso   1.000  H
  H3       1.0000 0.22654  0.06731  0.86839  Biso   1.000  H
  H4       1.0000 0.06731  0.13161  0.77346  Biso   1.000  H
  H5       1.0000 0.93269  0.13161  0.22654  Biso   1.000  H
  H6       1.0000 0.86839  0.22654  0.06731  Biso   1.000  H
  H7       1.0000 0.13161  0.77346  0.06731  Biso   1.000  H
  H8       1.0000 0.06731  0.22654  0.13161  Biso   1.000  H
  H9       1.0000 0.13161  0.06731  0.22654  Biso   1.000  H
  H10      1.0000 0.86839  0.93269  0.22654  Biso   1.000  H
  H11      1.0000 0.06731  0.77346  0.86839  Biso   1.000  H
  H12      1.0000 0.86839  0.06731  0.77346  Biso   1.000  H
  H13      1.0000 0.93269  0.77346  0.13161  Biso   1.000  H
  H14      1.0000 0.93269  0.22654  0.86839  Biso   1.000  H
  H15      1.0000 0.13161  0.93269  0.77346  Biso   1.000  H
  H16      1.0000 0.22654  0.86839  0.93269  Biso   1.000  H
  H17      1.0000 0.77346  0.13161  0.93269  Biso   1.000  H
  H18      1.0000 0.77346  0.86839  0.06731  Biso   1.000  H
  H19      1.0000 0.13161  0.22654  0.93269  Biso   1.000  H
  H20      1.0000 0.86839  0.77346  0.93269  Biso   1.000  H
  H21      1.0000 0.06731  0.86839  0.22654  Biso   1.000  H
  H22      1.0000 0.93269  0.86839  0.77346  Biso   1.000  H
  H23      1.0000 0.77346  0.06731  0.13161  Biso   1.000  H
  H24      1.0000 0.77346  0.93269  0.86839  Biso   1.000  H
  H25      1.0000 0.22654  0.63161  0.56731  Biso   1.000  H
  H26      1.0000 0.22654  0.43269  0.63161  Biso   1.000  H
  H27      1.0000 0.22654  0.56731  0.36839  Biso   1.000  H
  H28      1.0000 0.06731  0.63161  0.27346  Biso   1.000  H
  H29      1.0000 0.93269  0.63161  0.72654  Biso   1.000  H
  H30      1.0000 0.86839  0.72654  0.56731  Biso   1.000  H
  H31      1.0000 0.13161  0.27346  0.56731  Biso   1.000  H
  H32      1.0000 0.06731  0.72654  0.63161  Biso   1.000  H
  H33      1.0000 0.13161  0.56731  0.72654  Biso   1.000  H
  H34      1.0000 0.86839  0.43269  0.72654  Biso   1.000  H
  H35      1.0000 0.06731  0.27346  0.36839  Biso   1.000  H
  H36      1.0000 0.86839  0.56731  0.27346  Biso   1.000  H
  H37      1.0000 0.93269  0.27346  0.63161  Biso   1.000  H
  H38      1.0000 0.93269  0.72654  0.36839  Biso   1.000  H
  H39      1.0000 0.13161  0.43269  0.27346  Biso   1.000  H
  H40      1.0000 0.22654  0.36839  0.43269  Biso   1.000  H
  H41      1.0000 0.77346  0.63161  0.43269  Biso   1.000  H
  H42      1.0000 0.77346  0.36839  0.56731  Biso   1.000  H
  H43      1.0000 0.13161  0.72654  0.43269  Biso   1.000  H
  H44      1.0000 0.86839  0.27346  0.43269  Biso   1.000  H
  H45      1.0000 0.06731  0.36839  0.72654  Biso   1.000  H
  H46      1.0000 0.93269  0.36839  0.27346  Biso   1.000  H
  H47      1.0000 0.77346  0.56731  0.63161  Biso   1.000  H
  H48      1.0000 0.77346  0.43269  0.36839  Biso   1.000  H
  H49      1.0000 0.72654  0.13161  0.56731  Biso   1.000  H
  H50      1.0000 0.72654  0.93269  0.63161  Biso   1.000  H
  H51      1.0000 0.72654  0.06731  0.36839  Biso   1.000  H
  H52      1.0000 0.56731  0.13161  0.27346  Biso   1.000  H
  H53      1.0000 0.43269  0.13161  0.72654  Biso   1.000  H
  H54      1.0000 0.36839  0.22654  0.56731  Biso   1.000  H
  H55      1.0000 0.63161  0.77346  0.56731  Biso   1.000  H
  H56      1.0000 0.56731  0.22654  0.63161  Biso   1.000  H
  H57      1.0000 0.63161  0.06731  0.72654  Biso   1.000  H
  H58      1.0000 0.36839  0.93269  0.72654  Biso   1.000  H
  H59      1.0000 0.56731  0.77346  0.36839  Biso   1.000  H
  H60      1.0000 0.36839  0.06731  0.27346  Biso   1.000  H
  H61      1.0000 0.43269  0.77346  0.63161  Biso   1.000  H
  H62      1.0000 0.43269  0.22654  0.36839  Biso   1.000  H
  H63      1.0000 0.63161  0.93269  0.27346  Biso   1.000  H
  H64      1.0000 0.72654  0.86839  0.43269  Biso   1.000  H
  H65      1.0000 0.27346  0.13161  0.43269  Biso   1.000  H
  H66      1.0000 0.27346  0.86839  0.56731  Biso   1.000  H
  H67      1.0000 0.63161  0.22654  0.43269  Biso   1.000  H
  H68      1.0000 0.36839  0.77346  0.43269  Biso   1.000  H
  H69      1.0000 0.56731  0.86839  0.72654  Biso   1.000  H
  H70      1.0000 0.43269  0.86839  0.27346  Biso   1.000  H
  H71      1.0000 0.27346  0.06731  0.63161  Biso   1.000  H
  H72      1.0000 0.27346  0.93269  0.36839  Biso   1.000  H
  H73      1.0000 0.72654  0.63161  0.06731  Biso   1.000  H
  H74      1.0000 0.72654  0.43269  0.13161  Biso   1.000  H
  H75      1.0000 0.72654  0.56731  0.86839  Biso   1.000  H
  H76      1.0000 0.56731  0.63161  0.77346  Biso   1.000  H
  H77      1.0000 0.43269  0.63161  0.22654  Biso   1.000  H
  H78      1.0000 0.36839  0.72654  0.06731  Biso   1.000  H
  H79      1.0000 0.63161  0.27346  0.06731  Biso   1.000  H
  H80      1.0000 0.56731  0.72654  0.13161  Biso   1.000  H
  H81      1.0000 0.63161  0.56731  0.22654  Biso   1.000  H
  H82      1.0000 0.36839  0.43269  0.22654  Biso   1.000  H
  H83      1.0000 0.56731  0.27346  0.86839  Biso   1.000  H
  H84      1.0000 0.36839  0.56731  0.77346  Biso   1.000  H
  H85      1.0000 0.43269  0.27346  0.13161  Biso   1.000  H
  H86      1.0000 0.43269  0.72654  0.86839  Biso   1.000  H
  H87      1.0000 0.63161  0.43269  0.77346  Biso   1.000  H
  H88      1.0000 0.72654  0.36839  0.93269  Biso   1.000  H
  H89      1.0000 0.27346  0.63161  0.93269  Biso   1.000  H
  H90      1.0000 0.27346  0.36839  0.06731  Biso   1.000  H
  H91      1.0000 0.63161  0.72654  0.93269  Biso   1.000  H
  H92      1.0000 0.36839  0.27346  0.93269  Biso   1.000  H
  H93      1.0000 0.56731  0.36839  0.22654  Biso   1.000  H
  H94      1.0000 0.43269  0.36839  0.77346  Biso   1.000  H
  H95      1.0000 0.27346  0.56731  0.13161  Biso   1.000  H
  H96      1.0000 0.27346  0.43269  0.86839  Biso   1.000  H
  H97      1.0000 0.77346  0.86839  0.93269  Biso   1.000  H
  H98      1.0000 0.77346  0.06731  0.86839  Biso   1.000  H
  H99      1.0000 0.77346  0.93269  0.13161  Biso   1.000  H
  H100     1.0000 0.93269  0.86839  0.22654  Biso   1.000  H
  H101     1.0000 0.06731  0.86839  0.77346  Biso   1.000  H
  H102     1.0000 0.13161  0.77346  0.93269  Biso   1.000  H
  H103     1.0000 0.86839  0.22654  0.93269  Biso   1.000  H
  H104     1.0000 0.93269  0.77346  0.86839  Biso   1.000  H
  H105     1.0000 0.86839  0.93269  0.77346  Biso   1.000  H
  H106     1.0000 0.13161  0.06731  0.77346  Biso   1.000  H
  H107     1.0000 0.93269  0.22654  0.13161  Biso   1.000  H
  H108     1.0000 0.13161  0.93269  0.22654  Biso   1.000  H
  H109     1.0000 0.06731  0.22654  0.86839  Biso   1.000  H
  H110     1.0000 0.06731  0.77346  0.13161  Biso   1.000  H
  H111     1.0000 0.86839  0.06731  0.22654  Biso   1.000  H
  H112     1.0000 0.77346  0.13161  0.06731  Biso   1.000  H
  H113     1.0000 0.22654  0.86839  0.06731  Biso   1.000  H
  H114     1.0000 0.22654  0.13161  0.93269  Biso   1.000  H
  H115     1.0000 0.86839  0.77346  0.06731  Biso   1.000  H
  H116     1.0000 0.13161  0.22654  0.06731  Biso   1.000  H
  H117     1.0000 0.93269  0.13161  0.77346  Biso   1.000  H
  H118     1.0000 0.06731  0.13161  0.22654  Biso   1.000  H
  H119     1.0000 0.22654  0.93269  0.86839  Biso   1.000  H
  H120     1.0000 0.22654  0.06731  0.13161  Biso   1.000  H
  H121     1.0000 0.77346  0.36839  0.43269  Biso   1.000  H
  H122     1.0000 0.77346  0.56731  0.36839  Biso   1.000  H
  H123     1.0000 0.77346  0.43269  0.63161  Biso   1.000  H
  H124     1.0000 0.93269  0.36839  0.72654  Biso   1.000  H
  H125     1.0000 0.06731  0.36839  0.27346  Biso   1.000  H
  H126     1.0000 0.13161  0.27346  0.43269  Biso   1.000  H
  H127     1.0000 0.86839  0.72654  0.43269  Biso   1.000  H
  H128     1.0000 0.93269  0.27346  0.36839  Biso   1.000  H
  H129     1.0000 0.86839  0.43269  0.27346  Biso   1.000  H
  H130     1.0000 0.13161  0.56731  0.27346  Biso   1.000  H
  H131     1.0000 0.93269  0.72654  0.63161  Biso   1.000  H
  H132     1.0000 0.13161  0.43269  0.72654  Biso   1.000  H
  H133     1.0000 0.06731  0.72654  0.36839  Biso   1.000  H
  H134     1.0000 0.06731  0.27346  0.63161  Biso   1.000  H
  H135     1.0000 0.86839  0.56731  0.72654  Biso   1.000  H
  H136     1.0000 0.77346  0.63161  0.56731  Biso   1.000  H
  H137     1.0000 0.22654  0.36839  0.56731  Biso   1.000  H
  H138     1.0000 0.22654  0.63161  0.43269  Biso   1.000  H
  H139     1.0000 0.86839  0.27346  0.56731  Biso   1.000  H
  H140     1.0000 0.13161  0.72654  0.56731  Biso   1.000  H
  H141     1.0000 0.93269  0.63161  0.27346  Biso   1.000  H
  H142     1.0000 0.06731  0.63161  0.72654  Biso   1.000  H
  H143     1.0000 0.22654  0.43269  0.36839  Biso   1.000  H
  H144     1.0000 0.22654  0.56731  0.63161  Biso   1.000  H
  H145     1.0000 0.27346  0.86839  0.43269  Biso   1.000  H
  H146     1.0000 0.27346  0.06731  0.36839  Biso   1.000  H
  H147     1.0000 0.27346  0.93269  0.63161  Biso   1.000  H
  H148     1.0000 0.43269  0.86839  0.72654  Biso   1.000  H
  H149     1.0000 0.56731  0.86839  0.27346  Biso   1.000  H
  H150     1.0000 0.63161  0.77346  0.43269  Biso   1.000  H
  H151     1.0000 0.36839  0.22654  0.43269  Biso   1.000  H
  H152     1.0000 0.43269  0.77346  0.36839  Biso   1.000  H
  H153     1.0000 0.36839  0.93269  0.27346  Biso   1.000  H
  H154     1.0000 0.63161  0.06731  0.27346  Biso   1.000  H
  H155     1.0000 0.43269  0.22654  0.63161  Biso   1.000  H
  H156     1.0000 0.63161  0.93269  0.72654  Biso   1.000  H
  H157     1.0000 0.56731  0.22654  0.36839  Biso   1.000  H
  H158     1.0000 0.56731  0.77346  0.63161  Biso   1.000  H
  H159     1.0000 0.36839  0.06731  0.72654  Biso   1.000  H
  H160     1.0000 0.27346  0.13161  0.56731  Biso   1.000  H
  H161     1.0000 0.72654  0.86839  0.56731  Biso   1.000  H
  H162     1.0000 0.72654  0.13161  0.43269  Biso   1.000  H
  H163     1.0000 0.36839  0.77346  0.56731  Biso   1.000  H
  H164     1.0000 0.63161  0.22654  0.56731  Biso   1.000  H
  H165     1.0000 0.43269  0.13161  0.27346  Biso   1.000  H
  H166     1.0000 0.56731  0.13161  0.72654  Biso   1.000  H
  H167     1.0000 0.72654  0.93269  0.36839  Biso   1.000  H
  H168     1.0000 0.72654  0.06731  0.63161  Biso   1.000  H
  H169     1.0000 0.27346  0.36839  0.93269  Biso   1.000  H
  H170     1.0000 0.27346  0.56731  0.86839  Biso   1.000  H
  H171     1.0000 0.27346  0.43269  0.13161  Biso   1.000  H
  H172     1.0000 0.43269  0.36839  0.22654  Biso   1.000  H
  H173     1.0000 0.56731  0.36839  0.77346  Biso   1.000  H
  H174     1.0000 0.63161  0.27346  0.93269  Biso   1.000  H
  H175     1.0000 0.36839  0.72654  0.93269  Biso   1.000  H
  H176     1.0000 0.43269  0.27346  0.86839  Biso   1.000  H
  H177     1.0000 0.36839  0.43269  0.77346  Biso   1.000  H
  H178     1.0000 0.63161  0.56731  0.77346  Biso   1.000  H
  H179     1.0000 0.43269  0.72654  0.13161  Biso   1.000  H
  H180     1.0000 0.63161  0.43269  0.22654  Biso   1.000  H
  H181     1.0000 0.56731  0.72654  0.86839  Biso   1.000  H
  H182     1.0000 0.56731  0.27346  0.13161  Biso   1.000  H
  H183     1.0000 0.36839  0.56731  0.22654  Biso   1.000  H
  H184     1.0000 0.27346  0.63161  0.06731  Biso   1.000  H
  H185     1.0000 0.72654  0.36839  0.06731  Biso   1.000  H
  H186     1.0000 0.72654  0.63161  0.93269  Biso   1.000  H
  H187     1.0000 0.36839  0.27346  0.06731  Biso   1.000  H
  H188     1.0000 0.63161  0.72654  0.06731  Biso   1.000  H
  H189     1.0000 0.43269  0.63161  0.77346  Biso   1.000  H
  H190     1.0000 0.56731  0.63161  0.22654  Biso   1.000  H
  H191     1.0000 0.72654  0.43269  0.86839  Biso   1.000  H
  H192     1.0000 0.72654  0.56731  0.13161  Biso   1.000  H
  C385     1.0000 0.19021  0.10528  0.06648  Biso   1.000  C
  C386     1.0000 0.19021  0.93352  0.10528  Biso   1.000  C
  C387     1.0000 0.19021  0.06648  0.89472  Biso   1.000  C
  C388     1.0000 0.06648  0.10528  0.80979  Biso   1.000  C
  C389     1.0000 0.93352  0.10528  0.19021  Biso   1.000  C
  C390     1.0000 0.89472  0.19021  0.06648  Biso   1.000  C
  C391     1.0000 0.10528  0.80979  0.06648  Biso   1.000  C
  C392     1.0000 0.06648  0.19021  0.10528  Biso   1.000  C
  C393     1.0000 0.10528  0.06648  0.19021  Biso   1.000  C
  C394     1.0000 0.89472  0.93352  0.19021  Biso   1.000  C
  C395     1.0000 0.06648  0.80979  0.89472  Biso   1.000  C
  C396     1.0000 0.89472  0.06648  0.80979  Biso   1.000  C
  C397     1.0000 0.93352  0.80979  0.10528  Biso   1.000  C
  C398     1.0000 0.93352  0.19021  0.89472  Biso   1.000  C
  C399     1.0000 0.10528  0.93352  0.80979  Biso   1.000  C
  C400     1.0000 0.19021  0.89472  0.93352  Biso   1.000  C
  C401     1.0000 0.80979  0.10528  0.93352  Biso   1.000  C
  C402     1.0000 0.80979  0.89472  0.06648  Biso   1.000  C
  C403     1.0000 0.10528  0.19021  0.93352  Biso   1.000  C
  C404     1.0000 0.89472  0.80979  0.93352  Biso   1.000  C
  C405     1.0000 0.06648  0.89472  0.19021  Biso   1.000  C
  C406     1.0000 0.93352  0.89472  0.80979  Biso   1.000  C
  C407     1.0000 0.80979  0.06648  0.10528  Biso   1.000  C
  C408     1.0000 0.80979  0.93352  0.89472  Biso   1.000  C
  C409     1.0000 0.19021  0.60528  0.56648  Biso   1.000  C
  C410     1.0000 0.19021  0.43352  0.60528  Biso   1.000  C
  C411     1.0000 0.19021  0.56648  0.39472  Biso   1.000  C
  C412     1.0000 0.06648  0.60528  0.30979  Biso   1.000  C
  C413     1.0000 0.93352  0.60528  0.69021  Biso   1.000  C
  C414     1.0000 0.89472  0.69021  0.56648  Biso   1.000  C
  C415     1.0000 0.10528  0.30979  0.56648  Biso   1.000  C
  C416     1.0000 0.06648  0.69021  0.60528  Biso   1.000  C
  C417     1.0000 0.10528  0.56648  0.69021  Biso   1.000  C
  C418     1.0000 0.89472  0.43352  0.69021  Biso   1.000  C
  C419     1.0000 0.06648  0.30979  0.39472  Biso   1.000  C
  C420     1.0000 0.89472  0.56648  0.30979  Biso   1.000  C
  C421     1.0000 0.93352  0.30979  0.60528  Biso   1.000  C
  C422     1.0000 0.93352  0.69021  0.39472  Biso   1.000  C
  C423     1.0000 0.10528  0.43352  0.30979  Biso   1.000  C
  C424     1.0000 0.19021  0.39472  0.43352  Biso   1.000  C
  C425     1.0000 0.80979  0.60528  0.43352  Biso   1.000  C
  C426     1.0000 0.80979  0.39472  0.56648  Biso   1.000  C
  C427     1.0000 0.10528  0.69021  0.43352  Biso   1.000  C
  C428     1.0000 0.89472  0.30979  0.43352  Biso   1.000  C
  C429     1.0000 0.06648  0.39472  0.69021  Biso   1.000  C
  C430     1.0000 0.93352  0.39472  0.30979  Biso   1.000  C
  C431     1.0000 0.80979  0.56648  0.60528  Biso   1.000  C
  C432     1.0000 0.80979  0.43352  0.39472  Biso   1.000  C
  C433     1.0000 0.69021  0.10528  0.56648  Biso   1.000  C
  C434     1.0000 0.69021  0.93352  0.60528  Biso   1.000  C
  C435     1.0000 0.69021  0.06648  0.39472  Biso   1.000  C
  C436     1.0000 0.56648  0.10528  0.30979  Biso   1.000  C
  C437     1.0000 0.43352  0.10528  0.69021  Biso   1.000  C
  C438     1.0000 0.39472  0.19021  0.56648  Biso   1.000  C
  C439     1.0000 0.60528  0.80979  0.56648  Biso   1.000  C
  C440     1.0000 0.56648  0.19021  0.60528  Biso   1.000  C
  C441     1.0000 0.60528  0.06648  0.69021  Biso   1.000  C
  C442     1.0000 0.39472  0.93352  0.69021  Biso   1.000  C
  C443     1.0000 0.56648  0.80979  0.39472  Biso   1.000  C
  C444     1.0000 0.39472  0.06648  0.30979  Biso   1.000  C
  C445     1.0000 0.43352  0.80979  0.60528  Biso   1.000  C
  C446     1.0000 0.43352  0.19021  0.39472  Biso   1.000  C
  C447     1.0000 0.60528  0.93352  0.30979  Biso   1.000  C
  C448     1.0000 0.69021  0.89472  0.43352  Biso   1.000  C
  C449     1.0000 0.30979  0.10528  0.43352  Biso   1.000  C
  C450     1.0000 0.30979  0.89472  0.56648  Biso   1.000  C
  C451     1.0000 0.60528  0.19021  0.43352  Biso   1.000  C
  C452     1.0000 0.39472  0.80979  0.43352  Biso   1.000  C
  C453     1.0000 0.56648  0.89472  0.69021  Biso   1.000  C
  C454     1.0000 0.43352  0.89472  0.30979  Biso   1.000  C
  C455     1.0000 0.30979  0.06648  0.60528  Biso   1.000  C
  C456     1.0000 0.30979  0.93352  0.39472  Biso   1.000  C
  C457     1.0000 0.69021  0.60528  0.06648  Biso   1.000  C
  C458     1.0000 0.69021  0.43352  0.10528  Biso   1.000  C
  C459     1.0000 0.69021  0.56648  0.89472  Biso   1.000  C
  C460     1.0000 0.56648  0.60528  0.80979  Biso   1.000  C
  C461     1.0000 0.43352  0.60528  0.19021  Biso   1.000  C
  C462     1.0000 0.39472  0.69021  0.06648  Biso   1.000  C
  C463     1.0000 0.60528  0.30979  0.06648  Biso   1.000  C
  C464     1.0000 0.56648  0.69021  0.10528  Biso   1.000  C
  C465     1.0000 0.60528  0.56648  0.19021  Biso   1.000  C
  C466     1.0000 0.39472  0.43352  0.19021  Biso   1.000  C
  C467     1.0000 0.56648  0.30979  0.89472  Biso   1.000  C
  C468     1.0000 0.39472  0.56648  0.80979  Biso   1.000  C
  C469     1.0000 0.43352  0.30979  0.10528  Biso   1.000  C
  C470     1.0000 0.43352  0.69021  0.89472  Biso   1.000  C
  C471     1.0000 0.60528  0.43352  0.80979  Biso   1.000  C
  C472     1.0000 0.69021  0.39472  0.93352  Biso   1.000  C
  C473     1.0000 0.30979  0.60528  0.93352  Biso   1.000  C
  C474     1.0000 0.30979  0.39472  0.06648  Biso   1.000  C
  C475     1.0000 0.60528  0.69021  0.93352  Biso   1.000  C
  C476     1.0000 0.39472  0.30979  0.93352  Biso   1.000  C
  C477     1.0000 0.56648  0.39472  0.19021  Biso   1.000  C
  C478     1.0000 0.43352  0.39472  0.80979  Biso   1.000  C
  C479     1.0000 0.30979  0.56648  0.10528  Biso   1.000  C
  C480     1.0000 0.30979  0.43352  0.89472  Biso   1.000  C
  C481     1.0000 0.80979  0.89472  0.93352  Biso   1.000  C
  C482     1.0000 0.80979  0.06648  0.89472  Biso   1.000  C
  C483     1.0000 0.80979  0.93352  0.10528  Biso   1.000  C
  C484     1.0000 0.93352  0.89472  0.19021  Biso   1.000  C
  C485     1.0000 0.06648  0.89472  0.80979  Biso   1.000  C
  C486     1.0000 0.10528  0.80979  0.93352  Biso   1.000  C
  C487     1.0000 0.89472  0.19021  0.93352  Biso   1.000  C
  C488     1.0000 0.93352  0.80979  0.89472  Biso   1.000  C
  C489     1.0000 0.89472  0.93352  0.80979  Biso   1.000  C
  C490     1.0000 0.10528  0.06648  0.80979  Biso   1.000  C
  C491     1.0000 0.93352  0.19021  0.10528  Biso   1.000  C
  C492     1.0000 0.10528  0.93352  0.19021  Biso   1.000  C
  C493     1.0000 0.06648  0.19021  0.89472  Biso   1.000  C
  C494     1.0000 0.06648  0.80979  0.10528  Biso   1.000  C
  C495     1.0000 0.89472  0.06648  0.19021  Biso   1.000  C
  C496     1.0000 0.80979  0.10528  0.06648  Biso   1.000  C
  C497     1.0000 0.19021  0.89472  0.06648  Biso   1.000  C
  C498     1.0000 0.19021  0.10528  0.93352  Biso   1.000  C
  C499     1.0000 0.89472  0.80979  0.06648  Biso   1.000  C
  C500     1.0000 0.10528  0.19021  0.06648  Biso   1.000  C
  C501     1.0000 0.93352  0.10528  0.80979  Biso   1.000  C
  C502     1.0000 0.06648  0.10528  0.19021  Biso   1.000  C
  C503     1.0000 0.19021  0.93352  0.89472  Biso   1.000  C
  C504     1.0000 0.19021  0.06648  0.10528  Biso   1.000  C
  C505     1.0000 0.80979  0.39472  0.43352  Biso   1.000  C
  C506     1.0000 0.80979  0.56648  0.39472  Biso   1.000  C
  C507     1.0000 0.80979  0.43352  0.60528  Biso   1.000  C
  C508     1.0000 0.93352  0.39472  0.69021  Biso   1.000  C
  C509     1.0000 0.06648  0.39472  0.30979  Biso   1.000  C
  C510     1.0000 0.10528  0.30979  0.43352  Biso   1.000  C
  C511     1.0000 0.89472  0.69021  0.43352  Biso   1.000  C
  C512     1.0000 0.93352  0.30979  0.39472  Biso   1.000  C
  C513     1.0000 0.89472  0.43352  0.30979  Biso   1.000  C
  C514     1.0000 0.10528  0.56648  0.30979  Biso   1.000  C
  C515     1.0000 0.93352  0.69021  0.60528  Biso   1.000  C
  C516     1.0000 0.10528  0.43352  0.69021  Biso   1.000  C
  C517     1.0000 0.06648  0.69021  0.39472  Biso   1.000  C
  C518     1.0000 0.06648  0.30979  0.60528  Biso   1.000  C
  C519     1.0000 0.89472  0.56648  0.69021  Biso   1.000  C
  C520     1.0000 0.80979  0.60528  0.56648  Biso   1.000  C
  C521     1.0000 0.19021  0.39472  0.56648  Biso   1.000  C
  C522     1.0000 0.19021  0.60528  0.43352  Biso   1.000  C
  C523     1.0000 0.89472  0.30979  0.56648  Biso   1.000  C
  C524     1.0000 0.10528  0.69021  0.56648  Biso   1.000  C
  C525     1.0000 0.93352  0.60528  0.30979  Biso   1.000  C
  C526     1.0000 0.06648  0.60528  0.69021  Biso   1.000  C
  C527     1.0000 0.19021  0.43352  0.39472  Biso   1.000  C
  C528     1.0000 0.19021  0.56648  0.60528  Biso   1.000  C
  C529     1.0000 0.30979  0.89472  0.43352  Biso   1.000  C
  C530     1.0000 0.30979  0.06648  0.39472  Biso   1.000  C
  C531     1.0000 0.30979  0.93352  0.60528  Biso   1.000  C
  C532     1.0000 0.43352  0.89472  0.69021  Biso   1.000  C
  C533     1.0000 0.56648  0.89472  0.30979  Biso   1.000  C
  C534     1.0000 0.60528  0.80979  0.43352  Biso   1.000  C
  C535     1.0000 0.39472  0.19021  0.43352  Biso   1.000  C
  C536     1.0000 0.43352  0.80979  0.39472  Biso   1.000  C
  C537     1.0000 0.39472  0.93352  0.30979  Biso   1.000  C
  C538     1.0000 0.60528  0.06648  0.30979  Biso   1.000  C
  C539     1.0000 0.43352  0.19021  0.60528  Biso   1.000  C
  C540     1.0000 0.60528  0.93352  0.69021  Biso   1.000  C
  C541     1.0000 0.56648  0.19021  0.39472  Biso   1.000  C
  C542     1.0000 0.56648  0.80979  0.60528  Biso   1.000  C
  C543     1.0000 0.39472  0.06648  0.69021  Biso   1.000  C
  C544     1.0000 0.30979  0.10528  0.56648  Biso   1.000  C
  C545     1.0000 0.69021  0.89472  0.56648  Biso   1.000  C
  C546     1.0000 0.69021  0.10528  0.43352  Biso   1.000  C
  C547     1.0000 0.39472  0.80979  0.56648  Biso   1.000  C
  C548     1.0000 0.60528  0.19021  0.56648  Biso   1.000  C
  C549     1.0000 0.43352  0.10528  0.30979  Biso   1.000  C
  C550     1.0000 0.56648  0.10528  0.69021  Biso   1.000  C
  C551     1.0000 0.69021  0.93352  0.39472  Biso   1.000  C
  C552     1.0000 0.69021  0.06648  0.60528  Biso   1.000  C
  C553     1.0000 0.30979  0.39472  0.93352  Biso   1.000  C
  C554     1.0000 0.30979  0.56648  0.89472  Biso   1.000  C
  C555     1.0000 0.30979  0.43352  0.10528  Biso   1.000  C
  C556     1.0000 0.43352  0.39472  0.19021  Biso   1.000  C
  C557     1.0000 0.56648  0.39472  0.80979  Biso   1.000  C
  C558     1.0000 0.60528  0.30979  0.93352  Biso   1.000  C
  C559     1.0000 0.39472  0.69021  0.93352  Biso   1.000  C
  C560     1.0000 0.43352  0.30979  0.89472  Biso   1.000  C
  C561     1.0000 0.39472  0.43352  0.80979  Biso   1.000  C
  C562     1.0000 0.60528  0.56648  0.80979  Biso   1.000  C
  C563     1.0000 0.43352  0.69021  0.10528  Biso   1.000  C
  C564     1.0000 0.60528  0.43352  0.19021  Biso   1.000  C
  C565     1.0000 0.56648  0.69021  0.89472  Biso   1.000  C
  C566     1.0000 0.56648  0.30979  0.10528  Biso   1.000  C
  C567     1.0000 0.39472  0.56648  0.19021  Biso   1.000  C
  C568     1.0000 0.30979  0.60528  0.06648  Biso   1.000  C
  C569     1.0000 0.69021  0.39472  0.06648  Biso   1.000  C
  C570     1.0000 0.69021  0.60528  0.93352  Biso   1.000  C
  C571     1.0000 0.39472  0.30979  0.06648  Biso   1.000  C
  C572     1.0000 0.60528  0.69021  0.06648  Biso   1.000  C
  C573     1.0000 0.43352  0.60528  0.80979  Biso   1.000  C
  C574     1.0000 0.56648  0.60528  0.19021  Biso   1.000  C
  C575     1.0000 0.69021  0.43352  0.89472  Biso   1.000  C
  C576     1.0000 0.69021  0.56648  0.10528  Biso   1.000  C
  C577     1.0000 0.17745  0.08043  0.08043  Biso   1.000  C
  C578     1.0000 0.17745  0.91957  0.08043  Biso   1.000  C
  C579     1.0000 0.17745  0.08043  0.91957  Biso   1.000  C
  C580     1.0000 0.08043  0.08043  0.82255  Biso   1.000  C
  C581     1.0000 0.91957  0.08043  0.17745  Biso   1.000  C
  C582     1.0000 0.91957  0.17745  0.08043  Biso   1.000  C
  C583     1.0000 0.08043  0.82255  0.08043  Biso   1.000  C
  C584     1.0000 0.08043  0.17745  0.08043  Biso   1.000  C
  C585     1.0000 0.08043  0.08043  0.17745  Biso   1.000  C
  C586     1.0000 0.91957  0.91957  0.17745  Biso   1.000  C
  C587     1.0000 0.08043  0.82255  0.91957  Biso   1.000  C
  C588     1.0000 0.91957  0.08043  0.82255  Biso   1.000  C
  C589     1.0000 0.91957  0.82255  0.08043  Biso   1.000  C
  C590     1.0000 0.91957  0.17745  0.91957  Biso   1.000  C
  C591     1.0000 0.08043  0.91957  0.82255  Biso   1.000  C
  C592     1.0000 0.17745  0.91957  0.91957  Biso   1.000  C
  C593     1.0000 0.82255  0.08043  0.91957  Biso   1.000  C
  C594     1.0000 0.82255  0.91957  0.08043  Biso   1.000  C
  C595     1.0000 0.08043  0.17745  0.91957  Biso   1.000  C
  C596     1.0000 0.91957  0.82255  0.91957  Biso   1.000  C
  C597     1.0000 0.08043  0.91957  0.17745  Biso   1.000  C
  C598     1.0000 0.91957  0.91957  0.82255  Biso   1.000  C
  C599     1.0000 0.82255  0.08043  0.08043  Biso   1.000  C
  C600     1.0000 0.82255  0.91957  0.91957  Biso   1.000  C
  C601     1.0000 0.17745  0.58043  0.58043  Biso   1.000  C
  C602     1.0000 0.17745  0.41957  0.58043  Biso   1.000  C
  C603     1.0000 0.17745  0.58043  0.41957  Biso   1.000  C
  C604     1.0000 0.08043  0.58043  0.32255  Biso   1.000  C
  C605     1.0000 0.91957  0.58043  0.67745  Biso   1.000  C
  C606     1.0000 0.91957  0.67745  0.58043  Biso   1.000  C
  C607     1.0000 0.08043  0.32255  0.58043  Biso   1.000  C
  C608     1.0000 0.08043  0.67745  0.58043  Biso   1.000  C
  C609     1.0000 0.08043  0.58043  0.67745  Biso   1.000  C
  C610     1.0000 0.91957  0.41957  0.67745  Biso   1.000  C
  C611     1.0000 0.08043  0.32255  0.41957  Biso   1.000  C
  C612     1.0000 0.91957  0.58043  0.32255  Biso   1.000  C
  C613     1.0000 0.91957  0.32255  0.58043  Biso   1.000  C
  C614     1.0000 0.91957  0.67745  0.41957  Biso   1.000  C
  C615     1.0000 0.08043  0.41957  0.32255  Biso   1.000  C
  C616     1.0000 0.17745  0.41957  0.41957  Biso   1.000  C
  C617     1.0000 0.82255  0.58043  0.41957  Biso   1.000  C
  C618     1.0000 0.82255  0.41957  0.58043  Biso   1.000  C
  C619     1.0000 0.08043  0.67745  0.41957  Biso   1.000  C
  C620     1.0000 0.91957  0.32255  0.41957  Biso   1.000  C
  C621     1.0000 0.08043  0.41957  0.67745  Biso   1.000  C
  C622     1.0000 0.91957  0.41957  0.32255  Biso   1.000  C
  C623     1.0000 0.82255  0.58043  0.58043  Biso   1.000  C
  C624     1.0000 0.82255  0.41957  0.41957  Biso   1.000  C
  C625     1.0000 0.67745  0.08043  0.58043  Biso   1.000  C
  C626     1.0000 0.67745  0.91957  0.58043  Biso   1.000  C
  C627     1.0000 0.67745  0.08043  0.41957  Biso   1.000  C
  C628     1.0000 0.58043  0.08043  0.32255  Biso   1.000  C
  C629     1.0000 0.41957  0.08043  0.67745  Biso   1.000  C
  C630     1.0000 0.41957  0.17745  0.58043  Biso   1.000  C
  C631     1.0000 0.58043  0.82255  0.58043  Biso   1.000  C
  C632     1.0000 0.58043  0.17745  0.58043  Biso   1.000  C
  C633     1.0000 0.58043  0.08043  0.67745  Biso   1.000  C
  C634     1.0000 0.41957  0.91957  0.67745  Biso   1.000  C
  C635     1.0000 0.58043  0.82255  0.41957  Biso   1.000  C
  C636     1.0000 0.41957  0.08043  0.32255  Biso   1.000  C
  C637     1.0000 0.41957  0.82255  0.58043  Biso   1.000  C
  C638     1.0000 0.41957  0.17745  0.41957  Biso   1.000  C
  C639     1.0000 0.58043  0.91957  0.32255  Biso   1.000  C
  C640     1.0000 0.67745  0.91957  0.41957  Biso   1.000  C
  C641     1.0000 0.32255  0.08043  0.41957  Biso   1.000  C
  C642     1.0000 0.32255  0.91957  0.58043  Biso   1.000  C
  C643     1.0000 0.58043  0.17745  0.41957  Biso   1.000  C
  C644     1.0000 0.41957  0.82255  0.41957  Biso   1.000  C
  C645     1.0000 0.58043  0.91957  0.67745  Biso   1.000  C
  C646     1.0000 0.41957  0.91957  0.32255  Biso   1.000  C
  C647     1.0000 0.32255  0.08043  0.58043  Biso   1.000  C
  C648     1.0000 0.32255  0.91957  0.41957  Biso   1.000  C
  C649     1.0000 0.67745  0.58043  0.08043  Biso   1.000  C
  C650     1.0000 0.67745  0.41957  0.08043  Biso   1.000  C
  C651     1.0000 0.67745  0.58043  0.91957  Biso   1.000  C
  C652     1.0000 0.58043  0.58043  0.82255  Biso   1.000  C
  C653     1.0000 0.41957  0.58043  0.17745  Biso   1.000  C
  C654     1.0000 0.41957  0.67745  0.08043  Biso   1.000  C
  C655     1.0000 0.58043  0.32255  0.08043  Biso   1.000  C
  C656     1.0000 0.58043  0.67745  0.08043  Biso   1.000  C
  C657     1.0000 0.58043  0.58043  0.17745  Biso   1.000  C
  C658     1.0000 0.41957  0.41957  0.17745  Biso   1.000  C
  C659     1.0000 0.58043  0.32255  0.91957  Biso   1.000  C
  C660     1.0000 0.41957  0.58043  0.82255  Biso   1.000  C
  C661     1.0000 0.41957  0.32255  0.08043  Biso   1.000  C
  C662     1.0000 0.41957  0.67745  0.91957  Biso   1.000  C
  C663     1.0000 0.58043  0.41957  0.82255  Biso   1.000  C
  C664     1.0000 0.67745  0.41957  0.91957  Biso   1.000  C
  C665     1.0000 0.32255  0.58043  0.91957  Biso   1.000  C
  C666     1.0000 0.32255  0.41957  0.08043  Biso   1.000  C
  C667     1.0000 0.58043  0.67745  0.91957  Biso   1.000  C
  C668     1.0000 0.41957  0.32255  0.91957  Biso   1.000  C
  C669     1.0000 0.58043  0.41957  0.17745  Biso   1.000  C
  C670     1.0000 0.41957  0.41957  0.82255  Biso   1.000  C
  C671     1.0000 0.32255  0.58043  0.08043  Biso   1.000  C
  C672     1.0000 0.32255  0.41957  0.91957  Biso   1.000  C
  H193     1.0000 0.15955  0.07278  0.07278  Biso   1.000  H
  H194     1.0000 0.15955  0.92722  0.07278  Biso   1.000  H
  H195     1.0000 0.15955  0.07278  0.92722  Biso   1.000  H
  H196     1.0000 0.07278  0.07278  0.84045  Biso   1.000  H
  H197     1.0000 0.92722  0.07278  0.15955  Biso   1.000  H
  H198     1.0000 0.92722  0.15955  0.07278  Biso   1.000  H
  H199     1.0000 0.07278  0.84045  0.07278  Biso   1.000  H
  H200     1.0000 0.07278  0.15955  0.07278  Biso   1.000  H
  H201     1.0000 0.07278  0.07278  0.15955  Biso   1.000  H
  H202     1.0000 0.92722  0.92722  0.15955  Biso   1.000  H
  H203     1.0000 0.07278  0.84045  0.92722  Biso   1.000  H
  H204     1.0000 0.92722  0.07278  0.84045  Biso   1.000  H
  H205     1.0000 0.92722  0.84045  0.07278  Biso   1.000  H
  H206     1.0000 0.92722  0.15955  0.92722  Biso   1.000  H
  H207     1.0000 0.07278  0.92722  0.84045  Biso   1.000  H
  H208     1.0000 0.15955  0.92722  0.92722  Biso   1.000  H
  H209     1.0000 0.84045  0.07278  0.92722  Biso   1.000  H
  H210     1.0000 0.84045  0.92722  0.07278  Biso   1.000  H
  H211     1.0000 0.07278  0.15955  0.92722  Biso   1.000  H
  H212     1.0000 0.92722  0.84045  0.92722  Biso   1.000  H
  H213     1.0000 0.07278  0.92722  0.15955  Biso   1.000  H
  H214     1.0000 0.92722  0.92722  0.84045  Biso   1.000  H
  H215     1.0000 0.84045  0.07278  0.07278  Biso   1.000  H
  H216     1.0000 0.84045  0.92722  0.92722  Biso   1.000  H
  H217     1.0000 0.15955  0.57278  0.57278  Biso   1.000  H
  H218     1.0000 0.15955  0.42722  0.57278  Biso   1.000  H
  H219     1.0000 0.15955  0.57278  0.42722  Biso   1.000  H
  H220     1.0000 0.07278  0.57278  0.34045  Biso   1.000  H
  H221     1.0000 0.92722  0.57278  0.65955  Biso   1.000  H
  H222     1.0000 0.92722  0.65955  0.57278  Biso   1.000  H
  H223     1.0000 0.07278  0.34045  0.57278  Biso   1.000  H
  H224     1.0000 0.07278  0.65955  0.57278  Biso   1.000  H
  H225     1.0000 0.07278  0.57278  0.65955  Biso   1.000  H
  H226     1.0000 0.92722  0.42722  0.65955  Biso   1.000  H
  H227     1.0000 0.07278  0.34045  0.42722  Biso   1.000  H
  H228     1.0000 0.92722  0.57278  0.34045  Biso   1.000  H
  H229     1.0000 0.92722  0.34045  0.57278  Biso   1.000  H
  H230     1.0000 0.92722  0.65955  0.42722  Biso   1.000  H
  H231     1.0000 0.07278  0.42722  0.34045  Biso   1.000  H
  H232     1.0000 0.15955  0.42722  0.42722  Biso   1.000  H
  H233     1.0000 0.84045  0.57278  0.42722  Biso   1.000  H
  H234     1.0000 0.84045  0.42722  0.57278  Biso   1.000  H
  H235     1.0000 0.07278  0.65955  0.42722  Biso   1.000  H
  H236     1.0000 0.92722  0.34045  0.42722  Biso   1.000  H
  H237     1.0000 0.07278  0.42722  0.65955  Biso   1.000  H
  H238     1.0000 0.92722  0.42722  0.34045  Biso   1.000  H
  H239     1.0000 0.84045  0.57278  0.57278  Biso   1.000  H
  H240     1.0000 0.84045  0.42722  0.42722  Biso   1.000  H
  H241     1.0000 0.65955  0.07278  0.57278  Biso   1.000  H
  H242     1.0000 0.65955  0.92722  0.57278  Biso   1.000  H
  H243     1.0000 0.65955  0.07278  0.42722  Biso   1.000  H
  H244     1.0000 0.57278  0.07278  0.34045  Biso   1.000  H
  H245     1.0000 0.42722  0.07278  0.65955  Biso   1.000  H
  H246     1.0000 0.42722  0.15955  0.57278  Biso   1.000  H
  H247     1.0000 0.57278  0.84045  0.57278  Biso   1.000  H
  H248     1.0000 0.57278  0.15955  0.57278  Biso   1.000  H
  H249     1.0000 0.57278  0.07278  0.65955  Biso   1.000  H
  H250     1.0000 0.42722  0.92722  0.65955  Biso   1.000  H
  H251     1.0000 0.57278  0.84045  0.42722  Biso   1.000  H
  H252     1.0000 0.42722  0.07278  0.34045  Biso   1.000  H
  H253     1.0000 0.42722  0.84045  0.57278  Biso   1.000  H
  H254     1.0000 0.42722  0.15955  0.42722  Biso   1.000  H
  H255     1.0000 0.57278  0.92722  0.34045  Biso   1.000  H
  H256     1.0000 0.65955  0.92722  0.42722  Biso   1.000  H
  H257     1.0000 0.34045  0.07278  0.42722  Biso   1.000  H
  H258     1.0000 0.34045  0.92722  0.57278  Biso   1.000  H
  H259     1.0000 0.57278  0.15955  0.42722  Biso   1.000  H
  H260     1.0000 0.42722  0.84045  0.42722  Biso   1.000  H
  H261     1.0000 0.57278  0.92722  0.65955  Biso   1.000  H
  H262     1.0000 0.42722  0.92722  0.34045  Biso   1.000  H
  H263     1.0000 0.34045  0.07278  0.57278  Biso   1.000  H
  H264     1.0000 0.34045  0.92722  0.42722  Biso   1.000  H
  H265     1.0000 0.65955  0.57278  0.07278  Biso   1.000  H
  H266     1.0000 0.65955  0.42722  0.07278  Biso   1.000  H
  H267     1.0000 0.65955  0.57278  0.92722  Biso   1.000  H
  H268     1.0000 0.57278  0.57278  0.84045  Biso   1.000  H
  H269     1.0000 0.42722  0.57278  0.15955  Biso   1.000  H
  H270     1.0000 0.42722  0.65955  0.07278  Biso   1.000  H
  H271     1.0000 0.57278  0.34045  0.07278  Biso   1.000  H
  H272     1.0000 0.57278  0.65955  0.07278  Biso   1.000  H
  H273     1.0000 0.57278  0.57278  0.15955  Biso   1.000  H
  H274     1.0000 0.42722  0.42722  0.15955  Biso   1.000  H
  H275     1.0000 0.57278  0.34045  0.92722  Biso   1.000  H
  H276     1.0000 0.42722  0.57278  0.84045  Biso   1.000  H
  H277     1.0000 0.42722  0.34045  0.07278  Biso   1.000  H
  H278     1.0000 0.42722  0.65955  0.92722  Biso   1.000  H
  H279     1.0000 0.57278  0.42722  0.84045  Biso   1.000  H
  H280     1.0000 0.65955  0.42722  0.92722  Biso   1.000  H
  H281     1.0000 0.34045  0.57278  0.92722  Biso   1.000  H
  H282     1.0000 0.34045  0.42722  0.07278  Biso   1.000  H
  H283     1.0000 0.57278  0.65955  0.92722  Biso   1.000  H
  H284     1.0000 0.42722  0.34045  0.92722  Biso   1.000  H
  H285     1.0000 0.57278  0.42722  0.15955  Biso   1.000  H
  H286     1.0000 0.42722  0.42722  0.84045  Biso   1.000  H
  H287     1.0000 0.34045  0.57278  0.07278  Biso   1.000  H
  H288     1.0000 0.34045  0.42722  0.92722  Biso   1.000  H
  C673     1.0000 0.17482  0.12091  0.04004  Biso   1.000  C
  C674     1.0000 0.17482  0.95996  0.12091  Biso   1.000  C
  C675     1.0000 0.17482  0.04004  0.87909  Biso   1.000  C
  C676     1.0000 0.04004  0.12091  0.82518  Biso   1.000  C
  C677     1.0000 0.95996  0.12091  0.17482  Biso   1.000  C
  C678     1.0000 0.87909  0.17482  0.04004  Biso   1.000  C
  C679     1.0000 0.12091  0.82518  0.04004  Biso   1.000  C
  C680     1.0000 0.04004  0.17482  0.12091  Biso   1.000  C
  C681     1.0000 0.12091  0.04004  0.17482  Biso   1.000  C
  C682     1.0000 0.87909  0.95996  0.17482  Biso   1.000  C
  C683     1.0000 0.04004  0.82518  0.87909  Biso   1.000  C
  C684     1.0000 0.87909  0.04004  0.82518  Biso   1.000  C
  C685     1.0000 0.95996  0.82518  0.12091  Biso   1.000  C
  C686     1.0000 0.95996  0.17482  0.87909  Biso   1.000  C
  C687     1.0000 0.12091  0.95996  0.82518  Biso   1.000  C
  C688     1.0000 0.17482  0.87909  0.95996  Biso   1.000  C
  C689     1.0000 0.82518  0.12091  0.95996  Biso   1.000  C
  C690     1.0000 0.82518  0.87909  0.04004  Biso   1.000  C
  C691     1.0000 0.12091  0.17482  0.95996  Biso   1.000  C
  C692     1.0000 0.87909  0.82518  0.95996  Biso   1.000  C
  C693     1.0000 0.04004  0.87909  0.17482  Biso   1.000  C
  C694     1.0000 0.95996  0.87909  0.82518  Biso   1.000  C
  C695     1.0000 0.82518  0.04004  0.12091  Biso   1.000  C
  C696     1.0000 0.82518  0.95996  0.87909  Biso   1.000  C
  C697     1.0000 0.17482  0.62091  0.54004  Biso   1.000  C
  C698     1.0000 0.17482  0.45996  0.62091  Biso   1.000  C
  C699     1.0000 0.17482  0.54004  0.37909  Biso   1.000  C
  C700     1.0000 0.04004  0.62091  0.32518  Biso   1.000  C
  C701     1.0000 0.95996  0.62091  0.67482  Biso   1.000  C
  C702     1.0000 0.87909  0.67482  0.54004  Biso   1.000  C
  C703     1.0000 0.12091  0.32518  0.54004  Biso   1.000  C
  C704     1.0000 0.04004  0.67482  0.62091  Biso   1.000  C
  C705     1.0000 0.12091  0.54004  0.67482  Biso   1.000  C
  C706     1.0000 0.87909  0.45996  0.67482  Biso   1.000  C
  C707     1.0000 0.04004  0.32518  0.37909  Biso   1.000  C
  C708     1.0000 0.87909  0.54004  0.32518  Biso   1.000  C
  C709     1.0000 0.95996  0.32518  0.62091  Biso   1.000  C
  C710     1.0000 0.95996  0.67482  0.37909  Biso   1.000  C
  C711     1.0000 0.12091  0.45996  0.32518  Biso   1.000  C
  C712     1.0000 0.17482  0.37909  0.45996  Biso   1.000  C
  C713     1.0000 0.82518  0.62091  0.45996  Biso   1.000  C
  C714     1.0000 0.82518  0.37909  0.54004  Biso   1.000  C
  C715     1.0000 0.12091  0.67482  0.45996  Biso   1.000  C
  C716     1.0000 0.87909  0.32518  0.45996  Biso   1.000  C
  C717     1.0000 0.04004  0.37909  0.67482  Biso   1.000  C
  C718     1.0000 0.95996  0.37909  0.32518  Biso   1.000  C
  C719     1.0000 0.82518  0.54004  0.62091  Biso   1.000  C
  C720     1.0000 0.82518  0.45996  0.37909  Biso   1.000  C
  C721     1.0000 0.67482  0.12091  0.54004  Biso   1.000  C
  C722     1.0000 0.67482  0.95996  0.62091  Biso   1.000  C
  C723     1.0000 0.67482  0.04004  0.37909  Biso   1.000  C
  C724     1.0000 0.54004  0.12091  0.32518  Biso   1.000  C
  C725     1.0000 0.45996  0.12091  0.67482  Biso   1.000  C
  C726     1.0000 0.37909  0.17482  0.54004  Biso   1.000  C
  C727     1.0000 0.62091  0.82518  0.54004  Biso   1.000  C
  C728     1.0000 0.54004  0.17482  0.62091  Biso   1.000  C
  C729     1.0000 0.62091  0.04004  0.67482  Biso   1.000  C
  C730     1.0000 0.37909  0.95996  0.67482  Biso   1.000  C
  C731     1.0000 0.54004  0.82518  0.37909  Biso   1.000  C
  C732     1.0000 0.37909  0.04004  0.32518  Biso   1.000  C
  C733     1.0000 0.45996  0.82518  0.62091  Biso   1.000  C
  C734     1.0000 0.45996  0.17482  0.37909  Biso   1.000  C
  C735     1.0000 0.62091  0.95996  0.32518  Biso   1.000  C
  C736     1.0000 0.67482  0.87909  0.45996  Biso   1.000  C
  C737     1.0000 0.32518  0.12091  0.45996  Biso   1.000  C
  C738     1.0000 0.32518  0.87909  0.54004  Biso   1.000  C
  C739     1.0000 0.62091  0.17482  0.45996  Biso   1.000  C
  C740     1.0000 0.37909  0.82518  0.45996  Biso   1.000  C
  C741     1.0000 0.54004  0.87909  0.67482  Biso   1.000  C
  C742     1.0000 0.45996  0.87909  0.32518  Biso   1.000  C
  C743     1.0000 0.32518  0.04004  0.62091  Biso   1.000  C
  C744     1.0000 0.32518  0.95996  0.37909  Biso   1.000  C
  C745     1.0000 0.67482  0.62091  0.04004  Biso   1.000  C
  C746     1.0000 0.67482  0.45996  0.12091  Biso   1.000  C
  C747     1.0000 0.67482  0.54004  0.87909  Biso   1.000  C
  C748     1.0000 0.54004  0.62091  0.82518  Biso   1.000  C
  C749     1.0000 0.45996  0.62091  0.17482  Biso   1.000  C
  C750     1.0000 0.37909  0.67482  0.04004  Biso   1.000  C
  C751     1.0000 0.62091  0.32518  0.04004  Biso   1.000  C
  C752     1.0000 0.54004  0.67482  0.12091  Biso   1.000  C
  C753     1.0000 0.62091  0.54004  0.17482  Biso   1.000  C
  C754     1.0000 0.37909  0.45996  0.17482  Biso   1.000  C
  C755     1.0000 0.54004  0.32518  0.87909  Biso   1.000  C
  C756     1.0000 0.37909  0.54004  0.82518  Biso   1.000  C
  C757     1.0000 0.45996  0.32518  0.12091  Biso   1.000  C
  C758     1.0000 0.45996  0.67482  0.87909  Biso   1.000  C
  C759     1.0000 0.62091  0.45996  0.82518  Biso   1.000  C
  C760     1.0000 0.67482  0.37909  0.95996  Biso   1.000  C
  C761     1.0000 0.32518  0.62091  0.95996  Biso   1.000  C
  C762     1.0000 0.32518  0.37909  0.04004  Biso   1.000  C
  C763     1.0000 0.62091  0.67482  0.95996  Biso   1.000  C
  C764     1.0000 0.37909  0.32518  0.95996  Biso   1.000  C
  C765     1.0000 0.54004  0.37909  0.17482  Biso   1.000  C
  C766     1.0000 0.45996  0.37909  0.82518  Biso   1.000  C
  C767     1.0000 0.32518  0.54004  0.12091  Biso   1.000  C
  C768     1.0000 0.32518  0.45996  0.87909  Biso   1.000  C
  C769     1.0000 0.82518  0.87909  0.95996  Biso   1.000  C
  C770     1.0000 0.82518  0.04004  0.87909  Biso   1.000  C
  C771     1.0000 0.82518  0.95996  0.12091  Biso   1.000  C
  C772     1.0000 0.95996  0.87909  0.17482  Biso   1.000  C
  C773     1.0000 0.04004  0.87909  0.82518  Biso   1.000  C
  C774     1.0000 0.12091  0.82518  0.95996  Biso   1.000  C
  C775     1.0000 0.87909  0.17482  0.95996  Biso   1.000  C
  C776     1.0000 0.95996  0.82518  0.87909  Biso   1.000  C
  C777     1.0000 0.87909  0.95996  0.82518  Biso   1.000  C
  C778     1.0000 0.12091  0.04004  0.82518  Biso   1.000  C
  C779     1.0000 0.95996  0.17482  0.12091  Biso   1.000  C
  C780     1.0000 0.12091  0.95996  0.17482  Biso   1.000  C
  C781     1.0000 0.04004  0.17482  0.87909  Biso   1.000  C
  C782     1.0000 0.04004  0.82518  0.12091  Biso   1.000  C
  C783     1.0000 0.87909  0.04004  0.17482  Biso   1.000  C
  C784     1.0000 0.82518  0.12091  0.04004  Biso   1.000  C
  C785     1.0000 0.17482  0.87909  0.04004  Biso   1.000  C
  C786     1.0000 0.17482  0.12091  0.95996  Biso   1.000  C
  C787     1.0000 0.87909  0.82518  0.04004  Biso   1.000  C
  C788     1.0000 0.12091  0.17482  0.04004  Biso   1.000  C
  C789     1.0000 0.95996  0.12091  0.82518  Biso   1.000  C
  C790     1.0000 0.04004  0.12091  0.17482  Biso   1.000  C
  C791     1.0000 0.17482  0.95996  0.87909  Biso   1.000  C
  C792     1.0000 0.17482  0.04004  0.12091  Biso   1.000  C
  C793     1.0000 0.82518  0.37909  0.45996  Biso   1.000  C
  C794     1.0000 0.82518  0.54004  0.37909  Biso   1.000  C
  C795     1.0000 0.82518  0.45996  0.62091  Biso   1.000  C
  C796     1.0000 0.95996  0.37909  0.67482  Biso   1.000  C
  C797     1.0000 0.04004  0.37909  0.32518  Biso   1.000  C
  C798     1.0000 0.12091  0.32518  0.45996  Biso   1.000  C
  C799     1.0000 0.87909  0.67482  0.45996  Biso   1.000  C
  C800     1.0000 0.95996  0.32518  0.37909  Biso   1.000  C
  C801     1.0000 0.87909  0.45996  0.32518  Biso   1.000  C
  C802     1.0000 0.12091  0.54004  0.32518  Biso   1.000  C
  C803     1.0000 0.95996  0.67482  0.62091  Biso   1.000  C
  C804     1.0000 0.12091  0.45996  0.67482  Biso   1.000  C
  C805     1.0000 0.04004  0.67482  0.37909  Biso   1.000  C
  C806     1.0000 0.04004  0.32518  0.62091  Biso   1.000  C
  C807     1.0000 0.87909  0.54004  0.67482  Biso   1.000  C
  C808     1.0000 0.82518  0.62091  0.54004  Biso   1.000  C
  C809     1.0000 0.17482  0.37909  0.54004  Biso   1.000  C
  C810     1.0000 0.17482  0.62091  0.45996  Biso   1.000  C
  C811     1.0000 0.87909  0.32518  0.54004  Biso   1.000  C
  C812     1.0000 0.12091  0.67482  0.54004  Biso   1.000  C
  C813     1.0000 0.95996  0.62091  0.32518  Biso   1.000  C
  C814     1.0000 0.04004  0.62091  0.67482  Biso   1.000  C
  C815     1.0000 0.17482  0.45996  0.37909  Biso   1.000  C
  C816     1.0000 0.17482  0.54004  0.62091  Biso   1.000  C
  C817     1.0000 0.32518  0.87909  0.45996  Biso   1.000  C
  C818     1.0000 0.32518  0.04004  0.37909  Biso   1.000  C
  C819     1.0000 0.32518  0.95996  0.62091  Biso   1.000  C
  C820     1.0000 0.45996  0.87909  0.67482  Biso   1.000  C
  C821     1.0000 0.54004  0.87909  0.32518  Biso   1.000  C
  C822     1.0000 0.62091  0.82518  0.45996  Biso   1.000  C
  C823     1.0000 0.37909  0.17482  0.45996  Biso   1.000  C
  C824     1.0000 0.45996  0.82518  0.37909  Biso   1.000  C
  C825     1.0000 0.37909  0.95996  0.32518  Biso   1.000  C
  C826     1.0000 0.62091  0.04004  0.32518  Biso   1.000  C
  C827     1.0000 0.45996  0.17482  0.62091  Biso   1.000  C
  C828     1.0000 0.62091  0.95996  0.67482  Biso   1.000  C
  C829     1.0000 0.54004  0.17482  0.37909  Biso   1.000  C
  C830     1.0000 0.54004  0.82518  0.62091  Biso   1.000  C
  C831     1.0000 0.37909  0.04004  0.67482  Biso   1.000  C
  C832     1.0000 0.32518  0.12091  0.54004  Biso   1.000  C
  C833     1.0000 0.67482  0.87909  0.54004  Biso   1.000  C
  C834     1.0000 0.67482  0.12091  0.45996  Biso   1.000  C
  C835     1.0000 0.37909  0.82518  0.54004  Biso   1.000  C
  C836     1.0000 0.62091  0.17482  0.54004  Biso   1.000  C
  C837     1.0000 0.45996  0.12091  0.32518  Biso   1.000  C
  C838     1.0000 0.54004  0.12091  0.67482  Biso   1.000  C
  C839     1.0000 0.67482  0.95996  0.37909  Biso   1.000  C
  C840     1.0000 0.67482  0.04004  0.62091  Biso   1.000  C
  C841     1.0000 0.32518  0.37909  0.95996  Biso   1.000  C
  C842     1.0000 0.32518  0.54004  0.87909  Biso   1.000  C
  C843     1.0000 0.32518  0.45996  0.12091  Biso   1.000  C
  C844     1.0000 0.45996  0.37909  0.17482  Biso   1.000  C
  C845     1.0000 0.54004  0.37909  0.82518  Biso   1.000  C
  C846     1.0000 0.62091  0.32518  0.95996  Biso   1.000  C
  C847     1.0000 0.37909  0.67482  0.95996  Biso   1.000  C
  C848     1.0000 0.45996  0.32518  0.87909  Biso   1.000  C
  C849     1.0000 0.37909  0.45996  0.82518  Biso   1.000  C
  C850     1.0000 0.62091  0.54004  0.82518  Biso   1.000  C
  C851     1.0000 0.45996  0.67482  0.12091  Biso   1.000  C
  C852     1.0000 0.62091  0.45996  0.17482  Biso   1.000  C
  C853     1.0000 0.54004  0.67482  0.87909  Biso   1.000  C
  C854     1.0000 0.54004  0.32518  0.12091  Biso   1.000  C
  C855     1.0000 0.37909  0.54004  0.17482  Biso   1.000  C
  C856     1.0000 0.32518  0.62091  0.04004  Biso   1.000  C
  C857     1.0000 0.67482  0.37909  0.04004  Biso   1.000  C
  C858     1.0000 0.67482  0.62091  0.95996  Biso   1.000  C
  C859     1.0000 0.37909  0.32518  0.04004  Biso   1.000  C
  C860     1.0000 0.62091  0.67482  0.04004  Biso   1.000  C
  C861     1.0000 0.45996  0.62091  0.82518  Biso   1.000  C
  C862     1.0000 0.54004  0.62091  0.17482  Biso   1.000  C
  C863     1.0000 0.67482  0.45996  0.87909  Biso   1.000  C
  C864     1.0000 0.67482  0.54004  0.12091  Biso   1.000  C
  W1       1.0000 0.30507  0.19493  0.24721  Biso   1.000  W
  W2       1.0000 0.30507  0.75279  0.19493  Biso   1.000  W
  W3       1.0000 0.30507  0.24721  0.80507  Biso   1.000  W
  W4       1.0000 0.24721  0.19493  0.69493  Biso   1.000  W
  W5       1.0000 0.75279  0.19493  0.30507  Biso   1.000  W
  W6       1.0000 0.80507  0.30507  0.24721  Biso   1.000  W
  W7       1.0000 0.19493  0.69493  0.24721  Biso   1.000  W
  W8       1.0000 0.24721  0.30507  0.19493  Biso   1.000  W
  W9       1.0000 0.19493  0.24721  0.30507  Biso   1.000  W
  W10      1.0000 0.80507  0.75279  0.30507  Biso   1.000  W
  W11      1.0000 0.24721  0.69493  0.80507  Biso   1.000  W
  W12      1.0000 0.80507  0.24721  0.69493  Biso   1.000  W
  W13      1.0000 0.75279  0.69493  0.19493  Biso   1.000  W
  W14      1.0000 0.75279  0.30507  0.80507  Biso   1.000  W
  W15      1.0000 0.19493  0.75279  0.69493  Biso   1.000  W
  W16      1.0000 0.30507  0.80507  0.75279  Biso   1.000  W
  W17      1.0000 0.69493  0.19493  0.75279  Biso   1.000  W
  W18      1.0000 0.69493  0.80507  0.24721  Biso   1.000  W
  W19      1.0000 0.19493  0.30507  0.75279  Biso   1.000  W
  W20      1.0000 0.80507  0.69493  0.75279  Biso   1.000  W
  W21      1.0000 0.24721  0.80507  0.30507  Biso   1.000  W
  W22      1.0000 0.75279  0.80507  0.69493  Biso   1.000  W
  W23      1.0000 0.69493  0.24721  0.19493  Biso   1.000  W
  W24      1.0000 0.69493  0.75279  0.80507  Biso   1.000  W
  W25      1.0000 0.30507  0.69493  0.74721  Biso   1.000  W
  W26      1.0000 0.30507  0.25279  0.69493  Biso   1.000  W
  W27      1.0000 0.30507  0.74721  0.30507  Biso   1.000  W
  W28      1.0000 0.24721  0.69493  0.19493  Biso   1.000  W
  W29      1.0000 0.75279  0.69493  0.80507  Biso   1.000  W
  W30      1.0000 0.80507  0.80507  0.74721  Biso   1.000  W
  W31      1.0000 0.19493  0.19493  0.74721  Biso   1.000  W
  W32      1.0000 0.24721  0.80507  0.69493  Biso   1.000  W
  W33      1.0000 0.19493  0.74721  0.80507  Biso   1.000  W
  W34      1.0000 0.80507  0.25279  0.80507  Biso   1.000  W
  W35      1.0000 0.24721  0.19493  0.30507  Biso   1.000  W
  W36      1.0000 0.80507  0.74721  0.19493  Biso   1.000  W
  W37      1.0000 0.75279  0.19493  0.69493  Biso   1.000  W
  W38      1.0000 0.75279  0.80507  0.30507  Biso   1.000  W
  W39      1.0000 0.19493  0.25279  0.19493  Biso   1.000  W
  W40      1.0000 0.30507  0.30507  0.25279  Biso   1.000  W
  W41      1.0000 0.69493  0.69493  0.25279  Biso   1.000  W
  W42      1.0000 0.69493  0.30507  0.74721  Biso   1.000  W
  W43      1.0000 0.19493  0.80507  0.25279  Biso   1.000  W
  W44      1.0000 0.80507  0.19493  0.25279  Biso   1.000  W
  W45      1.0000 0.24721  0.30507  0.80507  Biso   1.000  W
  W46      1.0000 0.75279  0.30507  0.19493  Biso   1.000  W
  W47      1.0000 0.69493  0.74721  0.69493  Biso   1.000  W
  W48      1.0000 0.69493  0.25279  0.30507  Biso   1.000  W
  W49      1.0000 0.80507  0.19493  0.74721  Biso   1.000  W
  W50      1.0000 0.80507  0.75279  0.69493  Biso   1.000  W
  W51      1.0000 0.80507  0.24721  0.30507  Biso   1.000  W
  W52      1.0000 0.74721  0.19493  0.19493  Biso   1.000  W
  W53      1.0000 0.25279  0.19493  0.80507  Biso   1.000  W
  W54      1.0000 0.30507  0.30507  0.74721  Biso   1.000  W
  W55      1.0000 0.69493  0.69493  0.74721  Biso   1.000  W
  W56      1.0000 0.74721  0.30507  0.69493  Biso   1.000  W
  W57      1.0000 0.69493  0.24721  0.80507  Biso   1.000  W
  W58      1.0000 0.30507  0.75279  0.80507  Biso   1.000  W
  W59      1.0000 0.74721  0.69493  0.30507  Biso   1.000  W
  W60      1.0000 0.30507  0.24721  0.19493  Biso   1.000  W
  W61      1.0000 0.25279  0.69493  0.69493  Biso   1.000  W
  W62      1.0000 0.25279  0.30507  0.30507  Biso   1.000  W
  W63      1.0000 0.69493  0.75279  0.19493  Biso   1.000  W
  W64      1.0000 0.80507  0.80507  0.25279  Biso   1.000  W
  W65      1.0000 0.19493  0.19493  0.25279  Biso   1.000  W
  W66      1.0000 0.19493  0.80507  0.74721  Biso   1.000  W
  W67      1.0000 0.69493  0.30507  0.25279  Biso   1.000  W
  W68      1.0000 0.30507  0.69493  0.25279  Biso   1.000  W
  W69      1.0000 0.74721  0.80507  0.80507  Biso   1.000  W
  W70      1.0000 0.25279  0.80507  0.19493  Biso   1.000  W
  W71      1.0000 0.19493  0.24721  0.69493  Biso   1.000  W
  W72      1.0000 0.19493  0.75279  0.30507  Biso   1.000  W
  W73      1.0000 0.80507  0.69493  0.24721  Biso   1.000  W
  W74      1.0000 0.80507  0.25279  0.19493  Biso   1.000  W
  W75      1.0000 0.80507  0.74721  0.80507  Biso   1.000  W
  W76      1.0000 0.74721  0.69493  0.69493  Biso   1.000  W
  W77      1.0000 0.25279  0.69493  0.30507  Biso   1.000  W
  W78      1.0000 0.30507  0.80507  0.24721  Biso   1.000  W
  W79      1.0000 0.69493  0.19493  0.24721  Biso   1.000  W
  W80      1.0000 0.74721  0.80507  0.19493  Biso   1.000  W
  W81      1.0000 0.69493  0.74721  0.30507  Biso   1.000  W
  W82      1.0000 0.30507  0.25279  0.30507  Biso   1.000  W
  W83      1.0000 0.74721  0.19493  0.80507  Biso   1.000  W
  W84      1.0000 0.30507  0.74721  0.69493  Biso   1.000  W
  W85      1.0000 0.25279  0.19493  0.19493  Biso   1.000  W
  W86      1.0000 0.25279  0.80507  0.80507  Biso   1.000  W
  W87      1.0000 0.69493  0.25279  0.69493  Biso   1.000  W
  W88      1.0000 0.80507  0.30507  0.75279  Biso   1.000  W
  W89      1.0000 0.19493  0.69493  0.75279  Biso   1.000  W
  W90      1.0000 0.19493  0.30507  0.24721  Biso   1.000  W
  W91      1.0000 0.69493  0.80507  0.75279  Biso   1.000  W
  W92      1.0000 0.30507  0.19493  0.75279  Biso   1.000  W
  W93      1.0000 0.74721  0.30507  0.30507  Biso   1.000  W
  W94      1.0000 0.25279  0.30507  0.69493  Biso   1.000  W
  W95      1.0000 0.19493  0.74721  0.19493  Biso   1.000  W
  W96      1.0000 0.19493  0.25279  0.80507  Biso   1.000  W
  O609     1.0000 0.26380  0.26380  0.26380  Biso   1.000  O
  O610     1.0000 0.26380  0.73620  0.26380  Biso   1.000  O
  O611     1.0000 0.26380  0.26380  0.73620  Biso   1.000  O
  O612     1.0000 0.73620  0.26380  0.26380  Biso   1.000  O
  O613     1.0000 0.73620  0.73620  0.26380  Biso   1.000  O
  O614     1.0000 0.26380  0.73620  0.73620  Biso   1.000  O
  O615     1.0000 0.73620  0.26380  0.73620  Biso   1.000  O
  O616     1.0000 0.73620  0.73620  0.73620  Biso   1.000  O
  O617     1.0000 0.26380  0.76380  0.76380  Biso   1.000  O
  O618     1.0000 0.26380  0.23620  0.76380  Biso   1.000  O
  O619     1.0000 0.26380  0.76380  0.23620  Biso   1.000  O
  O620     1.0000 0.73620  0.76380  0.76380  Biso   1.000  O
  O621     1.0000 0.73620  0.23620  0.76380  Biso   1.000  O
  O622     1.0000 0.26380  0.23620  0.23620  Biso   1.000  O
  O623     1.0000 0.73620  0.76380  0.23620  Biso   1.000  O
  O624     1.0000 0.73620  0.23620  0.23620  Biso   1.000  O
  O625     1.0000 0.76380  0.26380  0.76380  Biso   1.000  O
  O626     1.0000 0.76380  0.73620  0.76380  Biso   1.000  O
  O627     1.0000 0.76380  0.26380  0.23620  Biso   1.000  O
  O628     1.0000 0.23620  0.26380  0.76380  Biso   1.000  O
  O629     1.0000 0.23620  0.73620  0.76380  Biso   1.000  O
  O630     1.0000 0.76380  0.73620  0.23620  Biso   1.000  O
  O631     1.0000 0.23620  0.26380  0.23620  Biso   1.000  O
  O632     1.0000 0.23620  0.73620  0.23620  Biso   1.000  O
  O633     1.0000 0.76380  0.76380  0.26380  Biso   1.000  O
  O634     1.0000 0.76380  0.23620  0.26380  Biso   1.000  O
  O635     1.0000 0.76380  0.76380  0.73620  Biso   1.000  O
  O636     1.0000 0.23620  0.76380  0.26380  Biso   1.000  O
  O637     1.0000 0.23620  0.23620  0.26380  Biso   1.000  O
  O638     1.0000 0.76380  0.23620  0.73620  Biso   1.000  O
  O639     1.0000 0.23620  0.76380  0.73620  Biso   1.000  O
  O640     1.0000 0.23620  0.23620  0.73620  Biso   1.000  O
  P1       1.0000 0.23340  0.26660  0.26660  Biso   1.000  P
  P2       1.0000 0.23340  0.73340  0.26660  Biso   1.000  P
  P3       1.0000 0.23340  0.26660  0.73340  Biso   1.000  P
  P4       1.0000 0.26660  0.26660  0.76660  Biso   1.000  P
  P5       1.0000 0.73340  0.26660  0.23340  Biso   1.000  P
  P6       1.0000 0.73340  0.23340  0.26660  Biso   1.000  P
  P7       1.0000 0.26660  0.76660  0.26660  Biso   1.000  P
  P8       1.0000 0.26660  0.23340  0.26660  Biso   1.000  P
  P9       1.0000 0.26660  0.26660  0.23340  Biso   1.000  P
  P10      1.0000 0.73340  0.73340  0.23340  Biso   1.000  P
  P11      1.0000 0.26660  0.76660  0.73340  Biso   1.000  P
  P12      1.0000 0.73340  0.26660  0.76660  Biso   1.000  P
  P13      1.0000 0.73340  0.76660  0.26660  Biso   1.000  P
  P14      1.0000 0.73340  0.23340  0.73340  Biso   1.000  P
  P15      1.0000 0.26660  0.73340  0.76660  Biso   1.000  P
  P16      1.0000 0.23340  0.73340  0.73340  Biso   1.000  P
  P17      1.0000 0.76660  0.26660  0.73340  Biso   1.000  P
  P18      1.0000 0.76660  0.73340  0.26660  Biso   1.000  P
  P19      1.0000 0.26660  0.23340  0.73340  Biso   1.000  P
  P20      1.0000 0.73340  0.76660  0.73340  Biso   1.000  P
  P21      1.0000 0.26660  0.73340  0.23340  Biso   1.000  P
  P22      1.0000 0.73340  0.73340  0.76660  Biso   1.000  P
  P23      1.0000 0.76660  0.26660  0.26660  Biso   1.000  P
  P24      1.0000 0.76660  0.73340  0.73340  Biso   1.000  P
  P25      1.0000 0.23340  0.76660  0.76660  Biso   1.000  P
  P26      1.0000 0.23340  0.23340  0.76660  Biso   1.000  P
  P27      1.0000 0.23340  0.76660  0.23340  Biso   1.000  P
  P28      1.0000 0.23340  0.23340  0.23340  Biso   1.000  P
  P29      1.0000 0.76660  0.76660  0.23340  Biso   1.000  P
  P30      1.0000 0.76660  0.23340  0.76660  Biso   1.000  P
  P31      1.0000 0.76660  0.76660  0.76660  Biso   1.000  P
  P32      1.0000 0.76660  0.23340  0.23340  Biso   1.000  P
  O641     1.0000 0.28130  0.16980  0.21870  Biso   1.000  O
  O642     1.0000 0.28130  0.78130  0.16980  Biso   1.000  O
  O643     1.0000 0.28130  0.21870  0.83020  Biso   1.000  O
  O644     1.0000 0.21870  0.16980  0.71870  Biso   1.000  O
  O645     1.0000 0.78130  0.16980  0.28130  Biso   1.000  O
  O646     1.0000 0.83020  0.28130  0.21870  Biso   1.000  O
  O647     1.0000 0.16980  0.71870  0.21870  Biso   1.000  O
  O648     1.0000 0.21870  0.28130  0.16980  Biso   1.000  O
  O649     1.0000 0.16980  0.21870  0.28130  Biso   1.000  O
  O650     1.0000 0.83020  0.78130  0.28130  Biso   1.000  O
  O651     1.0000 0.21870  0.71870  0.83020  Biso   1.000  O
  O652     1.0000 0.83020  0.21870  0.71870  Biso   1.000  O
  O653     1.0000 0.78130  0.71870  0.16980  Biso   1.000  O
  O654     1.0000 0.78130  0.28130  0.83020  Biso   1.000  O
  O655     1.0000 0.16980  0.78130  0.71870  Biso   1.000  O
  O656     1.0000 0.28130  0.83020  0.78130  Biso   1.000  O
  O657     1.0000 0.71870  0.16980  0.78130  Biso   1.000  O
  O658     1.0000 0.71870  0.83020  0.21870  Biso   1.000  O
  O659     1.0000 0.16980  0.28130  0.78130  Biso   1.000  O
  O660     1.0000 0.83020  0.71870  0.78130  Biso   1.000  O
  O661     1.0000 0.21870  0.83020  0.28130  Biso   1.000  O
  O662     1.0000 0.78130  0.83020  0.71870  Biso   1.000  O
  O663     1.0000 0.71870  0.21870  0.16980  Biso   1.000  O
  O664     1.0000 0.71870  0.78130  0.83020  Biso   1.000  O
  O665     1.0000 0.28130  0.66980  0.71870  Biso   1.000  O
  O666     1.0000 0.28130  0.28130  0.66980  Biso   1.000  O
  O667     1.0000 0.28130  0.71870  0.33020  Biso   1.000  O
  O668     1.0000 0.21870  0.66980  0.21870  Biso   1.000  O
  O669     1.0000 0.78130  0.66980  0.78130  Biso   1.000  O
  O670     1.0000 0.83020  0.78130  0.71870  Biso   1.000  O
  O671     1.0000 0.16980  0.21870  0.71870  Biso   1.000  O
  O672     1.0000 0.21870  0.78130  0.66980  Biso   1.000  O
  O673     1.0000 0.16980  0.71870  0.78130  Biso   1.000  O
  O674     1.0000 0.83020  0.28130  0.78130  Biso   1.000  O
  O675     1.0000 0.21870  0.21870  0.33020  Biso   1.000  O
  O676     1.0000 0.83020  0.71870  0.21870  Biso   1.000  O
  O677     1.0000 0.78130  0.21870  0.66980  Biso   1.000  O
  O678     1.0000 0.78130  0.78130  0.33020  Biso   1.000  O
  O679     1.0000 0.16980  0.28130  0.21870  Biso   1.000  O
  O680     1.0000 0.28130  0.33020  0.28130  Biso   1.000  O
  O681     1.0000 0.71870  0.66980  0.28130  Biso   1.000  O
  O682     1.0000 0.71870  0.33020  0.71870  Biso   1.000  O
  O683     1.0000 0.16980  0.78130  0.28130  Biso   1.000  O
  O684     1.0000 0.83020  0.21870  0.28130  Biso   1.000  O
  O685     1.0000 0.21870  0.33020  0.78130  Biso   1.000  O
  O686     1.0000 0.78130  0.33020  0.21870  Biso   1.000  O
  O687     1.0000 0.71870  0.71870  0.66980  Biso   1.000  O
  O688     1.0000 0.71870  0.28130  0.33020  Biso   1.000  O
  O689     1.0000 0.78130  0.16980  0.71870  Biso   1.000  O
  O690     1.0000 0.78130  0.78130  0.66980  Biso   1.000  O
  O691     1.0000 0.78130  0.21870  0.33020  Biso   1.000  O
  O692     1.0000 0.71870  0.16980  0.21870  Biso   1.000  O
  O693     1.0000 0.28130  0.16980  0.78130  Biso   1.000  O
  O694     1.0000 0.33020  0.28130  0.71870  Biso   1.000  O
  O695     1.0000 0.66980  0.71870  0.71870  Biso   1.000  O
  O696     1.0000 0.71870  0.28130  0.66980  Biso   1.000  O
  O697     1.0000 0.66980  0.21870  0.78130  Biso   1.000  O
  O698     1.0000 0.33020  0.78130  0.78130  Biso   1.000  O
  O699     1.0000 0.71870  0.71870  0.33020  Biso   1.000  O
  O700     1.0000 0.33020  0.21870  0.21870  Biso   1.000  O
  O701     1.0000 0.28130  0.71870  0.66980  Biso   1.000  O
  O702     1.0000 0.28130  0.28130  0.33020  Biso   1.000  O
  O703     1.0000 0.66980  0.78130  0.21870  Biso   1.000  O
  O704     1.0000 0.78130  0.83020  0.28130  Biso   1.000  O
  O705     1.0000 0.21870  0.16980  0.28130  Biso   1.000  O
  O706     1.0000 0.21870  0.83020  0.71870  Biso   1.000  O
  O707     1.0000 0.66980  0.28130  0.28130  Biso   1.000  O
  O708     1.0000 0.33020  0.71870  0.28130  Biso   1.000  O
  O709     1.0000 0.71870  0.83020  0.78130  Biso   1.000  O
  O710     1.0000 0.28130  0.83020  0.21870  Biso   1.000  O
  O711     1.0000 0.21870  0.21870  0.66980  Biso   1.000  O
  O712     1.0000 0.21870  0.78130  0.33020  Biso   1.000  O
  O713     1.0000 0.78130  0.66980  0.21870  Biso   1.000  O
  O714     1.0000 0.78130  0.28130  0.16980  Biso   1.000  O
  O715     1.0000 0.78130  0.71870  0.83020  Biso   1.000  O
  O716     1.0000 0.71870  0.66980  0.71870  Biso   1.000  O
  O717     1.0000 0.28130  0.66980  0.28130  Biso   1.000  O
  O718     1.0000 0.33020  0.78130  0.21870  Biso   1.000  O
  O719     1.0000 0.66980  0.21870  0.21870  Biso   1.000  O
  O720     1.0000 0.71870  0.78130  0.16980  Biso   1.000  O
  O721     1.0000 0.66980  0.71870  0.28130  Biso   1.000  O
  O722     1.0000 0.33020  0.28130  0.28130  Biso   1.000  O
  O723     1.0000 0.71870  0.21870  0.83020  Biso   1.000  O
  O724     1.0000 0.33020  0.71870  0.71870  Biso   1.000  O
  O725     1.0000 0.28130  0.21870  0.16980  Biso   1.000  O
  O726     1.0000 0.28130  0.78130  0.83020  Biso   1.000  O
  O727     1.0000 0.66980  0.28130  0.71870  Biso   1.000  O
  O728     1.0000 0.78130  0.33020  0.78130  Biso   1.000  O
  O729     1.0000 0.21870  0.66980  0.78130  Biso   1.000  O
  O730     1.0000 0.21870  0.33020  0.21870  Biso   1.000  O
  O731     1.0000 0.66980  0.78130  0.78130  Biso   1.000  O
  O732     1.0000 0.33020  0.21870  0.78130  Biso   1.000  O
  O733     1.0000 0.71870  0.33020  0.28130  Biso   1.000  O
  O734     1.0000 0.28130  0.33020  0.71870  Biso   1.000  O
  O735     1.0000 0.21870  0.71870  0.16980  Biso   1.000  O
  O736     1.0000 0.21870  0.28130  0.83020  Biso   1.000  O
  O737     1.0000 0.33940  0.16060  0.26180  Biso   1.000  O
  O738     1.0000 0.33940  0.73820  0.16060  Biso   1.000  O
  O739     1.0000 0.33940  0.26180  0.83940  Biso   1.000  O
  O740     1.0000 0.26180  0.16060  0.66060  Biso   1.000  O
  O741     1.0000 0.73820  0.16060  0.33940  Biso   1.000  O
  O742     1.0000 0.83940  0.33940  0.26180  Biso   1.000  O
  O743     1.0000 0.16060  0.66060  0.26180  Biso   1.000  O
  O744     1.0000 0.26180  0.33940  0.16060  Biso   1.000  O
  O745     1.0000 0.16060  0.26180  0.33940  Biso   1.000  O
  O746     1.0000 0.83940  0.73820  0.33940  Biso   1.000  O
  O747     1.0000 0.26180  0.66060  0.83940  Biso   1.000  O
  O748     1.0000 0.83940  0.26180  0.66060  Biso   1.000  O
  O749     1.0000 0.73820  0.66060  0.16060  Biso   1.000  O
  O750     1.0000 0.73820  0.33940  0.83940  Biso   1.000  O
  O751     1.0000 0.16060  0.73820  0.66060  Biso   1.000  O
  O752     1.0000 0.33940  0.83940  0.73820  Biso   1.000  O
  O753     1.0000 0.66060  0.16060  0.73820  Biso   1.000  O
  O754     1.0000 0.66060  0.83940  0.26180  Biso   1.000  O
  O755     1.0000 0.16060  0.33940  0.73820  Biso   1.000  O
  O756     1.0000 0.83940  0.66060  0.73820  Biso   1.000  O
  O757     1.0000 0.26180  0.83940  0.33940  Biso   1.000  O
  O758     1.0000 0.73820  0.83940  0.66060  Biso   1.000  O
  O759     1.0000 0.66060  0.26180  0.16060  Biso   1.000  O
  O760     1.0000 0.66060  0.73820  0.83940  Biso   1.000  O
  O761     1.0000 0.33940  0.66060  0.76180  Biso   1.000  O
  O762     1.0000 0.33940  0.23820  0.66060  Biso   1.000  O
  O763     1.0000 0.33940  0.76180  0.33940  Biso   1.000  O
  O764     1.0000 0.26180  0.66060  0.16060  Biso   1.000  O
  O765     1.0000 0.73820  0.66060  0.83940  Biso   1.000  O
  O766     1.0000 0.83940  0.83940  0.76180  Biso   1.000  O
  O767     1.0000 0.16060  0.16060  0.76180  Biso   1.000  O
  O768     1.0000 0.26180  0.83940  0.66060  Biso   1.000  O
  O769     1.0000 0.16060  0.76180  0.83940  Biso   1.000  O
  O770     1.0000 0.83940  0.23820  0.83940  Biso   1.000  O
  O771     1.0000 0.26180  0.16060  0.33940  Biso   1.000  O
  O772     1.0000 0.83940  0.76180  0.16060  Biso   1.000  O
  O773     1.0000 0.73820  0.16060  0.66060  Biso   1.000  O
  O774     1.0000 0.73820  0.83940  0.33940  Biso   1.000  O
  O775     1.0000 0.16060  0.23820  0.16060  Biso   1.000  O
  O776     1.0000 0.33940  0.33940  0.23820  Biso   1.000  O
  O777     1.0000 0.66060  0.66060  0.23820  Biso   1.000  O
  O778     1.0000 0.66060  0.33940  0.76180  Biso   1.000  O
  O779     1.0000 0.16060  0.83940  0.23820  Biso   1.000  O
  O780     1.0000 0.83940  0.16060  0.23820  Biso   1.000  O
  O781     1.0000 0.26180  0.33940  0.83940  Biso   1.000  O
  O782     1.0000 0.73820  0.33940  0.16060  Biso   1.000  O
  O783     1.0000 0.66060  0.76180  0.66060  Biso   1.000  O
  O784     1.0000 0.66060  0.23820  0.33940  Biso   1.000  O
  O785     1.0000 0.83940  0.16060  0.76180  Biso   1.000  O
  O786     1.0000 0.83940  0.73820  0.66060  Biso   1.000  O
  O787     1.0000 0.83940  0.26180  0.33940  Biso   1.000  O
  O788     1.0000 0.76180  0.16060  0.16060  Biso   1.000  O
  O789     1.0000 0.23820  0.16060  0.83940  Biso   1.000  O
  O790     1.0000 0.33940  0.33940  0.76180  Biso   1.000  O
  O791     1.0000 0.66060  0.66060  0.76180  Biso   1.000  O
  O792     1.0000 0.76180  0.33940  0.66060  Biso   1.000  O
  O793     1.0000 0.66060  0.26180  0.83940  Biso   1.000  O
  O794     1.0000 0.33940  0.73820  0.83940  Biso   1.000  O
  O795     1.0000 0.76180  0.66060  0.33940  Biso   1.000  O
  O796     1.0000 0.33940  0.26180  0.16060  Biso   1.000  O
  O797     1.0000 0.23820  0.66060  0.66060  Biso   1.000  O
  O798     1.0000 0.23820  0.33940  0.33940  Biso   1.000  O
  O799     1.0000 0.66060  0.73820  0.16060  Biso   1.000  O
  O800     1.0000 0.83940  0.83940  0.23820  Biso   1.000  O
  O801     1.0000 0.16060  0.16060  0.23820  Biso   1.000  O
  O802     1.0000 0.16060  0.83940  0.76180  Biso   1.000  O
  O803     1.0000 0.66060  0.33940  0.23820  Biso   1.000  O
  O804     1.0000 0.33940  0.66060  0.23820  Biso   1.000  O
  O805     1.0000 0.76180  0.83940  0.83940  Biso   1.000  O
  O806     1.0000 0.23820  0.83940  0.16060  Biso   1.000  O
  O807     1.0000 0.16060  0.26180  0.66060  Biso   1.000  O
  O808     1.0000 0.16060  0.73820  0.33940  Biso   1.000  O
  O809     1.0000 0.83940  0.66060  0.26180  Biso   1.000  O
  O810     1.0000 0.83940  0.23820  0.16060  Biso   1.000  O
  O811     1.0000 0.83940  0.76180  0.83940  Biso   1.000  O
  O812     1.0000 0.76180  0.66060  0.66060  Biso   1.000  O
  O813     1.0000 0.23820  0.66060  0.33940  Biso   1.000  O
  O814     1.0000 0.33940  0.83940  0.26180  Biso   1.000  O
  O815     1.0000 0.66060  0.16060  0.26180  Biso   1.000  O
  O816     1.0000 0.76180  0.83940  0.16060  Biso   1.000  O
  O817     1.0000 0.66060  0.76180  0.33940  Biso   1.000  O
  O818     1.0000 0.33940  0.23820  0.33940  Biso   1.000  O
  O819     1.0000 0.76180  0.16060  0.83940  Biso   1.000  O
  O820     1.0000 0.33940  0.76180  0.66060  Biso   1.000  O
  O821     1.0000 0.23820  0.16060  0.16060  Biso   1.000  O
  O822     1.0000 0.23820  0.83940  0.83940  Biso   1.000  O
  O823     1.0000 0.66060  0.23820  0.66060  Biso   1.000  O
  O824     1.0000 0.83940  0.33940  0.73820  Biso   1.000  O
  O825     1.0000 0.16060  0.66060  0.73820  Biso   1.000  O
  O826     1.0000 0.16060  0.33940  0.26180  Biso   1.000  O
  O827     1.0000 0.66060  0.83940  0.73820  Biso   1.000  O
  O828     1.0000 0.33940  0.16060  0.73820  Biso   1.000  O
  O829     1.0000 0.76180  0.33940  0.33940  Biso   1.000  O
  O830     1.0000 0.23820  0.33940  0.66060  Biso   1.000  O
  O831     1.0000 0.16060  0.76180  0.16060  Biso   1.000  O
  O832     1.0000 0.16060  0.23820  0.83940  Biso   1.000  O
  O833     1.0000 0.19760  0.27800  0.27800  Biso   1.000  O
  O834     1.0000 0.19760  0.72200  0.27800  Biso   1.000  O
  O835     1.0000 0.19760  0.27800  0.72200  Biso   1.000  O
  O836     1.0000 0.27800  0.27800  0.80240  Biso   1.000  O
  O837     1.0000 0.72200  0.27800  0.19760  Biso   1.000  O
  O838     1.0000 0.72200  0.19760  0.27800  Biso   1.000  O
  O839     1.0000 0.27800  0.80240  0.27800  Biso   1.000  O
  O840     1.0000 0.27800  0.19760  0.27800  Biso   1.000  O
  O841     1.0000 0.27800  0.27800  0.19760  Biso   1.000  O
  O842     1.0000 0.72200  0.72200  0.19760  Biso   1.000  O
  O843     1.0000 0.27800  0.80240  0.72200  Biso   1.000  O
  O844     1.0000 0.72200  0.27800  0.80240  Biso   1.000  O
  O845     1.0000 0.72200  0.80240  0.27800  Biso   1.000  O
  O846     1.0000 0.72200  0.19760  0.72200  Biso   1.000  O
  O847     1.0000 0.27800  0.72200  0.80240  Biso   1.000  O
  O848     1.0000 0.19760  0.72200  0.72200  Biso   1.000  O
  O849     1.0000 0.80240  0.27800  0.72200  Biso   1.000  O
  O850     1.0000 0.80240  0.72200  0.27800  Biso   1.000  O
  O851     1.0000 0.27800  0.19760  0.72200  Biso   1.000  O
  O852     1.0000 0.72200  0.80240  0.72200  Biso   1.000  O
  O853     1.0000 0.27800  0.72200  0.19760  Biso   1.000  O
  O854     1.0000 0.72200  0.72200  0.80240  Biso   1.000  O
  O855     1.0000 0.80240  0.27800  0.27800  Biso   1.000  O
  O856     1.0000 0.80240  0.72200  0.72200  Biso   1.000  O
  O857     1.0000 0.19760  0.77800  0.77800  Biso   1.000  O
  O858     1.0000 0.19760  0.22200  0.77800  Biso   1.000  O
  O859     1.0000 0.19760  0.77800  0.22200  Biso   1.000  O
  O860     1.0000 0.27800  0.77800  0.30240  Biso   1.000  O
  O861     1.0000 0.72200  0.77800  0.69760  Biso   1.000  O
  O862     1.0000 0.72200  0.69760  0.77800  Biso   1.000  O
  O863     1.0000 0.27800  0.30240  0.77800  Biso   1.000  O
  O864     1.0000 0.27800  0.69760  0.77800  Biso   1.000  O
  O865     1.0000 0.27800  0.77800  0.69760  Biso   1.000  O
  O866     1.0000 0.72200  0.22200  0.69760  Biso   1.000  O
  O867     1.0000 0.27800  0.30240  0.22200  Biso   1.000  O
  O868     1.0000 0.72200  0.77800  0.30240  Biso   1.000  O
  O869     1.0000 0.72200  0.30240  0.77800  Biso   1.000  O
  O870     1.0000 0.72200  0.69760  0.22200  Biso   1.000  O
  O871     1.0000 0.27800  0.22200  0.30240  Biso   1.000  O
  O872     1.0000 0.19760  0.22200  0.22200  Biso   1.000  O
  O873     1.0000 0.80240  0.77800  0.22200  Biso   1.000  O
  O874     1.0000 0.80240  0.22200  0.77800  Biso   1.000  O
  O875     1.0000 0.27800  0.69760  0.22200  Biso   1.000  O
  O876     1.0000 0.72200  0.30240  0.22200  Biso   1.000  O
  O877     1.0000 0.27800  0.22200  0.69760  Biso   1.000  O
  O878     1.0000 0.72200  0.22200  0.30240  Biso   1.000  O
  O879     1.0000 0.80240  0.77800  0.77800  Biso   1.000  O
  O880     1.0000 0.80240  0.22200  0.22200  Biso   1.000  O
  O881     1.0000 0.69760  0.27800  0.77800  Biso   1.000  O
  O882     1.0000 0.69760  0.72200  0.77800  Biso   1.000  O
  O883     1.0000 0.69760  0.27800  0.22200  Biso   1.000  O
  O884     1.0000 0.77800  0.27800  0.30240  Biso   1.000  O
  O885     1.0000 0.22200  0.27800  0.69760  Biso   1.000  O
  O886     1.0000 0.22200  0.19760  0.77800  Biso   1.000  O
  O887     1.0000 0.77800  0.80240  0.77800  Biso   1.000  O
  O888     1.0000 0.77800  0.19760  0.77800  Biso   1.000  O
  O889     1.0000 0.77800  0.27800  0.69760  Biso   1.000  O
  O890     1.0000 0.22200  0.72200  0.69760  Biso   1.000  O
  O891     1.0000 0.77800  0.80240  0.22200  Biso   1.000  O
  O892     1.0000 0.22200  0.27800  0.30240  Biso   1.000  O
  O893     1.0000 0.22200  0.80240  0.77800  Biso   1.000  O
  O894     1.0000 0.22200  0.19760  0.22200  Biso   1.000  O
  O895     1.0000 0.77800  0.72200  0.30240  Biso   1.000  O
  O896     1.0000 0.69760  0.72200  0.22200  Biso   1.000  O
  O897     1.0000 0.30240  0.27800  0.22200  Biso   1.000  O
  O898     1.0000 0.30240  0.72200  0.77800  Biso   1.000  O
  O899     1.0000 0.77800  0.19760  0.22200  Biso   1.000  O
  O900     1.0000 0.22200  0.80240  0.22200  Biso   1.000  O
  O901     1.0000 0.77800  0.72200  0.69760  Biso   1.000  O
  O902     1.0000 0.22200  0.72200  0.30240  Biso   1.000  O
  O903     1.0000 0.30240  0.27800  0.77800  Biso   1.000  O
  O904     1.0000 0.30240  0.72200  0.22200  Biso   1.000  O
  O905     1.0000 0.69760  0.77800  0.27800  Biso   1.000  O
  O906     1.0000 0.69760  0.22200  0.27800  Biso   1.000  O
  O907     1.0000 0.69760  0.77800  0.72200  Biso   1.000  O
  O908     1.0000 0.77800  0.77800  0.80240  Biso   1.000  O
  O909     1.0000 0.22200  0.77800  0.19760  Biso   1.000  O
  O910     1.0000 0.22200  0.69760  0.27800  Biso   1.000  O
  O911     1.0000 0.77800  0.30240  0.27800  Biso   1.000  O
  O912     1.0000 0.77800  0.69760  0.27800  Biso   1.000  O
  O913     1.0000 0.77800  0.77800  0.19760  Biso   1.000  O
  O914     1.0000 0.22200  0.22200  0.19760  Biso   1.000  O
  O915     1.0000 0.77800  0.30240  0.72200  Biso   1.000  O
  O916     1.0000 0.22200  0.77800  0.80240  Biso   1.000  O
  O917     1.0000 0.22200  0.30240  0.27800  Biso   1.000  O
  O918     1.0000 0.22200  0.69760  0.72200  Biso   1.000  O
  O919     1.0000 0.77800  0.22200  0.80240  Biso   1.000  O
  O920     1.0000 0.69760  0.22200  0.72200  Biso   1.000  O
  O921     1.0000 0.30240  0.77800  0.72200  Biso   1.000  O
  O922     1.0000 0.30240  0.22200  0.27800  Biso   1.000  O
  O923     1.0000 0.77800  0.69760  0.72200  Biso   1.000  O
  O924     1.0000 0.22200  0.30240  0.72200  Biso   1.000  O
  O925     1.0000 0.77800  0.22200  0.19760  Biso   1.000  O
  O926     1.0000 0.22200  0.22200  0.80240  Biso   1.000  O
  O927     1.0000 0.30240  0.77800  0.27800  Biso   1.000  O
  O928     1.0000 0.30240  0.22200  0.72200  Biso   1.000  O
