data_image0
_cell_length_a       19.5404
_cell_length_b       13.6621
_cell_length_c       26.2612
_cell_angle_alpha    90
_cell_angle_beta     108.933
_cell_angle_gamma    90

_symmetry_space_group_name_H-M    "P 1"
_symmetry_int_tables_number       1

loop_
  _symmetry_equiv_pos_as_xyz
  'x, y, z'

loop_
  _atom_site_label
  _atom_site_occupancy
  _atom_site_fract_x
  _atom_site_fract_y
  _atom_site_fract_z
  _atom_site_thermal_displace_type
  _atom_site_B_iso_or_equiv
  _atom_site_type_symbol
  C1       1.0000 0.04410  0.69510  0.13100  Biso   1.000  C
  C2       1.0000 0.95590  0.19510  0.36900  Biso   1.000  C
  C3       1.0000 0.95590  0.30490  0.86900  Biso   1.000  C
  C4       1.0000 0.04410  0.80490  0.63100  Biso   1.000  C
  H1       1.0000 0.07680  0.69250  0.11200  Biso   1.000  H
  H2       1.0000 0.92320  0.19250  0.38800  Biso   1.000  H
  H3       1.0000 0.92320  0.30750  0.88800  Biso   1.000  H
  H4       1.0000 0.07680  0.80750  0.61200  Biso   1.000  H
  C5       1.0000 0.97080  0.70060  0.10160  Biso   1.000  C
  C6       1.0000 0.02920  0.20060  0.39840  Biso   1.000  C
  C7       1.0000 0.02920  0.29940  0.89840  Biso   1.000  C
  C8       1.0000 0.97080  0.79940  0.60160  Biso   1.000  C
  H5       1.0000 0.95530  0.70270  0.06420  Biso   1.000  H
  H6       1.0000 0.04470  0.20270  0.43580  Biso   1.000  H
  H7       1.0000 0.04470  0.29730  0.93580  Biso   1.000  H
  H8       1.0000 0.95530  0.79730  0.56420  Biso   1.000  H
  C9       1.0000 0.92300  0.70270  0.12870  Biso   1.000  C
  C10      1.0000 0.07700  0.20270  0.37130  Biso   1.000  C
  C11      1.0000 0.07700  0.29730  0.87130  Biso   1.000  C
  C12      1.0000 0.92300  0.79730  0.62870  Biso   1.000  C
  H9       1.0000 0.87370  0.70510  0.10990  Biso   1.000  H
  H10      1.0000 0.12630  0.20510  0.39010  Biso   1.000  H
  H11      1.0000 0.12630  0.29490  0.89010  Biso   1.000  H
  H12      1.0000 0.87370  0.79490  0.60990  Biso   1.000  H
  C13      1.0000 0.94750  0.70120  0.18550  Biso   1.000  C
  C14      1.0000 0.05250  0.20120  0.31450  Biso   1.000  C
  C15      1.0000 0.05250  0.29880  0.81450  Biso   1.000  C
  C16      1.0000 0.94750  0.79880  0.68550  Biso   1.000  C
  C17      1.0000 0.90160  0.70410  0.21820  Biso   1.000  C
  C18      1.0000 0.09840  0.20410  0.28180  Biso   1.000  C
  C19      1.0000 0.09840  0.29590  0.78180  Biso   1.000  C
  C20      1.0000 0.90160  0.79590  0.71820  Biso   1.000  C
  H13      1.0000 0.85170  0.70660  0.20160  Biso   1.000  H
  H14      1.0000 0.14830  0.20660  0.29840  Biso   1.000  H
  H15      1.0000 0.14830  0.29340  0.79840  Biso   1.000  H
  H16      1.0000 0.85170  0.79340  0.70160  Biso   1.000  H
  C21      1.0000 0.92800  0.70330  0.27200  Biso   1.000  C
  C22      1.0000 0.07200  0.20330  0.22800  Biso   1.000  C
  C23      1.0000 0.07200  0.29670  0.72800  Biso   1.000  C
  C24      1.0000 0.92800  0.79670  0.77200  Biso   1.000  C
  H17      1.0000 0.89640  0.70520  0.29190  Biso   1.000  H
  H18      1.0000 0.10360  0.20520  0.20810  Biso   1.000  H
  H19      1.0000 0.10360  0.29480  0.70810  Biso   1.000  H
  H20      1.0000 0.89640  0.79480  0.79190  Biso   1.000  H
  C25      1.0000 0.00510  0.69970  0.29950  Biso   1.000  C
  C26      1.0000 0.99490  0.19970  0.20050  Biso   1.000  C
  C27      1.0000 0.99490  0.30030  0.70050  Biso   1.000  C
  C28      1.0000 0.00510  0.80030  0.79950  Biso   1.000  C
  C29      1.0000 0.03790  0.69830  0.35590  Biso   1.000  C
  C30      1.0000 0.96210  0.19830  0.14410  Biso   1.000  C
  C31      1.0000 0.96210  0.30170  0.64410  Biso   1.000  C
  C32      1.0000 0.03790  0.80170  0.85590  Biso   1.000  C
  H21      1.0000 0.00960  0.70190  0.37820  Biso   1.000  H
  H22      1.0000 0.99040  0.20190  0.12180  Biso   1.000  H
  H23      1.0000 0.99040  0.29810  0.62180  Biso   1.000  H
  H24      1.0000 0.00960  0.79810  0.87820  Biso   1.000  H
  C33      1.0000 0.11050  0.69190  0.37740  Biso   1.000  C
  C34      1.0000 0.88950  0.19190  0.12260  Biso   1.000  C
  C35      1.0000 0.88950  0.30810  0.62260  Biso   1.000  C
  C36      1.0000 0.11050  0.80810  0.87740  Biso   1.000  C
  H25      1.0000 0.13250  0.69360  0.41450  Biso   1.000  H
  H26      1.0000 0.86750  0.19360  0.08550  Biso   1.000  H
  H27      1.0000 0.86750  0.30640  0.58550  Biso   1.000  H
  H28      1.0000 0.13250  0.80640  0.91450  Biso   1.000  H
  C37      1.0000 0.15240  0.68260  0.34350  Biso   1.000  C
  C38      1.0000 0.84760  0.18260  0.15650  Biso   1.000  C
  C39      1.0000 0.84760  0.31740  0.65650  Biso   1.000  C
  C40      1.0000 0.15240  0.81740  0.84350  Biso   1.000  C
  H29      1.0000 0.20220  0.67500  0.35900  Biso   1.000  H
  H30      1.0000 0.79780  0.17500  0.14100  Biso   1.000  H
  H31      1.0000 0.79780  0.32500  0.64100  Biso   1.000  H
  H32      1.0000 0.20220  0.82500  0.85900  Biso   1.000  H
  C41      1.0000 0.02250  0.69630  0.21130  Biso   1.000  C
  C42      1.0000 0.97750  0.19630  0.28870  Biso   1.000  C
  C43      1.0000 0.97750  0.30370  0.78870  Biso   1.000  C
  C44      1.0000 0.02250  0.80370  0.71130  Biso   1.000  C
  C45      1.0000 0.05150  0.69380  0.26890  Biso   1.000  C
  C46      1.0000 0.94850  0.19380  0.23110  Biso   1.000  C
  C47      1.0000 0.94850  0.30620  0.73110  Biso   1.000  C
  C48      1.0000 0.05150  0.80620  0.76890  Biso   1.000  C
  C49      1.0000 0.30380  0.54490  0.10650  Biso   1.000  C
  C50      1.0000 0.69620  0.04490  0.39350  Biso   1.000  C
  C51      1.0000 0.69620  0.45510  0.89350  Biso   1.000  C
  C52      1.0000 0.30380  0.95510  0.60650  Biso   1.000  C
  H33      1.0000 0.25350  0.54660  0.09430  Biso   1.000  H
  H34      1.0000 0.74650  0.04660  0.40570  Biso   1.000  H
  H35      1.0000 0.74650  0.45340  0.90570  Biso   1.000  H
  H36      1.0000 0.25350  0.95340  0.59430  Biso   1.000  H
  C53      1.0000 0.34010  0.53720  0.06880  Biso   1.000  C
  C54      1.0000 0.65990  0.03720  0.43120  Biso   1.000  C
  C55      1.0000 0.65990  0.46280  0.93120  Biso   1.000  C
  C56      1.0000 0.34010  0.96280  0.56880  Biso   1.000  C
  H37      1.0000 0.31430  0.53370  0.03230  Biso   1.000  H
  H38      1.0000 0.68570  0.03370  0.46770  Biso   1.000  H
  H39      1.0000 0.68570  0.46630  0.96770  Biso   1.000  H
  H40      1.0000 0.31430  0.96630  0.53230  Biso   1.000  H
  C57      1.0000 0.41310  0.53490  0.08630  Biso   1.000  C
  C58      1.0000 0.58690  0.03490  0.41370  Biso   1.000  C
  C59      1.0000 0.58690  0.46510  0.91370  Biso   1.000  C
  C60      1.0000 0.41310  0.96510  0.58630  Biso   1.000  C
  H41      1.0000 0.43760  0.53030  0.06130  Biso   1.000  H
  H42      1.0000 0.56240  0.03030  0.43870  Biso   1.000  H
  H43      1.0000 0.56240  0.46970  0.93870  Biso   1.000  H
  H44      1.0000 0.43760  0.96970  0.56130  Biso   1.000  H
  C61      1.0000 0.45250  0.53930  0.14100  Biso   1.000  C
  C62      1.0000 0.54750  0.03930  0.35900  Biso   1.000  C
  C63      1.0000 0.54750  0.46070  0.85900  Biso   1.000  C
  C64      1.0000 0.45250  0.96070  0.64100  Biso   1.000  C
  C65      1.0000 0.52950  0.53740  0.16480  Biso   1.000  C
  C66      1.0000 0.47050  0.03740  0.33520  Biso   1.000  C
  C67      1.0000 0.47050  0.46260  0.83520  Biso   1.000  C
  C68      1.0000 0.52950  0.96260  0.66480  Biso   1.000  C
  H45      1.0000 0.55790  0.53530  0.14250  Biso   1.000  H
  H46      1.0000 0.44210  0.03530  0.35750  Biso   1.000  H
  H47      1.0000 0.44210  0.46470  0.85750  Biso   1.000  H
  H48      1.0000 0.55790  0.96470  0.64250  Biso   1.000  H
  C69      1.0000 0.56180  0.53860  0.21800  Biso   1.000  C
  C70      1.0000 0.43820  0.03860  0.28200  Biso   1.000  C
  C71      1.0000 0.43820  0.46140  0.78200  Biso   1.000  C
  C72      1.0000 0.56180  0.96140  0.71800  Biso   1.000  C
  H49      1.0000 0.61210  0.53700  0.23150  Biso   1.000  H
  H50      1.0000 0.38790  0.03700  0.26850  Biso   1.000  H
  H51      1.0000 0.38790  0.46300  0.76850  Biso   1.000  H
  H52      1.0000 0.61210  0.96300  0.73150  Biso   1.000  H
  C73      1.0000 0.52190  0.54220  0.25480  Biso   1.000  C
  C74      1.0000 0.47810  0.04220  0.24520  Biso   1.000  C
  C75      1.0000 0.47810  0.45780  0.74520  Biso   1.000  C
  C76      1.0000 0.52190  0.95780  0.75480  Biso   1.000  C
  C77      1.0000 0.55240  0.53980  0.31050  Biso   1.000  C
  C78      1.0000 0.44760  0.03980  0.18950  Biso   1.000  C
  C79      1.0000 0.44760  0.46020  0.68950  Biso   1.000  C
  C80      1.0000 0.55240  0.96020  0.81050  Biso   1.000  C
  H53      1.0000 0.60240  0.53780  0.32650  Biso   1.000  H
  H54      1.0000 0.39760  0.03780  0.17350  Biso   1.000  H
  H55      1.0000 0.39760  0.46220  0.67350  Biso   1.000  H
  H56      1.0000 0.60240  0.96220  0.82650  Biso   1.000  H
  C81      1.0000 0.50830  0.54030  0.34200  Biso   1.000  C
  C82      1.0000 0.49170  0.04030  0.15800  Biso   1.000  C
  C83      1.0000 0.49170  0.45970  0.65800  Biso   1.000  C
  C84      1.0000 0.50830  0.95970  0.84200  Biso   1.000  C
  H57      1.0000 0.52790  0.53860  0.37930  Biso   1.000  H
  H58      1.0000 0.47210  0.03860  0.12070  Biso   1.000  H
  H59      1.0000 0.47210  0.46140  0.62070  Biso   1.000  H
  H60      1.0000 0.52790  0.96140  0.87930  Biso   1.000  H
  C85      1.0000 0.43360  0.54360  0.31690  Biso   1.000  C
  C86      1.0000 0.56640  0.04360  0.18310  Biso   1.000  C
  C87      1.0000 0.56640  0.45640  0.68310  Biso   1.000  C
  C88      1.0000 0.43360  0.95640  0.81690  Biso   1.000  C
  H61      1.0000 0.40420  0.54330  0.33860  Biso   1.000  H
  H62      1.0000 0.59580  0.04330  0.16140  Biso   1.000  H
  H63      1.0000 0.59580  0.45670  0.66140  Biso   1.000  H
  H64      1.0000 0.40420  0.95670  0.83860  Biso   1.000  H
  C89      1.0000 0.41100  0.54570  0.17650  Biso   1.000  C
  C90      1.0000 0.58900  0.04570  0.32350  Biso   1.000  C
  C91      1.0000 0.58900  0.45430  0.82350  Biso   1.000  C
  C92      1.0000 0.41100  0.95430  0.67650  Biso   1.000  C
  C93      1.0000 0.44580  0.54560  0.23310  Biso   1.000  C
  C94      1.0000 0.55420  0.04560  0.26690  Biso   1.000  C
  C95      1.0000 0.55420  0.45440  0.76690  Biso   1.000  C
  C96      1.0000 0.44580  0.95440  0.73310  Biso   1.000  C
  C97      1.0000 0.08710  0.44900  0.17800  Biso   1.000  C
  C98      1.0000 0.91290  0.94900  0.32200  Biso   1.000  C
  C99      1.0000 0.91290  0.55100  0.82200  Biso   1.000  C
  C100     1.0000 0.08710  0.05100  0.67800  Biso   1.000  C
  H65      1.0000 0.11820  0.44890  0.15770  Biso   1.000  H
  H66      1.0000 0.88180  0.94890  0.34230  Biso   1.000  H
  H67      1.0000 0.88180  0.55110  0.84230  Biso   1.000  H
  H68      1.0000 0.11820  0.05110  0.65770  Biso   1.000  H
  C101     1.0000 0.01300  0.45180  0.15030  Biso   1.000  C
  C102     1.0000 0.98700  0.95180  0.34970  Biso   1.000  C
  C103     1.0000 0.98700  0.54820  0.84970  Biso   1.000  C
  C104     1.0000 0.01300  0.04820  0.65030  Biso   1.000  C
  H69      1.0000 0.99580  0.45290  0.11290  Biso   1.000  H
  H70      1.0000 0.00420  0.95290  0.38710  Biso   1.000  H
  H71      1.0000 0.00420  0.54710  0.88710  Biso   1.000  H
  H72      1.0000 0.99580  0.04710  0.61290  Biso   1.000  H
  C105     1.0000 0.96630  0.45300  0.17940  Biso   1.000  C
  C106     1.0000 0.03370  0.95300  0.32060  Biso   1.000  C
  C107     1.0000 0.03370  0.54700  0.82060  Biso   1.000  C
  C108     1.0000 0.96630  0.04700  0.67940  Biso   1.000  C
  H73      1.0000 0.91660  0.45450  0.16180  Biso   1.000  H
  H74      1.0000 0.08340  0.95450  0.33820  Biso   1.000  H
  H75      1.0000 0.08340  0.54550  0.83820  Biso   1.000  H
  H76      1.0000 0.91660  0.04550  0.66180  Biso   1.000  H
  C109     1.0000 0.99380  0.45180  0.23590  Biso   1.000  C
  C110     1.0000 0.00620  0.95180  0.26410  Biso   1.000  C
  C111     1.0000 0.00620  0.54820  0.76410  Biso   1.000  C
  C112     1.0000 0.99380  0.04820  0.73590  Biso   1.000  C
  C113     1.0000 0.95090  0.45460  0.27040  Biso   1.000  C
  C114     1.0000 0.04910  0.95460  0.22960  Biso   1.000  C
  C115     1.0000 0.04910  0.54540  0.72960  Biso   1.000  C
  C116     1.0000 0.95090  0.04540  0.77040  Biso   1.000  C
  H77      1.0000 0.90080  0.45720  0.25540  Biso   1.000  H
  H78      1.0000 0.09920  0.95720  0.24460  Biso   1.000  H
  H79      1.0000 0.09920  0.54280  0.74460  Biso   1.000  H
  H80      1.0000 0.90080  0.04280  0.75540  Biso   1.000  H
  C117     1.0000 0.98090  0.45360  0.32400  Biso   1.000  C
  C118     1.0000 0.01910  0.95360  0.17600  Biso   1.000  C
  C119     1.0000 0.01910  0.54640  0.67600  Biso   1.000  C
  C120     1.0000 0.98090  0.04640  0.82400  Biso   1.000  C
  H81      1.0000 0.95110  0.45610  0.34530  Biso   1.000  H
  H82      1.0000 0.04890  0.95610  0.15470  Biso   1.000  H
  H83      1.0000 0.04890  0.54390  0.65470  Biso   1.000  H
  H84      1.0000 0.95110  0.04390  0.84530  Biso   1.000  H
  C121     1.0000 0.05790  0.44870  0.34950  Biso   1.000  C
  C122     1.0000 0.94210  0.94870  0.15050  Biso   1.000  C
  C123     1.0000 0.94210  0.55130  0.65050  Biso   1.000  C
  C124     1.0000 0.05790  0.05130  0.84950  Biso   1.000  C
  C125     1.0000 0.09310  0.44680  0.40490  Biso   1.000  C
  C126     1.0000 0.90690  0.94680  0.09510  Biso   1.000  C
  C127     1.0000 0.90690  0.55320  0.59510  Biso   1.000  C
  C128     1.0000 0.09310  0.05320  0.90490  Biso   1.000  C
  H85      1.0000 0.06640  0.44970  0.42850  Biso   1.000  H
  H86      1.0000 0.93360  0.94970  0.07150  Biso   1.000  H
  H87      1.0000 0.93360  0.55030  0.57150  Biso   1.000  H
  H88      1.0000 0.06640  0.05030  0.92850  Biso   1.000  H
  C129     1.0000 0.16660  0.44090  0.42460  Biso   1.000  C
  C130     1.0000 0.83340  0.94090  0.07540  Biso   1.000  C
  C131     1.0000 0.83340  0.55910  0.57540  Biso   1.000  C
  C132     1.0000 0.16660  0.05910  0.92460  Biso   1.000  C
  H89      1.0000 0.19010  0.44070  0.46150  Biso   1.000  H
  H90      1.0000 0.80990  0.94070  0.03850  Biso   1.000  H
  H91      1.0000 0.80990  0.55930  0.53850  Biso   1.000  H
  H92      1.0000 0.19010  0.05930  0.96150  Biso   1.000  H
  C133     1.0000 0.20630  0.43510  0.38930  Biso   1.000  C
  C134     1.0000 0.79370  0.93510  0.11070  Biso   1.000  C
  C135     1.0000 0.79370  0.56490  0.61070  Biso   1.000  C
  C136     1.0000 0.20630  0.06490  0.88930  Biso   1.000  C
  H93      1.0000 0.25640  0.43010  0.40320  Biso   1.000  H
  H94      1.0000 0.74360  0.93010  0.09680  Biso   1.000  H
  H95      1.0000 0.74360  0.56990  0.59680  Biso   1.000  H
  H96      1.0000 0.25640  0.06990  0.90320  Biso   1.000  H
  C137     1.0000 0.06980  0.44750  0.25960  Biso   1.000  C
  C138     1.0000 0.93020  0.94750  0.24040  Biso   1.000  C
  C139     1.0000 0.93020  0.55250  0.74040  Biso   1.000  C
  C140     1.0000 0.06980  0.05250  0.75960  Biso   1.000  C
  C141     1.0000 0.10110  0.44450  0.31640  Biso   1.000  C
  C142     1.0000 0.89890  0.94450  0.18360  Biso   1.000  C
  C143     1.0000 0.89890  0.55550  0.68360  Biso   1.000  C
  C144     1.0000 0.10110  0.05550  0.81640  Biso   1.000  C
  C145     1.0000 0.36640  0.29530  0.15840  Biso   1.000  C
  C146     1.0000 0.63360  0.79530  0.34160  Biso   1.000  C
  C147     1.0000 0.63360  0.70470  0.84160  Biso   1.000  C
  C148     1.0000 0.36640  0.20470  0.65840  Biso   1.000  C
  H97      1.0000 0.31630  0.29610  0.14270  Biso   1.000  H
  H98      1.0000 0.68370  0.79610  0.35730  Biso   1.000  H
  H99      1.0000 0.68370  0.70390  0.85730  Biso   1.000  H
  H100     1.0000 0.31630  0.20390  0.64270  Biso   1.000  H
  C149     1.0000 0.40910  0.28730  0.12500  Biso   1.000  C
  C150     1.0000 0.59090  0.78730  0.37500  Biso   1.000  C
  C151     1.0000 0.59090  0.71270  0.87500  Biso   1.000  C
  C152     1.0000 0.40910  0.21270  0.62500  Biso   1.000  C
  H101     1.0000 0.38780  0.28290  0.08790  Biso   1.000  H
  H102     1.0000 0.61220  0.78290  0.41210  Biso   1.000  H
  H103     1.0000 0.61220  0.71710  0.91210  Biso   1.000  H
  H104     1.0000 0.38780  0.21710  0.58790  Biso   1.000  H
  C153     1.0000 0.48230  0.28580  0.14770  Biso   1.000  C
  C154     1.0000 0.51770  0.78580  0.35230  Biso   1.000  C
  C155     1.0000 0.51770  0.71420  0.85230  Biso   1.000  C
  C156     1.0000 0.48230  0.21420  0.64770  Biso   1.000  C
  H105     1.0000 0.51120  0.28180  0.12570  Biso   1.000  H
  H106     1.0000 0.48880  0.78180  0.37430  Biso   1.000  H
  H107     1.0000 0.48880  0.71820  0.87430  Biso   1.000  H
  H108     1.0000 0.51120  0.21820  0.62570  Biso   1.000  H
  C157     1.0000 0.51450  0.29020  0.20300  Biso   1.000  C
  C158     1.0000 0.48550  0.79020  0.29700  Biso   1.000  C
  C159     1.0000 0.48550  0.70980  0.79700  Biso   1.000  C
  C160     1.0000 0.51450  0.20980  0.70300  Biso   1.000  C
  C161     1.0000 0.59040  0.28700  0.23080  Biso   1.000  C
  C162     1.0000 0.40960  0.78700  0.26920  Biso   1.000  C
  C163     1.0000 0.40960  0.71300  0.76920  Biso   1.000  C
  C164     1.0000 0.59040  0.21300  0.73080  Biso   1.000  C
  H109     1.0000 0.62210  0.28250  0.21100  Biso   1.000  H
  H110     1.0000 0.37790  0.78250  0.28900  Biso   1.000  H
  H111     1.0000 0.37790  0.71750  0.78900  Biso   1.000  H
  H112     1.0000 0.62210  0.21750  0.71100  Biso   1.000  H
  C165     1.0000 0.61750  0.29040  0.28480  Biso   1.000  C
  C166     1.0000 0.38250  0.79040  0.21520  Biso   1.000  C
  C167     1.0000 0.38250  0.70960  0.71520  Biso   1.000  C
  C168     1.0000 0.61750  0.20960  0.78480  Biso   1.000  C
  H113     1.0000 0.66740  0.28970  0.30150  Biso   1.000  H
  H114     1.0000 0.33260  0.78970  0.19850  Biso   1.000  H
  H115     1.0000 0.33260  0.71030  0.69850  Biso   1.000  H
  H116     1.0000 0.66740  0.21030  0.80150  Biso   1.000  H
  C169     1.0000 0.57070  0.29520  0.31730  Biso   1.000  C
  C170     1.0000 0.42930  0.79520  0.18270  Biso   1.000  C
  C171     1.0000 0.42930  0.70480  0.68270  Biso   1.000  C
  C172     1.0000 0.57070  0.20480  0.81730  Biso   1.000  C
  C173     1.0000 0.59420  0.29800  0.37290  Biso   1.000  C
  C174     1.0000 0.40580  0.79800  0.12710  Biso   1.000  C
  C175     1.0000 0.40580  0.70200  0.62710  Biso   1.000  C
  C176     1.0000 0.59420  0.20200  0.87290  Biso   1.000  C
  H117     1.0000 0.64340  0.29550  0.39210  Biso   1.000  H
  H118     1.0000 0.35660  0.79550  0.10790  Biso   1.000  H
  H119     1.0000 0.35660  0.70450  0.60790  Biso   1.000  H
  H120     1.0000 0.64340  0.20450  0.89210  Biso   1.000  H
  C177     1.0000 0.54470  0.30450  0.39990  Biso   1.000  C
  C178     1.0000 0.45530  0.80450  0.10010  Biso   1.000  C
  C179     1.0000 0.45530  0.69550  0.60010  Biso   1.000  C
  C180     1.0000 0.54470  0.19550  0.89990  Biso   1.000  C
  H121     1.0000 0.55980  0.30610  0.43730  Biso   1.000  H
  H122     1.0000 0.44020  0.80610  0.06270  Biso   1.000  H
  H123     1.0000 0.44020  0.69390  0.56270  Biso   1.000  H
  H124     1.0000 0.55980  0.19390  0.93730  Biso   1.000  H
  C181     1.0000 0.47190  0.30850  0.37010  Biso   1.000  C
  C182     1.0000 0.52810  0.80850  0.12990  Biso   1.000  C
  C183     1.0000 0.52810  0.69150  0.62990  Biso   1.000  C
  C184     1.0000 0.47190  0.19150  0.87010  Biso   1.000  C
  H125     1.0000 0.43880  0.31430  0.38860  Biso   1.000  H
  H126     1.0000 0.56120  0.81430  0.11140  Biso   1.000  H
  H127     1.0000 0.56120  0.68570  0.61140  Biso   1.000  H
  H128     1.0000 0.43880  0.18570  0.88860  Biso   1.000  H
  C185     1.0000 0.46760  0.29630  0.23340  Biso   1.000  C
  C186     1.0000 0.53240  0.79630  0.26660  Biso   1.000  C
  C187     1.0000 0.53240  0.70370  0.76660  Biso   1.000  C
  C188     1.0000 0.46760  0.20370  0.73340  Biso   1.000  C
  C189     1.0000 0.49590  0.29870  0.29100  Biso   1.000  C
  C190     1.0000 0.50410  0.79870  0.20900  Biso   1.000  C
  C191     1.0000 0.50410  0.70130  0.70900  Biso   1.000  C
  C192     1.0000 0.49590  0.20130  0.79100  Biso   1.000  C
  C193     1.0000 0.21110  0.89240  0.20900  Biso   1.000  C
  C194     1.0000 0.78890  0.39240  0.29100  Biso   1.000  C
  C195     1.0000 0.78890  0.10760  0.79100  Biso   1.000  C
  C196     1.0000 0.21110  0.60760  0.70900  Biso   1.000  C
  H129     1.0000 0.19520  0.86860  0.17400  Biso   1.000  H
  H130     1.0000 0.80480  0.36860  0.32600  Biso   1.000  H
  H131     1.0000 0.80480  0.13140  0.82600  Biso   1.000  H
  H132     1.0000 0.19520  0.63140  0.67400  Biso   1.000  H
  C197     1.0000 0.22850  0.99240  0.21690  Biso   1.000  C
  C198     1.0000 0.77150  0.49240  0.28310  Biso   1.000  C
  C199     1.0000 0.77150  0.00760  0.78310  Biso   1.000  C
  C200     1.0000 0.22850  0.50760  0.71690  Biso   1.000  C
  C201     1.0000 0.21890  0.05180  0.16680  Biso   1.000  C
  C202     1.0000 0.78110  0.55180  0.33320  Biso   1.000  C
  C203     1.0000 0.78110  0.94820  0.83320  Biso   1.000  C
  C204     1.0000 0.21890  0.44820  0.66680  Biso   1.000  C
  C205     1.0000 0.25180  0.02760  0.26910  Biso   1.000  C
  C206     1.0000 0.74820  0.52760  0.23090  Biso   1.000  C
  C207     1.0000 0.74820  0.97240  0.73090  Biso   1.000  C
  C208     1.0000 0.25180  0.47240  0.76910  Biso   1.000  C
  C209     1.0000 0.27500  0.13430  0.28300  Biso   1.000  C
  C210     1.0000 0.72500  0.63430  0.21700  Biso   1.000  C
  C211     1.0000 0.72500  0.86570  0.71700  Biso   1.000  C
  C212     1.0000 0.27500  0.36570  0.78300  Biso   1.000  C
  C213     1.0000 0.25890  0.96260  0.31030  Biso   1.000  C
  C214     1.0000 0.74110  0.46260  0.18970  Biso   1.000  C
  C215     1.0000 0.74110  0.03740  0.68970  Biso   1.000  C
  C216     1.0000 0.25890  0.53740  0.81030  Biso   1.000  C
  H133     1.0000 0.27610  0.98390  0.34590  Biso   1.000  H
  H134     1.0000 0.72390  0.48390  0.15410  Biso   1.000  H
  H135     1.0000 0.72390  0.01610  0.65410  Biso   1.000  H
  H136     1.0000 0.27610  0.51610  0.84590  Biso   1.000  H
  C217     1.0000 0.24080  0.86580  0.29910  Biso   1.000  C
  C218     1.0000 0.75920  0.36580  0.20090  Biso   1.000  C
  C219     1.0000 0.75920  0.13420  0.70090  Biso   1.000  C
  C220     1.0000 0.24080  0.63420  0.79910  Biso   1.000  C
  H137     1.0000 0.24570  0.82320  0.32770  Biso   1.000  H
  H138     1.0000 0.75430  0.32320  0.17230  Biso   1.000  H
  H139     1.0000 0.75430  0.17680  0.67230  Biso   1.000  H
  H140     1.0000 0.24570  0.67680  0.82770  Biso   1.000  H
  C221     1.0000 0.55700  0.76530  0.50840  Biso   1.000  C
  C222     1.0000 0.44300  0.26530  0.99160  Biso   1.000  C
  C223     1.0000 0.44300  0.23470  0.49160  Biso   1.000  C
  C224     1.0000 0.55700  0.73470  0.00840  Biso   1.000  C
  H141     1.0000 0.60350  0.78600  0.52770  Biso   1.000  H
  H142     1.0000 0.39650  0.28600  0.97230  Biso   1.000  H
  H143     1.0000 0.39650  0.21400  0.47230  Biso   1.000  H
  H144     1.0000 0.60350  0.71400  0.02770  Biso   1.000  H
  C225     1.0000 0.50240  0.83470  0.49340  Biso   1.000  C
  C226     1.0000 0.49760  0.33470  0.00660  Biso   1.000  C
  C227     1.0000 0.49760  0.16530  0.50660  Biso   1.000  C
  C228     1.0000 0.50240  0.66530  0.99340  Biso   1.000  C
  H145     1.0000 0.51220  0.89980  0.50350  Biso   1.000  H
  H146     1.0000 0.48780  0.39980  0.99650  Biso   1.000  H
  H147     1.0000 0.48780  0.10020  0.49650  Biso   1.000  H
  H148     1.0000 0.51220  0.60020  0.00350  Biso   1.000  H
  C229     1.0000 0.43240  0.80590  0.46280  Biso   1.000  C
  C230     1.0000 0.56760  0.30590  0.03720  Biso   1.000  C
  C231     1.0000 0.56760  0.19410  0.53720  Biso   1.000  C
  C232     1.0000 0.43240  0.69410  0.96280  Biso   1.000  C
  C233     1.0000 0.37180  0.88050  0.44810  Biso   1.000  C
  C234     1.0000 0.62820  0.38050  0.05190  Biso   1.000  C
  C235     1.0000 0.62820  0.11950  0.55190  Biso   1.000  C
  C236     1.0000 0.37180  0.61950  0.94810  Biso   1.000  C
  C237     1.0000 0.42090  0.70790  0.44890  Biso   1.000  C
  C238     1.0000 0.57910  0.20790  0.05110  Biso   1.000  C
  C239     1.0000 0.57910  0.29210  0.55110  Biso   1.000  C
  C240     1.0000 0.42090  0.79210  0.94890  Biso   1.000  C
  C241     1.0000 0.35140  0.66560  0.41080  Biso   1.000  C
  C242     1.0000 0.64860  0.16560  0.08920  Biso   1.000  C
  C243     1.0000 0.64860  0.33440  0.58920  Biso   1.000  C
  C244     1.0000 0.35140  0.83440  0.91080  Biso   1.000  C
  C245     1.0000 0.47880  0.64340  0.46680  Biso   1.000  C
  C246     1.0000 0.52120  0.14340  0.03320  Biso   1.000  C
  C247     1.0000 0.52120  0.35660  0.53320  Biso   1.000  C
  C248     1.0000 0.47880  0.85660  0.96680  Biso   1.000  C
  H149     1.0000 0.47060  0.57760  0.45780  Biso   1.000  H
  H150     1.0000 0.52940  0.07760  0.04220  Biso   1.000  H
  H151     1.0000 0.52940  0.42240  0.54220  Biso   1.000  H
  H152     1.0000 0.47060  0.92240  0.95780  Biso   1.000  H
  Cu1      1.0000 0.17365  0.67184  0.23345  Biso   1.000  Cu
  Cu2      1.0000 0.82635  0.17184  0.26655  Biso   1.000  Cu
  Cu3      1.0000 0.82635  0.32816  0.76655  Biso   1.000  Cu
  Cu4      1.0000 0.17365  0.82816  0.73345  Biso   1.000  Cu
  Cu5      1.0000 0.29638  0.56566  0.21856  Biso   1.000  Cu
  Cu6      1.0000 0.70362  0.06566  0.28144  Biso   1.000  Cu
  Cu7      1.0000 0.70362  0.43434  0.78144  Biso   1.000  Cu
  Cu8      1.0000 0.29638  0.93434  0.71856  Biso   1.000  Cu
  Cu9      1.0000 0.22066  0.42763  0.27873  Biso   1.000  Cu
  Cu10     1.0000 0.77934  0.92763  0.22127  Biso   1.000  Cu
  Cu11     1.0000 0.77934  0.57237  0.72127  Biso   1.000  Cu
  Cu12     1.0000 0.22066  0.07237  0.77873  Biso   1.000  Cu
  Cu13     1.0000 0.34406  0.32417  0.26661  Biso   1.000  Cu
  Cu14     1.0000 0.65594  0.82417  0.23339  Biso   1.000  Cu
  Cu15     1.0000 0.65594  0.67583  0.73339  Biso   1.000  Cu
  Cu16     1.0000 0.34406  0.17583  0.76661  Biso   1.000  Cu
  N1       1.0000 0.07050  0.69330  0.18402  Biso   1.000  N
  N2       1.0000 0.92950  0.19330  0.31598  Biso   1.000  N
  N3       1.0000 0.92950  0.30670  0.81598  Biso   1.000  N
  N4       1.0000 0.07050  0.80670  0.68402  Biso   1.000  N
  N5       1.0000 0.12430  0.68430  0.29012  Biso   1.000  N
  N6       1.0000 0.87570  0.18430  0.20988  Biso   1.000  N
  N7       1.0000 0.87570  0.31570  0.70988  Biso   1.000  N
  N8       1.0000 0.12430  0.81570  0.79012  Biso   1.000  N
  N9       1.0000 0.33790  0.54970  0.15860  Biso   1.000  N
  N10      1.0000 0.66210  0.04970  0.34140  Biso   1.000  N
  N11      1.0000 0.66210  0.45030  0.84140  Biso   1.000  N
  N12      1.0000 0.33790  0.95030  0.65860  Biso   1.000  N
  N13      1.0000 0.40240  0.54700  0.26435  Biso   1.000  N
  N14      1.0000 0.59760  0.04700  0.23565  Biso   1.000  N
  N15      1.0000 0.59760  0.45300  0.73565  Biso   1.000  N
  N16      1.0000 0.40240  0.95300  0.76435  Biso   1.000  N
  N17      1.0000 0.11590  0.44640  0.23007  Biso   1.000  N
  N18      1.0000 0.88410  0.94640  0.26993  Biso   1.000  N
  N19      1.0000 0.88410  0.55360  0.76993  Biso   1.000  N
  N20      1.0000 0.11590  0.05360  0.73007  Biso   1.000  N
  N21      1.0000 0.17450  0.43650  0.33634  Biso   1.000  N
  N22      1.0000 0.82550  0.93650  0.16366  Biso   1.000  N
  N23      1.0000 0.82550  0.56350  0.66366  Biso   1.000  N
  N24      1.0000 0.17450  0.06350  0.83634  Biso   1.000  N
  N25      1.0000 0.39430  0.30180  0.21096  Biso   1.000  N
  N26      1.0000 0.60570  0.80180  0.28904  Biso   1.000  N
  N27      1.0000 0.60570  0.69820  0.78904  Biso   1.000  N
  N28      1.0000 0.39430  0.19820  0.71096  Biso   1.000  N
  N29      1.0000 0.44680  0.30470  0.31745  Biso   1.000  N
  N30      1.0000 0.55320  0.80470  0.18255  Biso   1.000  N
  N31      1.0000 0.55320  0.69530  0.68255  Biso   1.000  N
  N32      1.0000 0.44680  0.19530  0.81745  Biso   1.000  N
  N33      1.0000 0.21630  0.83010  0.24908  Biso   1.000  N
  N34      1.0000 0.78370  0.33010  0.25092  Biso   1.000  N
  N35      1.0000 0.78370  0.16990  0.75092  Biso   1.000  N
  N36      1.0000 0.21630  0.66990  0.74908  Biso   1.000  N
  N37      1.0000 0.54650  0.67100  0.49670  Biso   1.000  N
  N38      1.0000 0.45350  0.17100  0.00330  Biso   1.000  N
  N39      1.0000 0.45350  0.32900  0.50330  Biso   1.000  N
  N40      1.0000 0.54650  0.82900  0.99670  Biso   1.000  N
  O1       1.0000 0.25408  0.58800  0.27526  Biso   1.000  O
  O2       1.0000 0.74592  0.08800  0.22474  Biso   1.000  O
  O3       1.0000 0.74592  0.41200  0.72474  Biso   1.000  O
  O4       1.0000 0.25408  0.91200  0.77526  Biso   1.000  O
  H153     1.0000 0.28110  0.61570  0.30370  Biso   1.000  H
  H154     1.0000 0.71890  0.11570  0.19630  Biso   1.000  H
  H155     1.0000 0.71890  0.38430  0.69630  Biso   1.000  H
  H156     1.0000 0.28110  0.88430  0.80370  Biso   1.000  H
  O5       1.0000 0.20952  0.63100  0.17661  Biso   1.000  O
  O6       1.0000 0.79048  0.13100  0.32339  Biso   1.000  O
  O7       1.0000 0.79048  0.36900  0.82339  Biso   1.000  O
  O8       1.0000 0.20952  0.86900  0.67661  Biso   1.000  O
  H157     1.0000 0.21780  0.67220  0.15510  Biso   1.000  H
  H158     1.0000 0.78220  0.17220  0.34490  Biso   1.000  H
  H159     1.0000 0.78220  0.32780  0.84490  Biso   1.000  H
  H160     1.0000 0.21780  0.82780  0.65510  Biso   1.000  H
  O9       1.0000 0.26425  0.40800  0.22220  Biso   1.000  O
  O10      1.0000 0.73575  0.90800  0.27780  Biso   1.000  O
  O11      1.0000 0.73575  0.59200  0.77780  Biso   1.000  O
  O12      1.0000 0.26425  0.09200  0.72220  Biso   1.000  O
  H161     1.0000 0.23700  0.37580  0.19570  Biso   1.000  H
  H162     1.0000 0.76300  0.87580  0.30430  Biso   1.000  H
  H163     1.0000 0.76300  0.62420  0.80430  Biso   1.000  H
  H164     1.0000 0.23700  0.12420  0.69570  Biso   1.000  H
  O13      1.0000 0.30819  0.36530  0.32390  Biso   1.000  O
  O14      1.0000 0.69181  0.86530  0.17610  Biso   1.000  O
  O15      1.0000 0.69181  0.63470  0.67610  Biso   1.000  O
  O16      1.0000 0.30819  0.13470  0.82390  Biso   1.000  O
  H165     1.0000 0.29630  0.30930  0.33230  Biso   1.000  H
  H166     1.0000 0.70370  0.80930  0.16770  Biso   1.000  H
  H167     1.0000 0.70370  0.69070  0.66770  Biso   1.000  H
  H168     1.0000 0.29630  0.19070  0.83230  Biso   1.000  H
  O17      1.0000 0.26560  0.04080  0.14470  Biso   1.000  O
  O18      1.0000 0.73440  0.54080  0.35530  Biso   1.000  O
  O19      1.0000 0.73440  0.95920  0.85530  Biso   1.000  O
  O20      1.0000 0.26560  0.45920  0.64470  Biso   1.000  O
  O21      1.0000 0.16390  0.10420  0.15098  Biso   1.000  O
  O22      1.0000 0.83610  0.60420  0.34902  Biso   1.000  O
  O23      1.0000 0.83610  0.89580  0.84902  Biso   1.000  O
  O24      1.0000 0.16390  0.39580  0.65098  Biso   1.000  O
  O25      1.0000 0.29060  0.18180  0.24891  Biso   1.000  O
  O26      1.0000 0.70940  0.68180  0.25109  Biso   1.000  O
  O27      1.0000 0.70940  0.81820  0.75109  Biso   1.000  O
  O28      1.0000 0.29060  0.31820  0.74891  Biso   1.000  O
  O29      1.0000 0.27730  0.16500  0.32891  Biso   1.000  O
  O30      1.0000 0.72270  0.66500  0.17109  Biso   1.000  O
  O31      1.0000 0.72270  0.83500  0.67109  Biso   1.000  O
  O32      1.0000 0.27730  0.33500  0.82891  Biso   1.000  O
  O33      1.0000 0.38840  0.96770  0.44690  Biso   1.000  O
  O34      1.0000 0.61160  0.46770  0.05310  Biso   1.000  O
  O35      1.0000 0.61160  0.03230  0.55310  Biso   1.000  O
  O36      1.0000 0.38840  0.53230  0.94690  Biso   1.000  O
  O37      1.0000 0.30950  0.84840  0.44036  Biso   1.000  O
  O38      1.0000 0.69050  0.34840  0.05964  Biso   1.000  O
  O39      1.0000 0.69050  0.15160  0.55964  Biso   1.000  O
  O40      1.0000 0.30950  0.65160  0.94036  Biso   1.000  O
  O41      1.0000 0.33710  0.68950  0.36325  Biso   1.000  O
  O42      1.0000 0.66290  0.18950  0.13675  Biso   1.000  O
  O43      1.0000 0.66290  0.31050  0.63675  Biso   1.000  O
  O44      1.0000 0.33710  0.81050  0.86325  Biso   1.000  O
  O45      1.0000 0.31630  0.60820  0.43020  Biso   1.000  O
  O46      1.0000 0.68370  0.10820  0.06980  Biso   1.000  O
  O47      1.0000 0.68370  0.39180  0.56980  Biso   1.000  O
  O48      1.0000 0.31630  0.89180  0.93020  Biso   1.000  O
  O49      1.0000 0.18660  0.30070  0.13490  Biso   1.000  O
  O50      1.0000 0.81340  0.80070  0.36510  Biso   1.000  O
  O51      1.0000 0.81340  0.69930  0.86510  Biso   1.000  O
  O52      1.0000 0.18660  0.19930  0.63490  Biso   1.000  O
  H169     1.0000 0.16480  0.30650  0.10130  Biso   1.000  H
  H170     1.0000 0.83520  0.80650  0.39870  Biso   1.000  H
  H171     1.0000 0.83520  0.69350  0.89870  Biso   1.000  H
  H172     1.0000 0.16480  0.19350  0.60130  Biso   1.000  H
  H173     1.0000 0.17250  0.24760  0.14520  Biso   1.000  H
  H174     1.0000 0.82750  0.74760  0.35480  Biso   1.000  H
  H175     1.0000 0.82750  0.75240  0.85480  Biso   1.000  H
  H176     1.0000 0.17250  0.25240  0.64520  Biso   1.000  H
  O53      1.0000 0.28320  0.11010  0.43019  Biso   1.000  O
  O54      1.0000 0.71680  0.61010  0.06981  Biso   1.000  O
  O55      1.0000 0.71680  0.88990  0.56981  Biso   1.000  O
  O56      1.0000 0.28320  0.38990  0.93019  Biso   1.000  O
  H177     1.0000 0.28680  0.13230  0.40090  Biso   1.000  H
  H178     1.0000 0.71320  0.63230  0.09910  Biso   1.000  H
  H179     1.0000 0.71320  0.86770  0.59910  Biso   1.000  H
  H180     1.0000 0.28680  0.36770  0.90090  Biso   1.000  H
  H181     1.0000 0.31840  0.07120  0.44350  Biso   1.000  H
  H182     1.0000 0.68160  0.57120  0.05650  Biso   1.000  H
  H183     1.0000 0.68160  0.92880  0.55650  Biso   1.000  H
  H184     1.0000 0.31840  0.42880  0.94350  Biso   1.000  H
  O57      1.0000 0.36340  0.48210  0.51590  Biso   1.000  O
  O58      1.0000 0.63660  0.98210  0.98410  Biso   1.000  O
  O59      1.0000 0.63660  0.51790  0.48410  Biso   1.000  O
  O60      1.0000 0.36340  0.01790  0.01590  Biso   1.000  O
  H185     1.0000 0.37050  0.53370  0.50020  Biso   1.000  H
  H186     1.0000 0.62950  0.03370  0.99980  Biso   1.000  H
  H187     1.0000 0.62950  0.46630  0.49980  Biso   1.000  H
  H188     1.0000 0.37050  0.96630  0.00020  Biso   1.000  H
  H189     1.0000 0.38150  0.43430  0.50380  Biso   1.000  H
  H190     1.0000 0.61850  0.93430  0.99620  Biso   1.000  H
  H191     1.0000 0.61850  0.56570  0.49620  Biso   1.000  H
  H192     1.0000 0.38150  0.06570  0.00380  Biso   1.000  H
  O61      1.0000 0.26550  0.71440  0.50610  Biso   1.000  O
  O62      1.0000 0.73450  0.21440  0.99390  Biso   1.000  O
  O63      1.0000 0.73450  0.28560  0.49390  Biso   1.000  O
  O64      1.0000 0.26550  0.78560  0.00610  Biso   1.000  O
  H193     1.0000 0.28670  0.76140  0.49620  Biso   1.000  H
  H194     1.0000 0.71330  0.26140  0.00380  Biso   1.000  H
  H195     1.0000 0.71330  0.23860  0.50380  Biso   1.000  H
  H196     1.0000 0.28670  0.73860  0.99620  Biso   1.000  H
  H197     1.0000 0.25700  0.67030  0.48200  Biso   1.000  H
  H198     1.0000 0.74300  0.17030  0.01800  Biso   1.000  H
  H199     1.0000 0.74300  0.32970  0.51800  Biso   1.000  H
  H200     1.0000 0.25700  0.82970  0.98200  Biso   1.000  H
  O65      1.0000 0.18430  0.95060  0.42600  Biso   1.000  O
  O66      1.0000 0.81570  0.45060  0.07400  Biso   1.000  O
  O67      1.0000 0.81570  0.04940  0.57400  Biso   1.000  O
  O68      1.0000 0.18430  0.54940  0.92600  Biso   1.000  O
  H201     1.0000 0.20270  0.00650  0.43620  Biso   1.000  H
  H202     1.0000 0.79730  0.50650  0.06380  Biso   1.000  H
  H203     1.0000 0.79730  0.99350  0.56380  Biso   1.000  H
  H204     1.0000 0.20270  0.49350  0.93620  Biso   1.000  H
  H205     1.0000 0.21850  0.91220  0.42600  Biso   1.000  H
  H206     1.0000 0.78150  0.41220  0.07400  Biso   1.000  H
  H207     1.0000 0.78150  0.08780  0.57400  Biso   1.000  H
  H208     1.0000 0.21850  0.58780  0.92600  Biso   1.000  H
  O69      1.0000 0.26990  0.12750  0.05370  Biso   1.000  O
  O70      1.0000 0.73010  0.62750  0.44630  Biso   1.000  O
  O71      1.0000 0.73010  0.87250  0.94630  Biso   1.000  O
  O72      1.0000 0.26990  0.37250  0.55370  Biso   1.000  O
  H209     1.0000 0.29220  0.09810  0.03530  Biso   1.000  H
  H210     1.0000 0.70780  0.59810  0.46470  Biso   1.000  H
  H211     1.0000 0.70780  0.90190  0.96470  Biso   1.000  H
  H212     1.0000 0.29220  0.40190  0.53530  Biso   1.000  H
  H213     1.0000 0.26350  0.08690  0.07620  Biso   1.000  H
  H214     1.0000 0.73650  0.58690  0.42380  Biso   1.000  H
  H215     1.0000 0.73650  0.91310  0.92380  Biso   1.000  H
  H216     1.0000 0.26350  0.41310  0.57620  Biso   1.000  H
  O73      1.0000 0.19550  0.75200  0.58050  Biso   1.000  O
  O74      1.0000 0.80450  0.25200  0.91950  Biso   1.000  O
  O75      1.0000 0.80450  0.24800  0.41950  Biso   1.000  O
  O76      1.0000 0.19550  0.74800  0.08050  Biso   1.000  O
  H217     1.0000 0.16480  0.70930  0.58240  Biso   1.000  H
  H218     1.0000 0.83520  0.20930  0.91760  Biso   1.000  H
  H219     1.0000 0.83520  0.29070  0.41760  Biso   1.000  H
  H220     1.0000 0.16480  0.79070  0.08240  Biso   1.000  H
  H221     1.0000 0.17230  0.80140  0.56400  Biso   1.000  H
  H222     1.0000 0.82770  0.30140  0.93600  Biso   1.000  H
  H223     1.0000 0.82770  0.19860  0.43600  Biso   1.000  H
  H224     1.0000 0.17230  0.69860  0.06400  Biso   1.000  H
  O77      1.0000 0.22400  0.20080  0.50150  Biso   1.000  O
  O78      1.0000 0.77600  0.70080  0.99850  Biso   1.000  O
  O79      1.0000 0.77600  0.79920  0.49850  Biso   1.000  O
  O80      1.0000 0.22400  0.29920  0.00150  Biso   1.000  O
  H225     1.0000 0.23430  0.18390  0.47370  Biso   1.000  H
  H226     1.0000 0.76570  0.68390  0.02630  Biso   1.000  H
  H227     1.0000 0.76570  0.81610  0.52630  Biso   1.000  H
  H228     1.0000 0.23430  0.31610  0.97370  Biso   1.000  H
  H229     1.0000 0.25970  0.18990  0.52970  Biso   1.000  H
  H230     1.0000 0.74030  0.68990  0.97030  Biso   1.000  H
  H231     1.0000 0.74030  0.81010  0.47030  Biso   1.000  H
  H232     1.0000 0.25970  0.31010  0.02970  Biso   1.000  H
  O81      1.0000 0.12580  0.38850  0.03460  Biso   1.000  O
  O82      1.0000 0.87420  0.88850  0.46540  Biso   1.000  O
  O83      1.0000 0.87420  0.61150  0.96540  Biso   1.000  O
  O84      1.0000 0.12580  0.11150  0.53460  Biso   1.000  O
  H233     1.0000 0.08520  0.40690  0.03670  Biso   1.000  H
  H234     1.0000 0.91480  0.90690  0.46330  Biso   1.000  H
  H235     1.0000 0.91480  0.59310  0.96330  Biso   1.000  H
  H236     1.0000 0.08520  0.09310  0.53670  Biso   1.000  H
  H237     1.0000 0.11830  0.37220  0.00200  Biso   1.000  H
  H238     1.0000 0.88170  0.87220  0.49800  Biso   1.000  H
  H239     1.0000 0.88170  0.62780  0.99800  Biso   1.000  H
  H240     1.0000 0.11830  0.12780  0.50200  Biso   1.000  H
  O85      1.0000 0.12150  0.91200  0.50280  Biso   1.000  O
  O86      1.0000 0.87850  0.41200  0.99720  Biso   1.000  O
  O87      1.0000 0.87850  0.08800  0.49720  Biso   1.000  O
  O88      1.0000 0.12150  0.58800  0.00280  Biso   1.000  O
  H241     1.0000 0.14490  0.87800  0.48690  Biso   1.000  H
  H242     1.0000 0.85510  0.37800  0.01310  Biso   1.000  H
  H243     1.0000 0.85510  0.12200  0.51310  Biso   1.000  H
  H244     1.0000 0.14490  0.62200  0.98690  Biso   1.000  H
  H245     1.0000 0.10340  0.96060  0.48270  Biso   1.000  H
  H246     1.0000 0.89660  0.46060  0.01730  Biso   1.000  H
  H247     1.0000 0.89660  0.03940  0.51730  Biso   1.000  H
  H248     1.0000 0.10340  0.53940  0.98270  Biso   1.000  H
  O89      1.0000 0.09960  0.08910  0.04260  Biso   1.000  O
  O90      1.0000 0.90040  0.58910  0.45740  Biso   1.000  O
  O91      1.0000 0.90040  0.91090  0.95740  Biso   1.000  O
  O92      1.0000 0.09960  0.41090  0.54260  Biso   1.000  O
  O93      1.0000 0.00260  0.79640  0.47230  Biso   1.000  O
  O94      1.0000 0.99740  0.29640  0.02770  Biso   1.000  O
  O95      1.0000 0.99740  0.20360  0.52770  Biso   1.000  O
  O96      1.0000 0.00260  0.70360  0.97230  Biso   1.000  O
  O97      1.0000 0.06490  0.88450  0.04040  Biso   1.000  O
  O98      1.0000 0.93510  0.38450  0.45960  Biso   1.000  O
  O99      1.0000 0.93510  0.11550  0.95960  Biso   1.000  O
  O100     1.0000 0.06490  0.61550  0.54040  Biso   1.000  O
