data_image0
_cell_length_a       12.901
_cell_length_b       17.061
_cell_length_c       24.719
_cell_angle_alpha    90
_cell_angle_beta     90
_cell_angle_gamma    90

_symmetry_space_group_name_H-M    "P 1"
_symmetry_int_tables_number       1

loop_
  _symmetry_equiv_pos_as_xyz
  'x, y, z'

loop_
  _atom_site_label
  _atom_site_occupancy
  _atom_site_fract_x
  _atom_site_fract_y
  _atom_site_fract_z
  _atom_site_thermal_displace_type
  _atom_site_B_iso_or_equiv
  _atom_site_type_symbol
  Cu1      1.0000 0.37500  0.87500  0.87500  Biso   1.000  Cu
  Cu2      1.0000 0.37500  0.37500  0.37500  Biso   1.000  Cu
  Cu3      1.0000 0.87500  0.87500  0.37500  Biso   1.000  Cu
  Cu4      1.0000 0.87500  0.37500  0.87500  Biso   1.000  Cu
  Cu5      1.0000 0.62500  0.12500  0.12500  Biso   1.000  Cu
  Cu6      1.0000 0.12500  0.62500  0.12500  Biso   1.000  Cu
  Cu7      1.0000 0.12500  0.12500  0.62500  Biso   1.000  Cu
  Cu8      1.0000 0.62500  0.62500  0.62500  Biso   1.000  Cu
  O1       1.0000 0.37500  0.01609  0.87500  Biso   1.000  O
  O2       1.0000 0.37500  0.73391  0.87500  Biso   1.000  O
  O3       1.0000 0.37500  0.51609  0.37500  Biso   1.000  O
  O4       1.0000 0.37500  0.23391  0.37500  Biso   1.000  O
  O5       1.0000 0.87500  0.01609  0.37500  Biso   1.000  O
  O6       1.0000 0.87500  0.73391  0.37500  Biso   1.000  O
  O7       1.0000 0.87500  0.51609  0.87500  Biso   1.000  O
  O8       1.0000 0.87500  0.23391  0.87500  Biso   1.000  O
  O9       1.0000 0.62500  0.98391  0.12500  Biso   1.000  O
  O10      1.0000 0.12500  0.76609  0.12500  Biso   1.000  O
  O11      1.0000 0.12500  0.98391  0.62500  Biso   1.000  O
  O12      1.0000 0.62500  0.76609  0.62500  Biso   1.000  O
  O13      1.0000 0.62500  0.48391  0.62500  Biso   1.000  O
  O14      1.0000 0.12500  0.26609  0.62500  Biso   1.000  O
  O15      1.0000 0.12500  0.48391  0.12500  Biso   1.000  O
  O16      1.0000 0.62500  0.26609  0.12500  Biso   1.000  O
  H1       1.0000 0.32900  0.03900  0.87800  Biso   1.000  H
  H2       1.0000 0.42100  0.71100  0.87800  Biso   1.000  H
  H3       1.0000 0.42100  0.03900  0.87200  Biso   1.000  H
  H4       1.0000 0.32900  0.71100  0.87200  Biso   1.000  H
  H5       1.0000 0.32900  0.53900  0.37800  Biso   1.000  H
  H6       1.0000 0.42100  0.21100  0.37800  Biso   1.000  H
  H7       1.0000 0.42100  0.53900  0.37200  Biso   1.000  H
  H8       1.0000 0.32900  0.21100  0.37200  Biso   1.000  H
  H9       1.0000 0.82900  0.03900  0.37800  Biso   1.000  H
  H10      1.0000 0.92100  0.71100  0.37800  Biso   1.000  H
  H11      1.0000 0.92100  0.03900  0.37200  Biso   1.000  H
  H12      1.0000 0.82900  0.71100  0.37200  Biso   1.000  H
  H13      1.0000 0.82900  0.53900  0.87800  Biso   1.000  H
  H14      1.0000 0.92100  0.21100  0.87800  Biso   1.000  H
  H15      1.0000 0.92100  0.53900  0.87200  Biso   1.000  H
  H16      1.0000 0.82900  0.21100  0.87200  Biso   1.000  H
  H17      1.0000 0.67100  0.96100  0.12200  Biso   1.000  H
  H18      1.0000 0.07900  0.78900  0.12200  Biso   1.000  H
  H19      1.0000 0.07900  0.96100  0.62800  Biso   1.000  H
  H20      1.0000 0.67100  0.78900  0.62800  Biso   1.000  H
  H21      1.0000 0.67100  0.46100  0.62200  Biso   1.000  H
  H22      1.0000 0.07900  0.28900  0.62200  Biso   1.000  H
  H23      1.0000 0.07900  0.46100  0.12800  Biso   1.000  H
  H24      1.0000 0.67100  0.28900  0.12800  Biso   1.000  H
  H25      1.0000 0.17100  0.96100  0.62200  Biso   1.000  H
  H26      1.0000 0.57900  0.78900  0.62200  Biso   1.000  H
  H27      1.0000 0.57900  0.96100  0.12800  Biso   1.000  H
  H28      1.0000 0.17100  0.78900  0.12800  Biso   1.000  H
  H29      1.0000 0.17100  0.46100  0.12200  Biso   1.000  H
  H30      1.0000 0.57900  0.28900  0.12200  Biso   1.000  H
  H31      1.0000 0.57900  0.46100  0.62800  Biso   1.000  H
  H32      1.0000 0.17100  0.28900  0.62800  Biso   1.000  H
  N1       1.0000 0.26501  0.87581  0.93262  Biso   1.000  N
  N2       1.0000 0.48499  0.87419  0.93262  Biso   1.000  N
  N3       1.0000 0.48499  0.87581  0.81738  Biso   1.000  N
  N4       1.0000 0.26501  0.87419  0.81738  Biso   1.000  N
  N5       1.0000 0.26501  0.37581  0.43262  Biso   1.000  N
  N6       1.0000 0.48499  0.37419  0.43262  Biso   1.000  N
  N7       1.0000 0.48499  0.37581  0.31738  Biso   1.000  N
  N8       1.0000 0.26501  0.37419  0.31738  Biso   1.000  N
  N9       1.0000 0.76501  0.87581  0.43262  Biso   1.000  N
  N10      1.0000 0.98499  0.87419  0.43262  Biso   1.000  N
  N11      1.0000 0.98499  0.87581  0.31738  Biso   1.000  N
  N12      1.0000 0.76501  0.87419  0.31738  Biso   1.000  N
  N13      1.0000 0.76501  0.37581  0.93262  Biso   1.000  N
  N14      1.0000 0.98499  0.37419  0.93262  Biso   1.000  N
  N15      1.0000 0.98499  0.37581  0.81738  Biso   1.000  N
  N16      1.0000 0.76501  0.37419  0.81738  Biso   1.000  N
  N17      1.0000 0.73499  0.12419  0.06738  Biso   1.000  N
  N18      1.0000 0.01501  0.62581  0.06738  Biso   1.000  N
  N19      1.0000 0.01501  0.12419  0.68262  Biso   1.000  N
  N20      1.0000 0.73499  0.62581  0.68262  Biso   1.000  N
  N21      1.0000 0.73499  0.62419  0.56738  Biso   1.000  N
  N22      1.0000 0.01501  0.12581  0.56738  Biso   1.000  N
  N23      1.0000 0.01501  0.62419  0.18262  Biso   1.000  N
  N24      1.0000 0.73499  0.12581  0.18262  Biso   1.000  N
  N25      1.0000 0.23499  0.12419  0.56738  Biso   1.000  N
  N26      1.0000 0.51501  0.62581  0.56738  Biso   1.000  N
  N27      1.0000 0.51501  0.12419  0.18262  Biso   1.000  N
  N28      1.0000 0.23499  0.62581  0.18262  Biso   1.000  N
  N29      1.0000 0.23499  0.62419  0.06738  Biso   1.000  N
  N30      1.0000 0.51501  0.12581  0.06738  Biso   1.000  N
  N31      1.0000 0.51501  0.62419  0.68262  Biso   1.000  N
  N32      1.0000 0.23499  0.12581  0.68262  Biso   1.000  N
  N33      1.0000 0.16752  0.91181  0.99923  Biso   1.000  N
  N34      1.0000 0.58248  0.83819  0.99923  Biso   1.000  N
  N35      1.0000 0.58248  0.91181  0.75077  Biso   1.000  N
  N36      1.0000 0.16752  0.83819  0.75077  Biso   1.000  N
  N37      1.0000 0.16752  0.41181  0.49923  Biso   1.000  N
  N38      1.0000 0.58248  0.33819  0.49923  Biso   1.000  N
  N39      1.0000 0.58248  0.41181  0.25077  Biso   1.000  N
  N40      1.0000 0.16752  0.33819  0.25077  Biso   1.000  N
  N41      1.0000 0.66752  0.91181  0.49923  Biso   1.000  N
  N42      1.0000 0.08248  0.83819  0.49923  Biso   1.000  N
  N43      1.0000 0.08248  0.91181  0.25077  Biso   1.000  N
  N44      1.0000 0.66752  0.83819  0.25077  Biso   1.000  N
  N45      1.0000 0.66752  0.41181  0.99923  Biso   1.000  N
  N46      1.0000 0.08248  0.33819  0.99923  Biso   1.000  N
  N47      1.0000 0.08248  0.41181  0.75077  Biso   1.000  N
  N48      1.0000 0.66752  0.33819  0.75077  Biso   1.000  N
  N49      1.0000 0.83248  0.08819  0.00077  Biso   1.000  N
  N50      1.0000 0.91752  0.66181  0.00077  Biso   1.000  N
  N51      1.0000 0.91752  0.08819  0.74923  Biso   1.000  N
  N52      1.0000 0.83248  0.66181  0.74923  Biso   1.000  N
  N53      1.0000 0.83248  0.58819  0.50077  Biso   1.000  N
  N54      1.0000 0.91752  0.16181  0.50077  Biso   1.000  N
  N55      1.0000 0.91752  0.58819  0.24923  Biso   1.000  N
  N56      1.0000 0.83248  0.16181  0.24923  Biso   1.000  N
  N57      1.0000 0.33248  0.08819  0.50077  Biso   1.000  N
  N58      1.0000 0.41752  0.66181  0.50077  Biso   1.000  N
  N59      1.0000 0.41752  0.08819  0.24923  Biso   1.000  N
  N60      1.0000 0.33248  0.66181  0.24923  Biso   1.000  N
  N61      1.0000 0.33248  0.58819  0.00077  Biso   1.000  N
  N62      1.0000 0.41752  0.16181  0.00077  Biso   1.000  N
  N63      1.0000 0.41752  0.58819  0.74923  Biso   1.000  N
  N64      1.0000 0.33248  0.16181  0.74923  Biso   1.000  N
  C1       1.0000 0.18983  0.82220  0.94254  Biso   1.000  C
  C2       1.0000 0.56017  0.92780  0.94254  Biso   1.000  C
  C3       1.0000 0.56017  0.82220  0.80746  Biso   1.000  C
  C4       1.0000 0.18983  0.92780  0.80746  Biso   1.000  C
  C5       1.0000 0.18983  0.32220  0.44254  Biso   1.000  C
  C6       1.0000 0.56017  0.42780  0.44254  Biso   1.000  C
  C7       1.0000 0.56017  0.32220  0.30746  Biso   1.000  C
  C8       1.0000 0.18983  0.42780  0.30746  Biso   1.000  C
  C9       1.0000 0.68983  0.82220  0.44254  Biso   1.000  C
  C10      1.0000 0.06017  0.92780  0.44254  Biso   1.000  C
  C11      1.0000 0.06017  0.82220  0.30746  Biso   1.000  C
  C12      1.0000 0.68983  0.92780  0.30746  Biso   1.000  C
  C13      1.0000 0.68983  0.32220  0.94254  Biso   1.000  C
  C14      1.0000 0.06017  0.42780  0.94254  Biso   1.000  C
  C15      1.0000 0.06017  0.32220  0.80746  Biso   1.000  C
  C16      1.0000 0.68983  0.42780  0.80746  Biso   1.000  C
  C17      1.0000 0.81017  0.17780  0.05746  Biso   1.000  C
  C18      1.0000 0.93983  0.57220  0.05746  Biso   1.000  C
  C19      1.0000 0.93983  0.17780  0.69254  Biso   1.000  C
  C20      1.0000 0.81017  0.57220  0.69254  Biso   1.000  C
  C21      1.0000 0.81017  0.67780  0.55746  Biso   1.000  C
  C22      1.0000 0.93983  0.07220  0.55746  Biso   1.000  C
  C23      1.0000 0.93983  0.67780  0.19254  Biso   1.000  C
  C24      1.0000 0.81017  0.07220  0.19254  Biso   1.000  C
  C25      1.0000 0.31017  0.17780  0.55746  Biso   1.000  C
  C26      1.0000 0.43983  0.57220  0.55746  Biso   1.000  C
  C27      1.0000 0.43983  0.17780  0.19254  Biso   1.000  C
  C28      1.0000 0.31017  0.57220  0.19254  Biso   1.000  C
  C29      1.0000 0.31017  0.67780  0.05746  Biso   1.000  C
  C30      1.0000 0.43983  0.07220  0.05746  Biso   1.000  C
  C31      1.0000 0.43983  0.67780  0.69254  Biso   1.000  C
  C32      1.0000 0.31017  0.07220  0.69254  Biso   1.000  C
  H33      1.0000 0.18230  0.77510  0.92240  Biso   1.000  H
  H34      1.0000 0.56770  0.97490  0.92240  Biso   1.000  H
  H35      1.0000 0.56770  0.77510  0.82760  Biso   1.000  H
  H36      1.0000 0.18230  0.97490  0.82760  Biso   1.000  H
  H37      1.0000 0.18230  0.27510  0.42240  Biso   1.000  H
  H38      1.0000 0.56770  0.47490  0.42240  Biso   1.000  H
  H39      1.0000 0.56770  0.27510  0.32760  Biso   1.000  H
  H40      1.0000 0.18230  0.47490  0.32760  Biso   1.000  H
  H41      1.0000 0.68230  0.77510  0.42240  Biso   1.000  H
  H42      1.0000 0.06770  0.97490  0.42240  Biso   1.000  H
  H43      1.0000 0.06770  0.77510  0.32760  Biso   1.000  H
  H44      1.0000 0.68230  0.97490  0.32760  Biso   1.000  H
  H45      1.0000 0.68230  0.27510  0.92240  Biso   1.000  H
  H46      1.0000 0.06770  0.47490  0.92240  Biso   1.000  H
  H47      1.0000 0.06770  0.27510  0.82760  Biso   1.000  H
  H48      1.0000 0.68230  0.47490  0.82760  Biso   1.000  H
  H49      1.0000 0.81770  0.22490  0.07760  Biso   1.000  H
  H50      1.0000 0.93230  0.52510  0.07760  Biso   1.000  H
  H51      1.0000 0.93230  0.22490  0.67240  Biso   1.000  H
  H52      1.0000 0.81770  0.52510  0.67240  Biso   1.000  H
  H53      1.0000 0.81770  0.72490  0.57760  Biso   1.000  H
  H54      1.0000 0.93230  0.02510  0.57760  Biso   1.000  H
  H55      1.0000 0.93230  0.72490  0.17240  Biso   1.000  H
  H56      1.0000 0.81770  0.02510  0.17240  Biso   1.000  H
  H57      1.0000 0.31770  0.22490  0.57760  Biso   1.000  H
  H58      1.0000 0.43230  0.52510  0.57760  Biso   1.000  H
  H59      1.0000 0.43230  0.22490  0.17240  Biso   1.000  H
  H60      1.0000 0.31770  0.52510  0.17240  Biso   1.000  H
  H61      1.0000 0.31770  0.72490  0.07760  Biso   1.000  H
  H62      1.0000 0.43230  0.02510  0.07760  Biso   1.000  H
  H63      1.0000 0.43230  0.72490  0.67240  Biso   1.000  H
  H64      1.0000 0.31770  0.02510  0.67240  Biso   1.000  H
  N65      1.0000 0.12818  0.84165  0.98285  Biso   1.000  N
  N66      1.0000 0.62182  0.90835  0.98285  Biso   1.000  N
  N67      1.0000 0.62182  0.84165  0.76715  Biso   1.000  N
  N68      1.0000 0.12818  0.90835  0.76715  Biso   1.000  N
  N69      1.0000 0.12818  0.34165  0.48285  Biso   1.000  N
  N70      1.0000 0.62182  0.40835  0.48285  Biso   1.000  N
  N71      1.0000 0.62182  0.34165  0.26715  Biso   1.000  N
  N72      1.0000 0.12818  0.40835  0.26715  Biso   1.000  N
  N73      1.0000 0.62818  0.84165  0.48285  Biso   1.000  N
  N74      1.0000 0.12182  0.90835  0.48285  Biso   1.000  N
  N75      1.0000 0.12182  0.84165  0.26715  Biso   1.000  N
  N76      1.0000 0.62818  0.90835  0.26715  Biso   1.000  N
  N77      1.0000 0.62818  0.34165  0.98285  Biso   1.000  N
  N78      1.0000 0.12182  0.40835  0.98285  Biso   1.000  N
  N79      1.0000 0.12182  0.34165  0.76715  Biso   1.000  N
  N80      1.0000 0.62818  0.40835  0.76715  Biso   1.000  N
  N81      1.0000 0.87182  0.15835  0.01715  Biso   1.000  N
  N82      1.0000 0.87818  0.59165  0.01715  Biso   1.000  N
  N83      1.0000 0.87818  0.15835  0.73285  Biso   1.000  N
  N84      1.0000 0.87182  0.59165  0.73285  Biso   1.000  N
  N85      1.0000 0.87182  0.65835  0.51715  Biso   1.000  N
  N86      1.0000 0.87818  0.09165  0.51715  Biso   1.000  N
  N87      1.0000 0.87818  0.65835  0.23285  Biso   1.000  N
  N88      1.0000 0.87182  0.09165  0.23285  Biso   1.000  N
  N89      1.0000 0.37182  0.15835  0.51715  Biso   1.000  N
  N90      1.0000 0.37818  0.59165  0.51715  Biso   1.000  N
  N91      1.0000 0.37818  0.15835  0.23285  Biso   1.000  N
  N92      1.0000 0.37182  0.59165  0.23285  Biso   1.000  N
  N93      1.0000 0.37182  0.65835  0.01715  Biso   1.000  N
  N94      1.0000 0.37818  0.09165  0.01715  Biso   1.000  N
  N95      1.0000 0.37818  0.65835  0.73285  Biso   1.000  N
  N96      1.0000 0.37182  0.09165  0.73285  Biso   1.000  N
  C33      1.0000 0.24832  0.93125  0.96920  Biso   1.000  C
  C34      1.0000 0.50168  0.81875  0.96920  Biso   1.000  C
  C35      1.0000 0.50168  0.93125  0.78080  Biso   1.000  C
  C36      1.0000 0.24832  0.81875  0.78080  Biso   1.000  C
  C37      1.0000 0.24832  0.43125  0.46920  Biso   1.000  C
  C38      1.0000 0.50168  0.31875  0.46920  Biso   1.000  C
  C39      1.0000 0.50168  0.43125  0.28080  Biso   1.000  C
  C40      1.0000 0.24832  0.31875  0.28080  Biso   1.000  C
  C41      1.0000 0.74832  0.93125  0.46920  Biso   1.000  C
  C42      1.0000 0.00168  0.81875  0.46920  Biso   1.000  C
  C43      1.0000 0.00168  0.93125  0.28080  Biso   1.000  C
  C44      1.0000 0.74832  0.81875  0.28080  Biso   1.000  C
  C45      1.0000 0.74832  0.43125  0.96920  Biso   1.000  C
  C46      1.0000 0.00168  0.31875  0.96920  Biso   1.000  C
  C47      1.0000 0.00168  0.43125  0.78080  Biso   1.000  C
  C48      1.0000 0.74832  0.31875  0.78080  Biso   1.000  C
  C49      1.0000 0.75168  0.06875  0.03080  Biso   1.000  C
  C50      1.0000 0.99832  0.68125  0.03080  Biso   1.000  C
  C51      1.0000 0.99832  0.06875  0.71920  Biso   1.000  C
  C52      1.0000 0.75168  0.68125  0.71920  Biso   1.000  C
  C53      1.0000 0.75168  0.56875  0.53080  Biso   1.000  C
  C54      1.0000 0.99832  0.18125  0.53080  Biso   1.000  C
  C55      1.0000 0.99832  0.56875  0.21920  Biso   1.000  C
  C56      1.0000 0.75168  0.18125  0.21920  Biso   1.000  C
  C57      1.0000 0.25168  0.06875  0.53080  Biso   1.000  C
  C58      1.0000 0.49832  0.68125  0.53080  Biso   1.000  C
  C59      1.0000 0.49832  0.06875  0.21920  Biso   1.000  C
  C60      1.0000 0.25168  0.68125  0.21920  Biso   1.000  C
  C61      1.0000 0.25168  0.56875  0.03080  Biso   1.000  C
  C62      1.0000 0.49832  0.18125  0.03080  Biso   1.000  C
  C63      1.0000 0.49832  0.56875  0.71920  Biso   1.000  C
  C64      1.0000 0.25168  0.18125  0.71920  Biso   1.000  C
  H65      1.0000 0.28820  0.97770  0.97320  Biso   1.000  H
  H66      1.0000 0.46180  0.77230  0.97320  Biso   1.000  H
  H67      1.0000 0.46180  0.97770  0.77680  Biso   1.000  H
  H68      1.0000 0.28820  0.77230  0.77680  Biso   1.000  H
  H69      1.0000 0.28820  0.47770  0.47320  Biso   1.000  H
  H70      1.0000 0.46180  0.27230  0.47320  Biso   1.000  H
  H71      1.0000 0.46180  0.47770  0.27680  Biso   1.000  H
  H72      1.0000 0.28820  0.27230  0.27680  Biso   1.000  H
  H73      1.0000 0.78820  0.97770  0.47320  Biso   1.000  H
  H74      1.0000 0.96180  0.77230  0.47320  Biso   1.000  H
  H75      1.0000 0.96180  0.97770  0.27680  Biso   1.000  H
  H76      1.0000 0.78820  0.77230  0.27680  Biso   1.000  H
  H77      1.0000 0.78820  0.47770  0.97320  Biso   1.000  H
  H78      1.0000 0.96180  0.27230  0.97320  Biso   1.000  H
  H79      1.0000 0.96180  0.47770  0.77680  Biso   1.000  H
  H80      1.0000 0.78820  0.27230  0.77680  Biso   1.000  H
  H81      1.0000 0.71180  0.02230  0.02680  Biso   1.000  H
  H82      1.0000 0.03820  0.72770  0.02680  Biso   1.000  H
  H83      1.0000 0.03820  0.02230  0.72320  Biso   1.000  H
  H84      1.0000 0.71180  0.72770  0.72320  Biso   1.000  H
  H85      1.0000 0.71180  0.52230  0.52680  Biso   1.000  H
  H86      1.0000 0.03820  0.22770  0.52680  Biso   1.000  H
  H87      1.0000 0.03820  0.52230  0.22320  Biso   1.000  H
  H88      1.0000 0.71180  0.22770  0.22320  Biso   1.000  H
  H89      1.0000 0.21180  0.02230  0.52680  Biso   1.000  H
  H90      1.0000 0.53820  0.72770  0.52680  Biso   1.000  H
  H91      1.0000 0.53820  0.02230  0.22320  Biso   1.000  H
  H92      1.0000 0.21180  0.72770  0.22320  Biso   1.000  H
  H93      1.0000 0.21180  0.52230  0.02680  Biso   1.000  H
  H94      1.0000 0.53820  0.22770  0.02680  Biso   1.000  H
  H95      1.0000 0.53820  0.52230  0.72320  Biso   1.000  H
  H96      1.0000 0.21180  0.22770  0.72320  Biso   1.000  H
  C65      1.0000 0.11628  0.95815  0.04131  Biso   1.000  C
  C66      1.0000 0.63372  0.79185  0.04131  Biso   1.000  C
  C67      1.0000 0.63372  0.95815  0.70869  Biso   1.000  C
  C68      1.0000 0.11628  0.79185  0.70869  Biso   1.000  C
  C69      1.0000 0.11628  0.45815  0.54131  Biso   1.000  C
  C70      1.0000 0.63372  0.29185  0.54131  Biso   1.000  C
  C71      1.0000 0.63372  0.45815  0.20869  Biso   1.000  C
  C72      1.0000 0.11628  0.29185  0.20869  Biso   1.000  C
  C73      1.0000 0.61628  0.95815  0.54131  Biso   1.000  C
  C74      1.0000 0.13372  0.79185  0.54131  Biso   1.000  C
  C75      1.0000 0.13372  0.95815  0.20869  Biso   1.000  C
  C76      1.0000 0.61628  0.79185  0.20869  Biso   1.000  C
  C77      1.0000 0.61628  0.45815  0.04131  Biso   1.000  C
  C78      1.0000 0.13372  0.29185  0.04131  Biso   1.000  C
  C79      1.0000 0.13372  0.45815  0.70869  Biso   1.000  C
  C80      1.0000 0.61628  0.29185  0.70869  Biso   1.000  C
  C81      1.0000 0.88372  0.04185  0.95869  Biso   1.000  C
  C82      1.0000 0.86628  0.70815  0.95869  Biso   1.000  C
  C83      1.0000 0.86628  0.04185  0.79131  Biso   1.000  C
  C84      1.0000 0.88372  0.70815  0.79131  Biso   1.000  C
  C85      1.0000 0.88372  0.54185  0.45869  Biso   1.000  C
  C86      1.0000 0.86628  0.20815  0.45869  Biso   1.000  C
  C87      1.0000 0.86628  0.54185  0.29131  Biso   1.000  C
  C88      1.0000 0.88372  0.20815  0.29131  Biso   1.000  C
  C89      1.0000 0.38372  0.04185  0.45869  Biso   1.000  C
  C90      1.0000 0.36628  0.70815  0.45869  Biso   1.000  C
  C91      1.0000 0.36628  0.04185  0.29131  Biso   1.000  C
  C92      1.0000 0.38372  0.70815  0.29131  Biso   1.000  C
  C93      1.0000 0.38372  0.54185  0.95869  Biso   1.000  C
  C94      1.0000 0.36628  0.20815  0.95869  Biso   1.000  C
  C95      1.0000 0.36628  0.54185  0.79131  Biso   1.000  C
  C96      1.0000 0.38372  0.20815  0.79131  Biso   1.000  C
  H97      1.0000 0.07680  0.92280  0.06550  Biso   1.000  H
  H98      1.0000 0.67320  0.82720  0.06550  Biso   1.000  H
  H99      1.0000 0.67320  0.92280  0.68450  Biso   1.000  H
  H100     1.0000 0.07680  0.82720  0.68450  Biso   1.000  H
  H101     1.0000 0.07680  0.42280  0.56550  Biso   1.000  H
  H102     1.0000 0.67320  0.32720  0.56550  Biso   1.000  H
  H103     1.0000 0.67320  0.42280  0.18450  Biso   1.000  H
  H104     1.0000 0.07680  0.32720  0.18450  Biso   1.000  H
  H105     1.0000 0.57680  0.92280  0.56550  Biso   1.000  H
  H106     1.0000 0.17320  0.82720  0.56550  Biso   1.000  H
  H107     1.0000 0.17320  0.92280  0.18450  Biso   1.000  H
  H108     1.0000 0.57680  0.82720  0.18450  Biso   1.000  H
  H109     1.0000 0.57680  0.42280  0.06550  Biso   1.000  H
  H110     1.0000 0.17320  0.32720  0.06550  Biso   1.000  H
  H111     1.0000 0.17320  0.42280  0.68450  Biso   1.000  H
  H112     1.0000 0.57680  0.32720  0.68450  Biso   1.000  H
  H113     1.0000 0.92320  0.07720  0.93450  Biso   1.000  H
  H114     1.0000 0.82680  0.67280  0.93450  Biso   1.000  H
  H115     1.0000 0.82680  0.07720  0.81550  Biso   1.000  H
  H116     1.0000 0.92320  0.67280  0.81550  Biso   1.000  H
  H117     1.0000 0.92320  0.57720  0.43450  Biso   1.000  H
  H118     1.0000 0.82680  0.17280  0.43450  Biso   1.000  H
  H119     1.0000 0.82680  0.57720  0.31550  Biso   1.000  H
  H120     1.0000 0.92320  0.17280  0.31550  Biso   1.000  H
  H121     1.0000 0.42320  0.07720  0.43450  Biso   1.000  H
  H122     1.0000 0.32680  0.67280  0.43450  Biso   1.000  H
  H123     1.0000 0.32680  0.07720  0.31550  Biso   1.000  H
  H124     1.0000 0.42320  0.67280  0.31550  Biso   1.000  H
  H125     1.0000 0.42320  0.57720  0.93450  Biso   1.000  H
  H126     1.0000 0.32680  0.17280  0.93450  Biso   1.000  H
  H127     1.0000 0.32680  0.57720  0.81550  Biso   1.000  H
  H128     1.0000 0.42320  0.17280  0.81550  Biso   1.000  H
  H129     1.0000 0.16930  0.98530  0.06340  Biso   1.000  H
  H130     1.0000 0.58070  0.76470  0.06340  Biso   1.000  H
  H131     1.0000 0.58070  0.98530  0.68660  Biso   1.000  H
  H132     1.0000 0.16930  0.76470  0.68660  Biso   1.000  H
  H133     1.0000 0.16930  0.48530  0.56340  Biso   1.000  H
  H134     1.0000 0.58070  0.26470  0.56340  Biso   1.000  H
  H135     1.0000 0.58070  0.48530  0.18660  Biso   1.000  H
  H136     1.0000 0.16930  0.26470  0.18660  Biso   1.000  H
  H137     1.0000 0.66930  0.98530  0.56340  Biso   1.000  H
  H138     1.0000 0.08070  0.76470  0.56340  Biso   1.000  H
  H139     1.0000 0.08070  0.98530  0.18660  Biso   1.000  H
  H140     1.0000 0.66930  0.76470  0.18660  Biso   1.000  H
  H141     1.0000 0.66930  0.48530  0.06340  Biso   1.000  H
  H142     1.0000 0.08070  0.26470  0.06340  Biso   1.000  H
  H143     1.0000 0.08070  0.48530  0.68660  Biso   1.000  H
  H144     1.0000 0.66930  0.26470  0.68660  Biso   1.000  H
  H145     1.0000 0.83070  0.01470  0.93660  Biso   1.000  H
  H146     1.0000 0.91930  0.73530  0.93660  Biso   1.000  H
  H147     1.0000 0.91930  0.01470  0.81340  Biso   1.000  H
  H148     1.0000 0.83070  0.73530  0.81340  Biso   1.000  H
  H149     1.0000 0.83070  0.51470  0.43660  Biso   1.000  H
  H150     1.0000 0.91930  0.23530  0.43660  Biso   1.000  H
  H151     1.0000 0.91930  0.51470  0.31340  Biso   1.000  H
  H152     1.0000 0.83070  0.23530  0.31340  Biso   1.000  H
  H153     1.0000 0.33070  0.01470  0.43660  Biso   1.000  H
  H154     1.0000 0.41930  0.73530  0.43660  Biso   1.000  H
  H155     1.0000 0.41930  0.01470  0.31340  Biso   1.000  H
  H156     1.0000 0.33070  0.73530  0.31340  Biso   1.000  H
  H157     1.0000 0.33070  0.51470  0.93660  Biso   1.000  H
  H158     1.0000 0.41930  0.23530  0.93660  Biso   1.000  H
  H159     1.0000 0.41930  0.51470  0.81340  Biso   1.000  H
  H160     1.0000 0.33070  0.23530  0.81340  Biso   1.000  H
  C97      1.0000 0.04310  0.01834  0.01689  Biso   1.000  C
  C98      1.0000 0.70690  0.73166  0.01689  Biso   1.000  C
  C99      1.0000 0.70690  0.01834  0.73311  Biso   1.000  C
  C100     1.0000 0.04310  0.73166  0.73311  Biso   1.000  C
  C101     1.0000 0.04310  0.51834  0.51689  Biso   1.000  C
  C102     1.0000 0.70690  0.23166  0.51689  Biso   1.000  C
  C103     1.0000 0.70690  0.51834  0.23311  Biso   1.000  C
  C104     1.0000 0.04310  0.23166  0.23311  Biso   1.000  C
  C105     1.0000 0.54310  0.01834  0.51689  Biso   1.000  C
  C106     1.0000 0.20690  0.73166  0.51689  Biso   1.000  C
  C107     1.0000 0.20690  0.01834  0.23311  Biso   1.000  C
  C108     1.0000 0.54310  0.73166  0.23311  Biso   1.000  C
  C109     1.0000 0.54310  0.51834  0.01689  Biso   1.000  C
  C110     1.0000 0.20690  0.23166  0.01689  Biso   1.000  C
  C111     1.0000 0.20690  0.51834  0.73311  Biso   1.000  C
  C112     1.0000 0.54310  0.23166  0.73311  Biso   1.000  C
  C113     1.0000 0.95690  0.98166  0.98311  Biso   1.000  C
  C114     1.0000 0.79310  0.76834  0.98311  Biso   1.000  C
  C115     1.0000 0.79310  0.98166  0.76689  Biso   1.000  C
  C116     1.0000 0.95690  0.76834  0.76689  Biso   1.000  C
  C117     1.0000 0.95690  0.48166  0.48311  Biso   1.000  C
  C118     1.0000 0.79310  0.26834  0.48311  Biso   1.000  C
  C119     1.0000 0.79310  0.48166  0.26689  Biso   1.000  C
  C120     1.0000 0.95690  0.26834  0.26689  Biso   1.000  C
  C121     1.0000 0.45690  0.98166  0.48311  Biso   1.000  C
  C122     1.0000 0.29310  0.76834  0.48311  Biso   1.000  C
  C123     1.0000 0.29310  0.98166  0.26689  Biso   1.000  C
  C124     1.0000 0.45690  0.76834  0.26689  Biso   1.000  C
  C125     1.0000 0.45690  0.48166  0.98311  Biso   1.000  C
  C126     1.0000 0.29310  0.26834  0.98311  Biso   1.000  C
  C127     1.0000 0.29310  0.48166  0.76689  Biso   1.000  C
  C128     1.0000 0.45690  0.26834  0.76689  Biso   1.000  C
  H161     1.0000 0.01170  0.04950  0.04640  Biso   1.000  H
  H162     1.0000 0.73830  0.70050  0.04640  Biso   1.000  H
  H163     1.0000 0.73830  0.04950  0.70360  Biso   1.000  H
  H164     1.0000 0.01170  0.70050  0.70360  Biso   1.000  H
  H165     1.0000 0.01170  0.54950  0.54640  Biso   1.000  H
  H166     1.0000 0.73830  0.20050  0.54640  Biso   1.000  H
  H167     1.0000 0.73830  0.54950  0.20360  Biso   1.000  H
  H168     1.0000 0.01170  0.20050  0.20360  Biso   1.000  H
  H169     1.0000 0.51170  0.04950  0.54640  Biso   1.000  H
  H170     1.0000 0.23830  0.70050  0.54640  Biso   1.000  H
  H171     1.0000 0.23830  0.04950  0.20360  Biso   1.000  H
  H172     1.0000 0.51170  0.70050  0.20360  Biso   1.000  H
  H173     1.0000 0.51170  0.54950  0.04640  Biso   1.000  H
  H174     1.0000 0.23830  0.20050  0.04640  Biso   1.000  H
  H175     1.0000 0.23830  0.54950  0.70360  Biso   1.000  H
  H176     1.0000 0.51170  0.20050  0.70360  Biso   1.000  H
  H177     1.0000 0.98830  0.95050  0.95360  Biso   1.000  H
  H178     1.0000 0.76170  0.79950  0.95360  Biso   1.000  H
  H179     1.0000 0.76170  0.95050  0.79640  Biso   1.000  H
  H180     1.0000 0.98830  0.79950  0.79640  Biso   1.000  H
  H181     1.0000 0.98830  0.45050  0.45360  Biso   1.000  H
  H182     1.0000 0.76170  0.29950  0.45360  Biso   1.000  H
  H183     1.0000 0.76170  0.45050  0.29640  Biso   1.000  H
  H184     1.0000 0.98830  0.29950  0.29640  Biso   1.000  H
  H185     1.0000 0.48830  0.95050  0.45360  Biso   1.000  H
  H186     1.0000 0.26170  0.79950  0.45360  Biso   1.000  H
  H187     1.0000 0.26170  0.95050  0.29640  Biso   1.000  H
  H188     1.0000 0.48830  0.79950  0.29640  Biso   1.000  H
  H189     1.0000 0.48830  0.45050  0.95360  Biso   1.000  H
  H190     1.0000 0.26170  0.29950  0.95360  Biso   1.000  H
  H191     1.0000 0.26170  0.45050  0.79640  Biso   1.000  H
  H192     1.0000 0.48830  0.29950  0.79640  Biso   1.000  H
  H193     1.0000 0.08350  0.05460  0.99380  Biso   1.000  H
  H194     1.0000 0.66650  0.69540  0.99380  Biso   1.000  H
  H195     1.0000 0.66650  0.05460  0.75620  Biso   1.000  H
  H196     1.0000 0.08350  0.69540  0.75620  Biso   1.000  H
  H197     1.0000 0.08350  0.55460  0.49380  Biso   1.000  H
  H198     1.0000 0.66650  0.19540  0.49380  Biso   1.000  H
  H199     1.0000 0.66650  0.55460  0.25620  Biso   1.000  H
  H200     1.0000 0.08350  0.19540  0.25620  Biso   1.000  H
  H201     1.0000 0.58350  0.05460  0.49380  Biso   1.000  H
  H202     1.0000 0.16650  0.69540  0.49380  Biso   1.000  H
  H203     1.0000 0.16650  0.05460  0.25620  Biso   1.000  H
  H204     1.0000 0.58350  0.69540  0.25620  Biso   1.000  H
  H205     1.0000 0.58350  0.55460  0.99380  Biso   1.000  H
  H206     1.0000 0.16650  0.19540  0.99380  Biso   1.000  H
  H207     1.0000 0.16650  0.55460  0.75620  Biso   1.000  H
  H208     1.0000 0.58350  0.19540  0.75620  Biso   1.000  H
  H209     1.0000 0.91650  0.94540  0.00620  Biso   1.000  H
  H210     1.0000 0.83350  0.80460  0.00620  Biso   1.000  H
  H211     1.0000 0.83350  0.94540  0.74380  Biso   1.000  H
  H212     1.0000 0.91650  0.80460  0.74380  Biso   1.000  H
  H213     1.0000 0.91650  0.44540  0.50620  Biso   1.000  H
  H214     1.0000 0.83350  0.30460  0.50620  Biso   1.000  H
  H215     1.0000 0.83350  0.44540  0.24380  Biso   1.000  H
  H216     1.0000 0.91650  0.30460  0.24380  Biso   1.000  H
  H217     1.0000 0.41650  0.94540  0.50620  Biso   1.000  H
  H218     1.0000 0.33350  0.80460  0.50620  Biso   1.000  H
  H219     1.0000 0.33350  0.94540  0.24380  Biso   1.000  H
  H220     1.0000 0.41650  0.80460  0.24380  Biso   1.000  H
  H221     1.0000 0.41650  0.44540  0.00620  Biso   1.000  H
  H222     1.0000 0.33350  0.30460  0.00620  Biso   1.000  H
  H223     1.0000 0.33350  0.44540  0.74380  Biso   1.000  H
  H224     1.0000 0.41650  0.30460  0.74380  Biso   1.000  H
  N97      1.0000 0.37500  0.87500  0.12509  Biso   1.000  N
  N98      1.0000 0.37500  0.87500  0.62491  Biso   1.000  N
  N99      1.0000 0.37500  0.37500  0.62509  Biso   1.000  N
  N100     1.0000 0.37500  0.37500  0.12491  Biso   1.000  N
  N101     1.0000 0.87500  0.87500  0.62509  Biso   1.000  N
  N102     1.0000 0.87500  0.87500  0.12491  Biso   1.000  N
  N103     1.0000 0.87500  0.37500  0.12509  Biso   1.000  N
  N104     1.0000 0.87500  0.37500  0.62491  Biso   1.000  N
  N105     1.0000 0.62500  0.12500  0.87491  Biso   1.000  N
  N106     1.0000 0.12500  0.62500  0.87491  Biso   1.000  N
  N107     1.0000 0.12500  0.12500  0.87509  Biso   1.000  N
  N108     1.0000 0.62500  0.62500  0.87509  Biso   1.000  N
  N109     1.0000 0.62500  0.62500  0.37491  Biso   1.000  N
  N110     1.0000 0.12500  0.12500  0.37491  Biso   1.000  N
  N111     1.0000 0.12500  0.62500  0.37509  Biso   1.000  N
  N112     1.0000 0.62500  0.12500  0.37509  Biso   1.000  N
  O17      1.0000 0.43180  0.92200  0.14781  Biso   1.000  O
  O18      1.0000 0.31820  0.82800  0.14781  Biso   1.000  O
  O19      1.0000 0.31820  0.92200  0.60219  Biso   1.000  O
  O20      1.0000 0.43180  0.82800  0.60219  Biso   1.000  O
  O21      1.0000 0.43180  0.42200  0.64781  Biso   1.000  O
  O22      1.0000 0.31820  0.32800  0.64781  Biso   1.000  O
  O23      1.0000 0.31820  0.42200  0.10219  Biso   1.000  O
  O24      1.0000 0.43180  0.32800  0.10219  Biso   1.000  O
  O25      1.0000 0.93180  0.92200  0.64781  Biso   1.000  O
  O26      1.0000 0.81820  0.82800  0.64781  Biso   1.000  O
  O27      1.0000 0.81820  0.92200  0.10219  Biso   1.000  O
  O28      1.0000 0.93180  0.82800  0.10219  Biso   1.000  O
  O29      1.0000 0.93180  0.42200  0.14781  Biso   1.000  O
  O30      1.0000 0.81820  0.32800  0.14781  Biso   1.000  O
  O31      1.0000 0.81820  0.42200  0.60219  Biso   1.000  O
  O32      1.0000 0.93180  0.32800  0.60219  Biso   1.000  O
  O33      1.0000 0.56820  0.07800  0.85219  Biso   1.000  O
  O34      1.0000 0.18180  0.67200  0.85219  Biso   1.000  O
  O35      1.0000 0.18180  0.07800  0.89781  Biso   1.000  O
  O36      1.0000 0.56820  0.67200  0.89781  Biso   1.000  O
  O37      1.0000 0.56820  0.57800  0.35219  Biso   1.000  O
  O38      1.0000 0.18180  0.17200  0.35219  Biso   1.000  O
  O39      1.0000 0.18180  0.57800  0.39781  Biso   1.000  O
  O40      1.0000 0.56820  0.17200  0.39781  Biso   1.000  O
  O41      1.0000 0.06820  0.07800  0.35219  Biso   1.000  O
  O42      1.0000 0.68180  0.67200  0.35219  Biso   1.000  O
  O43      1.0000 0.68180  0.07800  0.39781  Biso   1.000  O
  O44      1.0000 0.06820  0.67200  0.39781  Biso   1.000  O
  O45      1.0000 0.06820  0.57800  0.85219  Biso   1.000  O
  O46      1.0000 0.68180  0.17200  0.85219  Biso   1.000  O
  O47      1.0000 0.68180  0.57800  0.89781  Biso   1.000  O
  O48      1.0000 0.06820  0.17200  0.89781  Biso   1.000  O
  O49      1.0000 0.29070  0.87840  0.10620  Biso   1.000  O
  O50      1.0000 0.45930  0.87160  0.10620  Biso   1.000  O
  O51      1.0000 0.45930  0.87840  0.64380  Biso   1.000  O
  O52      1.0000 0.29070  0.87160  0.64380  Biso   1.000  O
  O53      1.0000 0.29070  0.37840  0.60620  Biso   1.000  O
  O54      1.0000 0.45930  0.37160  0.60620  Biso   1.000  O
  O55      1.0000 0.45930  0.37840  0.14380  Biso   1.000  O
  O56      1.0000 0.29070  0.37160  0.14380  Biso   1.000  O
  O57      1.0000 0.79070  0.87840  0.60620  Biso   1.000  O
  O58      1.0000 0.95930  0.87160  0.60620  Biso   1.000  O
  O59      1.0000 0.95930  0.87840  0.14380  Biso   1.000  O
  O60      1.0000 0.79070  0.87160  0.14380  Biso   1.000  O
  O61      1.0000 0.79070  0.37840  0.10620  Biso   1.000  O
  O62      1.0000 0.95930  0.37160  0.10620  Biso   1.000  O
  O63      1.0000 0.95930  0.37840  0.64380  Biso   1.000  O
  O64      1.0000 0.79070  0.37160  0.64380  Biso   1.000  O
  O65      1.0000 0.70930  0.12160  0.89380  Biso   1.000  O
  O66      1.0000 0.04070  0.62840  0.89380  Biso   1.000  O
  O67      1.0000 0.04070  0.12160  0.85620  Biso   1.000  O
  O68      1.0000 0.70930  0.62840  0.85620  Biso   1.000  O
  O69      1.0000 0.70930  0.62160  0.39380  Biso   1.000  O
  O70      1.0000 0.04070  0.12840  0.39380  Biso   1.000  O
  O71      1.0000 0.04070  0.62160  0.35620  Biso   1.000  O
  O72      1.0000 0.70930  0.12840  0.35620  Biso   1.000  O
  O73      1.0000 0.20930  0.12160  0.39380  Biso   1.000  O
  O74      1.0000 0.54070  0.62840  0.39380  Biso   1.000  O
  O75      1.0000 0.54070  0.12160  0.35620  Biso   1.000  O
  O76      1.0000 0.20930  0.62840  0.35620  Biso   1.000  O
  O77      1.0000 0.20930  0.62160  0.89380  Biso   1.000  O
  O78      1.0000 0.54070  0.12840  0.89380  Biso   1.000  O
  O79      1.0000 0.54070  0.62160  0.85620  Biso   1.000  O
  O80      1.0000 0.20930  0.12840  0.85620  Biso   1.000  O
  O81      1.0000 0.34450  0.95120  0.13410  Biso   1.000  O
  O82      1.0000 0.40550  0.79880  0.13410  Biso   1.000  O
  O83      1.0000 0.40550  0.95120  0.61590  Biso   1.000  O
  O84      1.0000 0.34450  0.79880  0.61590  Biso   1.000  O
  O85      1.0000 0.34450  0.45120  0.63410  Biso   1.000  O
  O86      1.0000 0.40550  0.29880  0.63410  Biso   1.000  O
  O87      1.0000 0.40550  0.45120  0.11590  Biso   1.000  O
  O88      1.0000 0.34450  0.29880  0.11590  Biso   1.000  O
  O89      1.0000 0.84450  0.95120  0.63410  Biso   1.000  O
  O90      1.0000 0.90550  0.79880  0.63410  Biso   1.000  O
  O91      1.0000 0.90550  0.95120  0.11590  Biso   1.000  O
  O92      1.0000 0.84450  0.79880  0.11590  Biso   1.000  O
  O93      1.0000 0.84450  0.45120  0.13410  Biso   1.000  O
  O94      1.0000 0.90550  0.29880  0.13410  Biso   1.000  O
  O95      1.0000 0.90550  0.45120  0.61590  Biso   1.000  O
  O96      1.0000 0.84450  0.29880  0.61590  Biso   1.000  O
  O97      1.0000 0.65550  0.04880  0.86590  Biso   1.000  O
  O98      1.0000 0.09450  0.70120  0.86590  Biso   1.000  O
  O99      1.0000 0.09450  0.04880  0.88410  Biso   1.000  O
  O100     1.0000 0.65550  0.70120  0.88410  Biso   1.000  O
  O101     1.0000 0.65550  0.54880  0.36590  Biso   1.000  O
  O102     1.0000 0.09450  0.20120  0.36590  Biso   1.000  O
  O103     1.0000 0.09450  0.54880  0.38410  Biso   1.000  O
  O104     1.0000 0.65550  0.20120  0.38410  Biso   1.000  O
  O105     1.0000 0.15550  0.04880  0.36590  Biso   1.000  O
  O106     1.0000 0.59450  0.70120  0.36590  Biso   1.000  O
  O107     1.0000 0.59450  0.04880  0.38410  Biso   1.000  O
  O108     1.0000 0.15550  0.70120  0.38410  Biso   1.000  O
  O109     1.0000 0.15550  0.54880  0.86590  Biso   1.000  O
  O110     1.0000 0.59450  0.20120  0.86590  Biso   1.000  O
  O111     1.0000 0.59450  0.54880  0.88410  Biso   1.000  O
  O112     1.0000 0.15550  0.20120  0.88410  Biso   1.000  O
  O113     1.0000 0.37500  0.87500  0.07430  Biso   1.000  O
  O114     1.0000 0.37500  0.87500  0.67570  Biso   1.000  O
  O115     1.0000 0.37500  0.37500  0.57430  Biso   1.000  O
  O116     1.0000 0.37500  0.37500  0.17570  Biso   1.000  O
  O117     1.0000 0.87500  0.87500  0.57430  Biso   1.000  O
  O118     1.0000 0.87500  0.87500  0.17570  Biso   1.000  O
  O119     1.0000 0.87500  0.37500  0.07430  Biso   1.000  O
  O120     1.0000 0.87500  0.37500  0.67570  Biso   1.000  O
  O121     1.0000 0.62500  0.12500  0.92570  Biso   1.000  O
  O122     1.0000 0.12500  0.62500  0.92570  Biso   1.000  O
  O123     1.0000 0.12500  0.12500  0.82430  Biso   1.000  O
  O124     1.0000 0.62500  0.62500  0.82430  Biso   1.000  O
  O125     1.0000 0.62500  0.62500  0.42570  Biso   1.000  O
  O126     1.0000 0.12500  0.12500  0.42570  Biso   1.000  O
  O127     1.0000 0.12500  0.62500  0.32430  Biso   1.000  O
  O128     1.0000 0.62500  0.12500  0.32430  Biso   1.000  O
  O129     1.0000 0.31430  0.93490  0.11390  Biso   1.000  O
  O130     1.0000 0.43570  0.81510  0.11390  Biso   1.000  O
  O131     1.0000 0.43570  0.93490  0.63610  Biso   1.000  O
  O132     1.0000 0.31430  0.81510  0.63610  Biso   1.000  O
  O133     1.0000 0.31430  0.43490  0.61390  Biso   1.000  O
  O134     1.0000 0.43570  0.31510  0.61390  Biso   1.000  O
  O135     1.0000 0.43570  0.43490  0.13610  Biso   1.000  O
  O136     1.0000 0.31430  0.31510  0.13610  Biso   1.000  O
  O137     1.0000 0.81430  0.93490  0.61390  Biso   1.000  O
  O138     1.0000 0.93570  0.81510  0.61390  Biso   1.000  O
  O139     1.0000 0.93570  0.93490  0.13610  Biso   1.000  O
  O140     1.0000 0.81430  0.81510  0.13610  Biso   1.000  O
  O141     1.0000 0.81430  0.43490  0.11390  Biso   1.000  O
  O142     1.0000 0.93570  0.31510  0.11390  Biso   1.000  O
  O143     1.0000 0.93570  0.43490  0.63610  Biso   1.000  O
  O144     1.0000 0.81430  0.31510  0.63610  Biso   1.000  O
  O145     1.0000 0.68570  0.06510  0.88610  Biso   1.000  O
  O146     1.0000 0.06430  0.68490  0.88610  Biso   1.000  O
  O147     1.0000 0.06430  0.06510  0.86390  Biso   1.000  O
  O148     1.0000 0.68570  0.68490  0.86390  Biso   1.000  O
  O149     1.0000 0.68570  0.56510  0.38610  Biso   1.000  O
  O150     1.0000 0.06430  0.18490  0.38610  Biso   1.000  O
  O151     1.0000 0.06430  0.56510  0.36390  Biso   1.000  O
  O152     1.0000 0.68570  0.18490  0.36390  Biso   1.000  O
  O153     1.0000 0.18570  0.06510  0.38610  Biso   1.000  O
  O154     1.0000 0.56430  0.68490  0.38610  Biso   1.000  O
  O155     1.0000 0.56430  0.06510  0.36390  Biso   1.000  O
  O156     1.0000 0.18570  0.68490  0.36390  Biso   1.000  O
  O157     1.0000 0.18570  0.56510  0.88610  Biso   1.000  O
  O158     1.0000 0.56430  0.18490  0.88610  Biso   1.000  O
  O159     1.0000 0.56430  0.56510  0.86390  Biso   1.000  O
  O160     1.0000 0.18570  0.18490  0.86390  Biso   1.000  O
  C129     1.0000 0.25450  0.22990  0.97510  Biso   1.000  C
  C130     1.0000 0.49550  0.52010  0.97510  Biso   1.000  C
  C131     1.0000 0.49550  0.22990  0.77490  Biso   1.000  C
  C132     1.0000 0.25450  0.52010  0.77490  Biso   1.000  C
  C133     1.0000 0.25450  0.72990  0.47510  Biso   1.000  C
  C134     1.0000 0.49550  0.02010  0.47510  Biso   1.000  C
  C135     1.0000 0.49550  0.72990  0.27490  Biso   1.000  C
  C136     1.0000 0.25450  0.02010  0.27490  Biso   1.000  C
  C137     1.0000 0.75450  0.22990  0.47510  Biso   1.000  C
  C138     1.0000 0.99550  0.52010  0.47510  Biso   1.000  C
  C139     1.0000 0.99550  0.22990  0.27490  Biso   1.000  C
  C140     1.0000 0.75450  0.52010  0.27490  Biso   1.000  C
  C141     1.0000 0.75450  0.72990  0.97510  Biso   1.000  C
  C142     1.0000 0.99550  0.02010  0.97510  Biso   1.000  C
  C143     1.0000 0.99550  0.72990  0.77490  Biso   1.000  C
  C144     1.0000 0.75450  0.02010  0.77490  Biso   1.000  C
  C145     1.0000 0.74550  0.77010  0.02490  Biso   1.000  C
  C146     1.0000 0.00450  0.97990  0.02490  Biso   1.000  C
  C147     1.0000 0.00450  0.77010  0.72510  Biso   1.000  C
  C148     1.0000 0.74550  0.97990  0.72510  Biso   1.000  C
  C149     1.0000 0.74550  0.27010  0.52490  Biso   1.000  C
  C150     1.0000 0.00450  0.47990  0.52490  Biso   1.000  C
  C151     1.0000 0.00450  0.27010  0.22510  Biso   1.000  C
  C152     1.0000 0.74550  0.47990  0.22510  Biso   1.000  C
  C153     1.0000 0.24550  0.77010  0.52490  Biso   1.000  C
  C154     1.0000 0.50450  0.97990  0.52490  Biso   1.000  C
  C155     1.0000 0.50450  0.77010  0.22510  Biso   1.000  C
  C156     1.0000 0.24550  0.97990  0.22510  Biso   1.000  C
  C157     1.0000 0.24550  0.27010  0.02490  Biso   1.000  C
  C158     1.0000 0.50450  0.47990  0.02490  Biso   1.000  C
  C159     1.0000 0.50450  0.27010  0.72510  Biso   1.000  C
  C160     1.0000 0.24550  0.47990  0.72510  Biso   1.000  C
  H225     1.0000 0.22410  0.26300  0.94630  Biso   1.000  H
  H226     1.0000 0.52590  0.48700  0.94630  Biso   1.000  H
  H227     1.0000 0.52590  0.26300  0.80370  Biso   1.000  H
  H228     1.0000 0.22410  0.48700  0.80370  Biso   1.000  H
  H229     1.0000 0.22410  0.76300  0.44630  Biso   1.000  H
  H230     1.0000 0.52590  0.98700  0.44630  Biso   1.000  H
  H231     1.0000 0.52590  0.76300  0.30370  Biso   1.000  H
  H232     1.0000 0.22410  0.98700  0.30370  Biso   1.000  H
  H233     1.0000 0.72410  0.26300  0.44630  Biso   1.000  H
  H234     1.0000 0.02590  0.48700  0.44630  Biso   1.000  H
  H235     1.0000 0.02590  0.26300  0.30370  Biso   1.000  H
  H236     1.0000 0.72410  0.48700  0.30370  Biso   1.000  H
  H237     1.0000 0.72410  0.76300  0.94630  Biso   1.000  H
  H238     1.0000 0.02590  0.98700  0.94630  Biso   1.000  H
  H239     1.0000 0.02590  0.76300  0.80370  Biso   1.000  H
  H240     1.0000 0.72410  0.98700  0.80370  Biso   1.000  H
  H241     1.0000 0.77590  0.73700  0.05370  Biso   1.000  H
  H242     1.0000 0.97410  0.01300  0.05370  Biso   1.000  H
  H243     1.0000 0.97410  0.73700  0.69630  Biso   1.000  H
  H244     1.0000 0.77590  0.01300  0.69630  Biso   1.000  H
  H245     1.0000 0.77590  0.23700  0.55370  Biso   1.000  H
  H246     1.0000 0.97410  0.51300  0.55370  Biso   1.000  H
  H247     1.0000 0.97410  0.23700  0.19630  Biso   1.000  H
  H248     1.0000 0.77590  0.51300  0.19630  Biso   1.000  H
  H249     1.0000 0.27590  0.73700  0.55370  Biso   1.000  H
  H250     1.0000 0.47410  0.01300  0.55370  Biso   1.000  H
  H251     1.0000 0.47410  0.73700  0.19630  Biso   1.000  H
  H252     1.0000 0.27590  0.01300  0.19630  Biso   1.000  H
  H253     1.0000 0.27590  0.23700  0.05370  Biso   1.000  H
  H254     1.0000 0.47410  0.51300  0.05370  Biso   1.000  H
  H255     1.0000 0.47410  0.23700  0.69630  Biso   1.000  H
  H256     1.0000 0.27590  0.51300  0.69630  Biso   1.000  H
  H257     1.0000 0.21290  0.18130  0.97720  Biso   1.000  H
  H258     1.0000 0.53710  0.56870  0.97720  Biso   1.000  H
  H259     1.0000 0.53710  0.18130  0.77280  Biso   1.000  H
  H260     1.0000 0.21290  0.56870  0.77280  Biso   1.000  H
  H261     1.0000 0.21290  0.68130  0.47720  Biso   1.000  H
  H262     1.0000 0.53710  0.06870  0.47720  Biso   1.000  H
  H263     1.0000 0.53710  0.68130  0.27280  Biso   1.000  H
  H264     1.0000 0.21290  0.06870  0.27280  Biso   1.000  H
  H265     1.0000 0.71290  0.18130  0.47720  Biso   1.000  H
  H266     1.0000 0.03710  0.56870  0.47720  Biso   1.000  H
  H267     1.0000 0.03710  0.18130  0.27280  Biso   1.000  H
  H268     1.0000 0.71290  0.56870  0.27280  Biso   1.000  H
  H269     1.0000 0.71290  0.68130  0.97720  Biso   1.000  H
  H270     1.0000 0.03710  0.06870  0.97720  Biso   1.000  H
  H271     1.0000 0.03710  0.68130  0.77280  Biso   1.000  H
  H272     1.0000 0.71290  0.06870  0.77280  Biso   1.000  H
  H273     1.0000 0.78710  0.81870  0.02280  Biso   1.000  H
  H274     1.0000 0.96290  0.93130  0.02280  Biso   1.000  H
  H275     1.0000 0.96290  0.81870  0.72720  Biso   1.000  H
  H276     1.0000 0.78710  0.93130  0.72720  Biso   1.000  H
  H277     1.0000 0.78710  0.31870  0.52280  Biso   1.000  H
  H278     1.0000 0.96290  0.43130  0.52280  Biso   1.000  H
  H279     1.0000 0.96290  0.31870  0.22720  Biso   1.000  H
  H280     1.0000 0.78710  0.43130  0.22720  Biso   1.000  H
  H281     1.0000 0.28710  0.81870  0.52280  Biso   1.000  H
  H282     1.0000 0.46290  0.93130  0.52280  Biso   1.000  H
  H283     1.0000 0.46290  0.81870  0.22720  Biso   1.000  H
  H284     1.0000 0.28710  0.93130  0.22720  Biso   1.000  H
  H285     1.0000 0.28710  0.31870  0.02280  Biso   1.000  H
  H286     1.0000 0.46290  0.43130  0.02280  Biso   1.000  H
  H287     1.0000 0.46290  0.31870  0.72720  Biso   1.000  H
  H288     1.0000 0.28710  0.43130  0.72720  Biso   1.000  H
