data_image0
_cell_length_a       13.052
_cell_length_b       17.251
_cell_length_c       25.21
_cell_angle_alpha    90
_cell_angle_beta     90
_cell_angle_gamma    90

_symmetry_space_group_name_H-M    "P 1"
_symmetry_int_tables_number       1

loop_
  _symmetry_equiv_pos_as_xyz
  'x, y, z'

loop_
  _atom_site_label
  _atom_site_occupancy
  _atom_site_fract_x
  _atom_site_fract_y
  _atom_site_fract_z
  _atom_site_thermal_displace_type
  _atom_site_B_iso_or_equiv
  _atom_site_type_symbol
  Cu1      1.0000 0.62500  0.12500  0.12500  Biso   1.000  Cu
  Cu2      1.0000 0.62500  0.62500  0.62500  Biso   1.000  Cu
  Cu3      1.0000 0.12500  0.12500  0.62500  Biso   1.000  Cu
  Cu4      1.0000 0.12500  0.62500  0.12500  Biso   1.000  Cu
  Cu5      1.0000 0.37500  0.87500  0.87500  Biso   1.000  Cu
  Cu6      1.0000 0.87500  0.37500  0.87500  Biso   1.000  Cu
  Cu7      1.0000 0.37500  0.37500  0.37500  Biso   1.000  Cu
  Cu8      1.0000 0.87500  0.87500  0.37500  Biso   1.000  Cu
  O1       1.0000 0.62500  0.26501  0.12500  Biso   1.000  O
  O2       1.0000 0.62500  0.98499  0.12500  Biso   1.000  O
  O3       1.0000 0.62500  0.76501  0.62500  Biso   1.000  O
  O4       1.0000 0.62500  0.48499  0.62500  Biso   1.000  O
  O5       1.0000 0.12500  0.26501  0.62500  Biso   1.000  O
  O6       1.0000 0.12500  0.98499  0.62500  Biso   1.000  O
  O7       1.0000 0.12500  0.76501  0.12500  Biso   1.000  O
  O8       1.0000 0.12500  0.48499  0.12500  Biso   1.000  O
  O9       1.0000 0.37500  0.73499  0.87500  Biso   1.000  O
  O10      1.0000 0.87500  0.51501  0.87500  Biso   1.000  O
  O11      1.0000 0.37500  0.51501  0.37500  Biso   1.000  O
  O12      1.0000 0.87500  0.73499  0.37500  Biso   1.000  O
  O13      1.0000 0.37500  0.23499  0.37500  Biso   1.000  O
  O14      1.0000 0.87500  0.01501  0.37500  Biso   1.000  O
  O15      1.0000 0.37500  0.01501  0.87500  Biso   1.000  O
  O16      1.0000 0.87500  0.23499  0.87500  Biso   1.000  O
  H1       1.0000 0.67100  0.28750  0.12840  Biso   1.000  H
  H2       1.0000 0.57900  0.96250  0.12840  Biso   1.000  H
  H3       1.0000 0.67100  0.96250  0.12160  Biso   1.000  H
  H4       1.0000 0.57900  0.28750  0.12160  Biso   1.000  H
  H5       1.0000 0.67100  0.78750  0.62840  Biso   1.000  H
  H6       1.0000 0.57900  0.46250  0.62840  Biso   1.000  H
  H7       1.0000 0.67100  0.46250  0.62160  Biso   1.000  H
  H8       1.0000 0.57900  0.78750  0.62160  Biso   1.000  H
  H9       1.0000 0.17100  0.28750  0.62840  Biso   1.000  H
  H10      1.0000 0.07900  0.96250  0.62840  Biso   1.000  H
  H11      1.0000 0.17100  0.96250  0.62160  Biso   1.000  H
  H12      1.0000 0.07900  0.28750  0.62160  Biso   1.000  H
  H13      1.0000 0.17100  0.78750  0.12840  Biso   1.000  H
  H14      1.0000 0.07900  0.46250  0.12840  Biso   1.000  H
  H15      1.0000 0.17100  0.46250  0.12160  Biso   1.000  H
  H16      1.0000 0.07900  0.78750  0.12160  Biso   1.000  H
  H17      1.0000 0.32900  0.71250  0.87160  Biso   1.000  H
  H18      1.0000 0.92100  0.53750  0.87160  Biso   1.000  H
  H19      1.0000 0.32900  0.53750  0.37840  Biso   1.000  H
  H20      1.0000 0.92100  0.71250  0.37840  Biso   1.000  H
  H21      1.0000 0.32900  0.21250  0.37160  Biso   1.000  H
  H22      1.0000 0.92100  0.03750  0.37160  Biso   1.000  H
  H23      1.0000 0.32900  0.03750  0.87840  Biso   1.000  H
  H24      1.0000 0.92100  0.21250  0.87840  Biso   1.000  H
  H25      1.0000 0.82900  0.71250  0.37160  Biso   1.000  H
  H26      1.0000 0.42100  0.53750  0.37160  Biso   1.000  H
  H27      1.0000 0.82900  0.53750  0.87840  Biso   1.000  H
  H28      1.0000 0.42100  0.71250  0.87840  Biso   1.000  H
  H29      1.0000 0.82900  0.21250  0.87160  Biso   1.000  H
  H30      1.0000 0.42100  0.03750  0.87160  Biso   1.000  H
  H31      1.0000 0.82900  0.03750  0.37840  Biso   1.000  H
  H32      1.0000 0.42100  0.21250  0.37840  Biso   1.000  H
  N1       1.0000 0.51628  0.12758  0.06845  Biso   1.000  N
  N2       1.0000 0.73372  0.12242  0.06845  Biso   1.000  N
  N3       1.0000 0.51628  0.12242  0.18155  Biso   1.000  N
  N4       1.0000 0.73372  0.12758  0.18155  Biso   1.000  N
  N5       1.0000 0.51628  0.62758  0.56845  Biso   1.000  N
  N6       1.0000 0.73372  0.62242  0.56845  Biso   1.000  N
  N7       1.0000 0.51628  0.62242  0.68155  Biso   1.000  N
  N8       1.0000 0.73372  0.62758  0.68155  Biso   1.000  N
  N9       1.0000 0.01628  0.12758  0.56845  Biso   1.000  N
  N10      1.0000 0.23372  0.12242  0.56845  Biso   1.000  N
  N11      1.0000 0.01628  0.12242  0.68155  Biso   1.000  N
  N12      1.0000 0.23372  0.12758  0.68155  Biso   1.000  N
  N13      1.0000 0.01628  0.62758  0.06845  Biso   1.000  N
  N14      1.0000 0.23372  0.62242  0.06845  Biso   1.000  N
  N15      1.0000 0.01628  0.62242  0.18155  Biso   1.000  N
  N16      1.0000 0.23372  0.62758  0.18155  Biso   1.000  N
  N17      1.0000 0.48372  0.87242  0.93155  Biso   1.000  N
  N18      1.0000 0.76628  0.37758  0.93155  Biso   1.000  N
  N19      1.0000 0.48372  0.37758  0.31845  Biso   1.000  N
  N20      1.0000 0.76628  0.87242  0.31845  Biso   1.000  N
  N21      1.0000 0.48372  0.37242  0.43155  Biso   1.000  N
  N22      1.0000 0.76628  0.87758  0.43155  Biso   1.000  N
  N23      1.0000 0.48372  0.87758  0.81845  Biso   1.000  N
  N24      1.0000 0.76628  0.37242  0.81845  Biso   1.000  N
  N25      1.0000 0.98372  0.87242  0.43155  Biso   1.000  N
  N26      1.0000 0.26628  0.37758  0.43155  Biso   1.000  N
  N27      1.0000 0.98372  0.37758  0.81845  Biso   1.000  N
  N28      1.0000 0.26628  0.87242  0.81845  Biso   1.000  N
  N29      1.0000 0.98372  0.37242  0.93155  Biso   1.000  N
  N30      1.0000 0.26628  0.87758  0.93155  Biso   1.000  N
  N31      1.0000 0.98372  0.87758  0.31845  Biso   1.000  N
  N32      1.0000 0.26628  0.37242  0.31845  Biso   1.000  N
  N33      1.0000 0.41876  0.16428  0.00352  Biso   1.000  N
  N34      1.0000 0.83124  0.08572  0.00352  Biso   1.000  N
  N35      1.0000 0.41876  0.08572  0.24648  Biso   1.000  N
  N36      1.0000 0.83124  0.16428  0.24648  Biso   1.000  N
  N37      1.0000 0.41876  0.66428  0.50352  Biso   1.000  N
  N38      1.0000 0.83124  0.58572  0.50352  Biso   1.000  N
  N39      1.0000 0.41876  0.58572  0.74648  Biso   1.000  N
  N40      1.0000 0.83124  0.66428  0.74648  Biso   1.000  N
  N41      1.0000 0.91876  0.16428  0.50352  Biso   1.000  N
  N42      1.0000 0.33124  0.08572  0.50352  Biso   1.000  N
  N43      1.0000 0.91876  0.08572  0.74648  Biso   1.000  N
  N44      1.0000 0.33124  0.16428  0.74648  Biso   1.000  N
  N45      1.0000 0.91876  0.66428  0.00352  Biso   1.000  N
  N46      1.0000 0.33124  0.58572  0.00352  Biso   1.000  N
  N47      1.0000 0.91876  0.58572  0.24648  Biso   1.000  N
  N48      1.0000 0.33124  0.66428  0.24648  Biso   1.000  N
  N49      1.0000 0.58124  0.83572  0.99648  Biso   1.000  N
  N50      1.0000 0.66876  0.41428  0.99648  Biso   1.000  N
  N51      1.0000 0.58124  0.41428  0.25352  Biso   1.000  N
  N52      1.0000 0.66876  0.83572  0.25352  Biso   1.000  N
  N53      1.0000 0.58124  0.33572  0.49648  Biso   1.000  N
  N54      1.0000 0.66876  0.91428  0.49648  Biso   1.000  N
  N55      1.0000 0.58124  0.91428  0.75352  Biso   1.000  N
  N56      1.0000 0.66876  0.33572  0.75352  Biso   1.000  N
  N57      1.0000 0.08124  0.83572  0.49648  Biso   1.000  N
  N58      1.0000 0.16876  0.41428  0.49648  Biso   1.000  N
  N59      1.0000 0.08124  0.41428  0.75352  Biso   1.000  N
  N60      1.0000 0.16876  0.83572  0.75352  Biso   1.000  N
  N61      1.0000 0.08124  0.33572  0.99648  Biso   1.000  N
  N62      1.0000 0.16876  0.91428  0.99648  Biso   1.000  N
  N63      1.0000 0.08124  0.91428  0.25352  Biso   1.000  N
  N64      1.0000 0.16876  0.33572  0.25352  Biso   1.000  N
  C1       1.0000 0.44073  0.07559  0.05873  Biso   1.000  C
  C2       1.0000 0.80927  0.17441  0.05873  Biso   1.000  C
  C3       1.0000 0.44073  0.17441  0.19127  Biso   1.000  C
  C4       1.0000 0.80927  0.07559  0.19127  Biso   1.000  C
  C5       1.0000 0.44073  0.57559  0.55873  Biso   1.000  C
  C6       1.0000 0.80927  0.67441  0.55873  Biso   1.000  C
  C7       1.0000 0.44073  0.67441  0.69127  Biso   1.000  C
  C8       1.0000 0.80927  0.57559  0.69127  Biso   1.000  C
  C9       1.0000 0.94073  0.07559  0.55873  Biso   1.000  C
  C10      1.0000 0.30927  0.17441  0.55873  Biso   1.000  C
  C11      1.0000 0.94073  0.17441  0.69127  Biso   1.000  C
  C12      1.0000 0.30927  0.07559  0.69127  Biso   1.000  C
  C13      1.0000 0.94073  0.57559  0.05873  Biso   1.000  C
  C14      1.0000 0.30927  0.67441  0.05873  Biso   1.000  C
  C15      1.0000 0.94073  0.67441  0.19127  Biso   1.000  C
  C16      1.0000 0.30927  0.57559  0.19127  Biso   1.000  C
  C17      1.0000 0.55927  0.92441  0.94127  Biso   1.000  C
  C18      1.0000 0.69073  0.32559  0.94127  Biso   1.000  C
  C19      1.0000 0.55927  0.32559  0.30873  Biso   1.000  C
  C20      1.0000 0.69073  0.92441  0.30873  Biso   1.000  C
  C21      1.0000 0.55927  0.42441  0.44127  Biso   1.000  C
  C22      1.0000 0.69073  0.82559  0.44127  Biso   1.000  C
  C23      1.0000 0.55927  0.82559  0.80873  Biso   1.000  C
  C24      1.0000 0.69073  0.42441  0.80873  Biso   1.000  C
  C25      1.0000 0.05927  0.92441  0.44127  Biso   1.000  C
  C26      1.0000 0.19073  0.32559  0.44127  Biso   1.000  C
  C27      1.0000 0.05927  0.32559  0.80873  Biso   1.000  C
  C28      1.0000 0.19073  0.92441  0.80873  Biso   1.000  C
  C29      1.0000 0.05927  0.42441  0.94127  Biso   1.000  C
  C30      1.0000 0.19073  0.82559  0.94127  Biso   1.000  C
  C31      1.0000 0.05927  0.82559  0.30873  Biso   1.000  C
  C32      1.0000 0.19073  0.42441  0.30873  Biso   1.000  C
  H33      1.0000 0.43280  0.02900  0.07840  Biso   1.000  H
  H34      1.0000 0.81720  0.22100  0.07840  Biso   1.000  H
  H35      1.0000 0.43280  0.22100  0.17160  Biso   1.000  H
  H36      1.0000 0.81720  0.02900  0.17160  Biso   1.000  H
  H37      1.0000 0.43280  0.52900  0.57840  Biso   1.000  H
  H38      1.0000 0.81720  0.72100  0.57840  Biso   1.000  H
  H39      1.0000 0.43280  0.72100  0.67160  Biso   1.000  H
  H40      1.0000 0.81720  0.52900  0.67160  Biso   1.000  H
  H41      1.0000 0.93280  0.02900  0.57840  Biso   1.000  H
  H42      1.0000 0.31720  0.22100  0.57840  Biso   1.000  H
  H43      1.0000 0.93280  0.22100  0.67160  Biso   1.000  H
  H44      1.0000 0.31720  0.02900  0.67160  Biso   1.000  H
  H45      1.0000 0.93280  0.52900  0.07840  Biso   1.000  H
  H46      1.0000 0.31720  0.72100  0.07840  Biso   1.000  H
  H47      1.0000 0.93280  0.72100  0.17160  Biso   1.000  H
  H48      1.0000 0.31720  0.52900  0.17160  Biso   1.000  H
  H49      1.0000 0.56720  0.97100  0.92160  Biso   1.000  H
  H50      1.0000 0.68280  0.27900  0.92160  Biso   1.000  H
  H51      1.0000 0.56720  0.27900  0.32840  Biso   1.000  H
  H52      1.0000 0.68280  0.97100  0.32840  Biso   1.000  H
  H53      1.0000 0.56720  0.47100  0.42160  Biso   1.000  H
  H54      1.0000 0.68280  0.77900  0.42160  Biso   1.000  H
  H55      1.0000 0.56720  0.77900  0.82840  Biso   1.000  H
  H56      1.0000 0.68280  0.47100  0.82840  Biso   1.000  H
  H57      1.0000 0.06720  0.97100  0.42160  Biso   1.000  H
  H58      1.0000 0.18280  0.27900  0.42160  Biso   1.000  H
  H59      1.0000 0.06720  0.27900  0.82840  Biso   1.000  H
  H60      1.0000 0.18280  0.97100  0.82840  Biso   1.000  H
  H61      1.0000 0.06720  0.47100  0.92160  Biso   1.000  H
  H62      1.0000 0.18280  0.77900  0.92160  Biso   1.000  H
  H63      1.0000 0.06720  0.77900  0.32840  Biso   1.000  H
  H64      1.0000 0.18280  0.47100  0.32840  Biso   1.000  H
  N65      1.0000 0.37958  0.09534  0.01967  Biso   1.000  N
  N66      1.0000 0.87042  0.15466  0.01967  Biso   1.000  N
  N67      1.0000 0.37958  0.15466  0.23033  Biso   1.000  N
  N68      1.0000 0.87042  0.09534  0.23033  Biso   1.000  N
  N69      1.0000 0.37958  0.59534  0.51967  Biso   1.000  N
  N70      1.0000 0.87042  0.65466  0.51967  Biso   1.000  N
  N71      1.0000 0.37958  0.65466  0.73033  Biso   1.000  N
  N72      1.0000 0.87042  0.59534  0.73033  Biso   1.000  N
  N73      1.0000 0.87958  0.09534  0.51967  Biso   1.000  N
  N74      1.0000 0.37042  0.15466  0.51967  Biso   1.000  N
  N75      1.0000 0.87958  0.15466  0.73033  Biso   1.000  N
  N76      1.0000 0.37042  0.09534  0.73033  Biso   1.000  N
  N77      1.0000 0.87958  0.59534  0.01967  Biso   1.000  N
  N78      1.0000 0.37042  0.65466  0.01967  Biso   1.000  N
  N79      1.0000 0.87958  0.65466  0.23033  Biso   1.000  N
  N80      1.0000 0.37042  0.59534  0.23033  Biso   1.000  N
  N81      1.0000 0.62042  0.90466  0.98033  Biso   1.000  N
  N82      1.0000 0.62958  0.34534  0.98033  Biso   1.000  N
  N83      1.0000 0.62042  0.34534  0.26967  Biso   1.000  N
  N84      1.0000 0.62958  0.90466  0.26967  Biso   1.000  N
  N85      1.0000 0.62042  0.40466  0.48033  Biso   1.000  N
  N86      1.0000 0.62958  0.84534  0.48033  Biso   1.000  N
  N87      1.0000 0.62042  0.84534  0.76967  Biso   1.000  N
  N88      1.0000 0.62958  0.40466  0.76967  Biso   1.000  N
  N89      1.0000 0.12042  0.90466  0.48033  Biso   1.000  N
  N90      1.0000 0.12958  0.34534  0.48033  Biso   1.000  N
  N91      1.0000 0.12042  0.34534  0.76967  Biso   1.000  N
  N92      1.0000 0.12958  0.90466  0.76967  Biso   1.000  N
  N93      1.0000 0.12042  0.40466  0.98033  Biso   1.000  N
  N94      1.0000 0.12958  0.84534  0.98033  Biso   1.000  N
  N95      1.0000 0.12042  0.84534  0.26967  Biso   1.000  N
  N96      1.0000 0.12958  0.40466  0.26967  Biso   1.000  N
  C33      1.0000 0.49994  0.18247  0.03263  Biso   1.000  C
  C34      1.0000 0.75006  0.06753  0.03263  Biso   1.000  C
  C35      1.0000 0.49994  0.06753  0.21737  Biso   1.000  C
  C36      1.0000 0.75006  0.18247  0.21737  Biso   1.000  C
  C37      1.0000 0.49994  0.68247  0.53263  Biso   1.000  C
  C38      1.0000 0.75006  0.56753  0.53263  Biso   1.000  C
  C39      1.0000 0.49994  0.56753  0.71737  Biso   1.000  C
  C40      1.0000 0.75006  0.68247  0.71737  Biso   1.000  C
  C41      1.0000 0.99994  0.18247  0.53263  Biso   1.000  C
  C42      1.0000 0.25006  0.06753  0.53263  Biso   1.000  C
  C43      1.0000 0.99994  0.06753  0.71737  Biso   1.000  C
  C44      1.0000 0.25006  0.18247  0.71737  Biso   1.000  C
  C45      1.0000 0.99994  0.68247  0.03263  Biso   1.000  C
  C46      1.0000 0.25006  0.56753  0.03263  Biso   1.000  C
  C47      1.0000 0.99994  0.56753  0.21737  Biso   1.000  C
  C48      1.0000 0.25006  0.68247  0.21737  Biso   1.000  C
  C49      1.0000 0.50006  0.81753  0.96737  Biso   1.000  C
  C50      1.0000 0.74994  0.43247  0.96737  Biso   1.000  C
  C51      1.0000 0.50006  0.43247  0.28263  Biso   1.000  C
  C52      1.0000 0.74994  0.81753  0.28263  Biso   1.000  C
  C53      1.0000 0.50006  0.31753  0.46737  Biso   1.000  C
  C54      1.0000 0.74994  0.93247  0.46737  Biso   1.000  C
  C55      1.0000 0.50006  0.93247  0.78263  Biso   1.000  C
  C56      1.0000 0.74994  0.31753  0.78263  Biso   1.000  C
  C57      1.0000 0.00006  0.81753  0.46737  Biso   1.000  C
  C58      1.0000 0.24994  0.43247  0.46737  Biso   1.000  C
  C59      1.0000 0.00006  0.43247  0.78263  Biso   1.000  C
  C60      1.0000 0.24994  0.81753  0.78263  Biso   1.000  C
  C61      1.0000 0.00006  0.31753  0.96737  Biso   1.000  C
  C62      1.0000 0.24994  0.93247  0.96737  Biso   1.000  C
  C63      1.0000 0.00006  0.93247  0.28263  Biso   1.000  C
  C64      1.0000 0.24994  0.31753  0.28263  Biso   1.000  C
  H65      1.0000 0.54020  0.22790  0.02850  Biso   1.000  H
  H66      1.0000 0.70980  0.02210  0.02850  Biso   1.000  H
  H67      1.0000 0.54020  0.02210  0.22150  Biso   1.000  H
  H68      1.0000 0.70980  0.22790  0.22150  Biso   1.000  H
  H69      1.0000 0.54020  0.72790  0.52850  Biso   1.000  H
  H70      1.0000 0.70980  0.52210  0.52850  Biso   1.000  H
  H71      1.0000 0.54020  0.52210  0.72150  Biso   1.000  H
  H72      1.0000 0.70980  0.72790  0.72150  Biso   1.000  H
  H73      1.0000 0.04020  0.22790  0.52850  Biso   1.000  H
  H74      1.0000 0.20980  0.02210  0.52850  Biso   1.000  H
  H75      1.0000 0.04020  0.02210  0.72150  Biso   1.000  H
  H76      1.0000 0.20980  0.22790  0.72150  Biso   1.000  H
  H77      1.0000 0.04020  0.72790  0.02850  Biso   1.000  H
  H78      1.0000 0.20980  0.52210  0.02850  Biso   1.000  H
  H79      1.0000 0.04020  0.52210  0.22150  Biso   1.000  H
  H80      1.0000 0.20980  0.72790  0.22150  Biso   1.000  H
  H81      1.0000 0.45980  0.77210  0.97150  Biso   1.000  H
  H82      1.0000 0.79020  0.47790  0.97150  Biso   1.000  H
  H83      1.0000 0.45980  0.47790  0.27850  Biso   1.000  H
  H84      1.0000 0.79020  0.77210  0.27850  Biso   1.000  H
  H85      1.0000 0.45980  0.27210  0.47150  Biso   1.000  H
  H86      1.0000 0.79020  0.97790  0.47150  Biso   1.000  H
  H87      1.0000 0.45980  0.97790  0.77850  Biso   1.000  H
  H88      1.0000 0.79020  0.27210  0.77850  Biso   1.000  H
  H89      1.0000 0.95980  0.77210  0.47150  Biso   1.000  H
  H90      1.0000 0.29020  0.47790  0.47150  Biso   1.000  H
  H91      1.0000 0.95980  0.47790  0.77850  Biso   1.000  H
  H92      1.0000 0.29020  0.77210  0.77850  Biso   1.000  H
  H93      1.0000 0.95980  0.27210  0.97150  Biso   1.000  H
  H94      1.0000 0.29020  0.97790  0.97150  Biso   1.000  H
  H95      1.0000 0.95980  0.97790  0.27850  Biso   1.000  H
  H96      1.0000 0.29020  0.27210  0.27850  Biso   1.000  H
  C65      1.0000 0.36933  0.21033  0.96184  Biso   1.000  C
  C66      1.0000 0.88067  0.03967  0.96184  Biso   1.000  C
  C67      1.0000 0.36933  0.03967  0.28816  Biso   1.000  C
  C68      1.0000 0.88067  0.21033  0.28816  Biso   1.000  C
  C69      1.0000 0.36933  0.71033  0.46184  Biso   1.000  C
  C70      1.0000 0.88067  0.53967  0.46184  Biso   1.000  C
  C71      1.0000 0.36933  0.53967  0.78816  Biso   1.000  C
  C72      1.0000 0.88067  0.71033  0.78816  Biso   1.000  C
  C73      1.0000 0.86933  0.21033  0.46184  Biso   1.000  C
  C74      1.0000 0.38067  0.03967  0.46184  Biso   1.000  C
  C75      1.0000 0.86933  0.03967  0.78816  Biso   1.000  C
  C76      1.0000 0.38067  0.21033  0.78816  Biso   1.000  C
  C77      1.0000 0.86933  0.71033  0.96184  Biso   1.000  C
  C78      1.0000 0.38067  0.53967  0.96184  Biso   1.000  C
  C79      1.0000 0.86933  0.53967  0.28816  Biso   1.000  C
  C80      1.0000 0.38067  0.71033  0.28816  Biso   1.000  C
  C81      1.0000 0.63067  0.78967  0.03816  Biso   1.000  C
  C82      1.0000 0.61933  0.46033  0.03816  Biso   1.000  C
  C83      1.0000 0.63067  0.46033  0.21184  Biso   1.000  C
  C84      1.0000 0.61933  0.78967  0.21184  Biso   1.000  C
  C85      1.0000 0.63067  0.28967  0.53816  Biso   1.000  C
  C86      1.0000 0.61933  0.96033  0.53816  Biso   1.000  C
  C87      1.0000 0.63067  0.96033  0.71184  Biso   1.000  C
  C88      1.0000 0.61933  0.28967  0.71184  Biso   1.000  C
  C89      1.0000 0.13067  0.78967  0.53816  Biso   1.000  C
  C90      1.0000 0.11933  0.46033  0.53816  Biso   1.000  C
  C91      1.0000 0.13067  0.46033  0.71184  Biso   1.000  C
  C92      1.0000 0.11933  0.78967  0.71184  Biso   1.000  C
  C93      1.0000 0.13067  0.28967  0.03816  Biso   1.000  C
  C94      1.0000 0.11933  0.96033  0.03816  Biso   1.000  C
  C95      1.0000 0.13067  0.96033  0.21184  Biso   1.000  C
  C96      1.0000 0.11933  0.28967  0.21184  Biso   1.000  C
  H97      1.0000 0.33280  0.17520  0.93720  Biso   1.000  H
  H98      1.0000 0.91720  0.07480  0.93720  Biso   1.000  H
  H99      1.0000 0.33280  0.07480  0.31280  Biso   1.000  H
  H100     1.0000 0.91720  0.17520  0.31280  Biso   1.000  H
  H101     1.0000 0.33280  0.67520  0.43720  Biso   1.000  H
  H102     1.0000 0.91720  0.57480  0.43720  Biso   1.000  H
  H103     1.0000 0.33280  0.57480  0.81280  Biso   1.000  H
  H104     1.0000 0.91720  0.67520  0.81280  Biso   1.000  H
  H105     1.0000 0.83280  0.17520  0.43720  Biso   1.000  H
  H106     1.0000 0.41720  0.07480  0.43720  Biso   1.000  H
  H107     1.0000 0.83280  0.07480  0.81280  Biso   1.000  H
  H108     1.0000 0.41720  0.17520  0.81280  Biso   1.000  H
  H109     1.0000 0.83280  0.67520  0.93720  Biso   1.000  H
  H110     1.0000 0.41720  0.57480  0.93720  Biso   1.000  H
  H111     1.0000 0.83280  0.57480  0.31280  Biso   1.000  H
  H112     1.0000 0.41720  0.67520  0.31280  Biso   1.000  H
  H113     1.0000 0.66720  0.82480  0.06280  Biso   1.000  H
  H114     1.0000 0.58280  0.42520  0.06280  Biso   1.000  H
  H115     1.0000 0.66720  0.42520  0.18720  Biso   1.000  H
  H116     1.0000 0.58280  0.82480  0.18720  Biso   1.000  H
  H117     1.0000 0.66720  0.32480  0.56280  Biso   1.000  H
  H118     1.0000 0.58280  0.92520  0.56280  Biso   1.000  H
  H119     1.0000 0.66720  0.92520  0.68720  Biso   1.000  H
  H120     1.0000 0.58280  0.32480  0.68720  Biso   1.000  H
  H121     1.0000 0.16720  0.82480  0.56280  Biso   1.000  H
  H122     1.0000 0.08280  0.42520  0.56280  Biso   1.000  H
  H123     1.0000 0.16720  0.42520  0.68720  Biso   1.000  H
  H124     1.0000 0.08280  0.82480  0.68720  Biso   1.000  H
  H125     1.0000 0.16720  0.32480  0.06280  Biso   1.000  H
  H126     1.0000 0.08280  0.92520  0.06280  Biso   1.000  H
  H127     1.0000 0.16720  0.92520  0.18720  Biso   1.000  H
  H128     1.0000 0.08280  0.32480  0.18720  Biso   1.000  H
  H129     1.0000 0.42240  0.23830  0.94130  Biso   1.000  H
  H130     1.0000 0.82760  0.01170  0.94130  Biso   1.000  H
  H131     1.0000 0.42240  0.01170  0.30870  Biso   1.000  H
  H132     1.0000 0.82760  0.23830  0.30870  Biso   1.000  H
  H133     1.0000 0.42240  0.73830  0.44130  Biso   1.000  H
  H134     1.0000 0.82760  0.51170  0.44130  Biso   1.000  H
  H135     1.0000 0.42240  0.51170  0.80870  Biso   1.000  H
  H136     1.0000 0.82760  0.73830  0.80870  Biso   1.000  H
  H137     1.0000 0.92240  0.23830  0.44130  Biso   1.000  H
  H138     1.0000 0.32760  0.01170  0.44130  Biso   1.000  H
  H139     1.0000 0.92240  0.01170  0.80870  Biso   1.000  H
  H140     1.0000 0.32760  0.23830  0.80870  Biso   1.000  H
  H141     1.0000 0.92240  0.73830  0.94130  Biso   1.000  H
  H142     1.0000 0.32760  0.51170  0.94130  Biso   1.000  H
  H143     1.0000 0.92240  0.51170  0.30870  Biso   1.000  H
  H144     1.0000 0.32760  0.73830  0.30870  Biso   1.000  H
  H145     1.0000 0.57760  0.76170  0.05870  Biso   1.000  H
  H146     1.0000 0.67240  0.48830  0.05870  Biso   1.000  H
  H147     1.0000 0.57760  0.48830  0.19130  Biso   1.000  H
  H148     1.0000 0.67240  0.76170  0.19130  Biso   1.000  H
  H149     1.0000 0.57760  0.26170  0.55870  Biso   1.000  H
  H150     1.0000 0.67240  0.98830  0.55870  Biso   1.000  H
  H151     1.0000 0.57760  0.98830  0.69130  Biso   1.000  H
  H152     1.0000 0.67240  0.26170  0.69130  Biso   1.000  H
  H153     1.0000 0.07760  0.76170  0.55870  Biso   1.000  H
  H154     1.0000 0.17240  0.48830  0.55870  Biso   1.000  H
  H155     1.0000 0.07760  0.48830  0.69130  Biso   1.000  H
  H156     1.0000 0.17240  0.76170  0.69130  Biso   1.000  H
  H157     1.0000 0.07760  0.26170  0.05870  Biso   1.000  H
  H158     1.0000 0.17240  0.98830  0.05870  Biso   1.000  H
  H159     1.0000 0.07760  0.98830  0.19130  Biso   1.000  H
  H160     1.0000 0.17240  0.26170  0.19130  Biso   1.000  H
  C97      1.0000 0.29370  0.26859  0.98491  Biso   1.000  C
  C98      1.0000 0.95630  0.98141  0.98491  Biso   1.000  C
  C99      1.0000 0.29370  0.98141  0.26509  Biso   1.000  C
  C100     1.0000 0.95630  0.26859  0.26509  Biso   1.000  C
  C101     1.0000 0.29370  0.76859  0.48491  Biso   1.000  C
  C102     1.0000 0.95630  0.48141  0.48491  Biso   1.000  C
  C103     1.0000 0.29370  0.48141  0.76509  Biso   1.000  C
  C104     1.0000 0.95630  0.76859  0.76509  Biso   1.000  C
  C105     1.0000 0.79370  0.26859  0.48491  Biso   1.000  C
  C106     1.0000 0.45630  0.98141  0.48491  Biso   1.000  C
  C107     1.0000 0.79370  0.98141  0.76509  Biso   1.000  C
  C108     1.0000 0.45630  0.26859  0.76509  Biso   1.000  C
  C109     1.0000 0.79370  0.76859  0.98491  Biso   1.000  C
  C110     1.0000 0.45630  0.48141  0.98491  Biso   1.000  C
  C111     1.0000 0.79370  0.48141  0.26509  Biso   1.000  C
  C112     1.0000 0.45630  0.76859  0.26509  Biso   1.000  C
  C113     1.0000 0.70630  0.73141  0.01509  Biso   1.000  C
  C114     1.0000 0.54370  0.51859  0.01509  Biso   1.000  C
  C115     1.0000 0.70630  0.51859  0.23491  Biso   1.000  C
  C116     1.0000 0.54370  0.73141  0.23491  Biso   1.000  C
  C117     1.0000 0.70630  0.23141  0.51509  Biso   1.000  C
  C118     1.0000 0.54370  0.01859  0.51509  Biso   1.000  C
  C119     1.0000 0.70630  0.01859  0.73491  Biso   1.000  C
  C120     1.0000 0.54370  0.23141  0.73491  Biso   1.000  C
  C121     1.0000 0.20630  0.73141  0.51509  Biso   1.000  C
  C122     1.0000 0.04370  0.51859  0.51509  Biso   1.000  C
  C123     1.0000 0.20630  0.51859  0.73491  Biso   1.000  C
  C124     1.0000 0.04370  0.73141  0.73491  Biso   1.000  C
  C125     1.0000 0.20630  0.23141  0.01509  Biso   1.000  C
  C126     1.0000 0.04370  0.01859  0.01509  Biso   1.000  C
  C127     1.0000 0.20630  0.01859  0.23491  Biso   1.000  C
  C128     1.0000 0.04370  0.23141  0.23491  Biso   1.000  C
  H161     1.0000 0.33100  0.30400  0.00910  Biso   1.000  H
  H162     1.0000 0.91900  0.94600  0.00910  Biso   1.000  H
  H163     1.0000 0.33100  0.94600  0.24090  Biso   1.000  H
  H164     1.0000 0.91900  0.30400  0.24090  Biso   1.000  H
  H165     1.0000 0.33100  0.80400  0.50910  Biso   1.000  H
  H166     1.0000 0.91900  0.44600  0.50910  Biso   1.000  H
  H167     1.0000 0.33100  0.44600  0.74090  Biso   1.000  H
  H168     1.0000 0.91900  0.80400  0.74090  Biso   1.000  H
  H169     1.0000 0.83100  0.30400  0.50910  Biso   1.000  H
  H170     1.0000 0.41900  0.94600  0.50910  Biso   1.000  H
  H171     1.0000 0.83100  0.94600  0.74090  Biso   1.000  H
  H172     1.0000 0.41900  0.30400  0.74090  Biso   1.000  H
  H173     1.0000 0.83100  0.80400  0.00910  Biso   1.000  H
  H174     1.0000 0.41900  0.44600  0.00910  Biso   1.000  H
  H175     1.0000 0.83100  0.44600  0.24090  Biso   1.000  H
  H176     1.0000 0.41900  0.80400  0.24090  Biso   1.000  H
  H177     1.0000 0.66900  0.69600  0.99090  Biso   1.000  H
  H178     1.0000 0.58100  0.55400  0.99090  Biso   1.000  H
  H179     1.0000 0.66900  0.55400  0.25910  Biso   1.000  H
  H180     1.0000 0.58100  0.69600  0.25910  Biso   1.000  H
  H181     1.0000 0.66900  0.19600  0.49090  Biso   1.000  H
  H182     1.0000 0.58100  0.05400  0.49090  Biso   1.000  H
  H183     1.0000 0.66900  0.05400  0.75910  Biso   1.000  H
  H184     1.0000 0.58100  0.19600  0.75910  Biso   1.000  H
  H185     1.0000 0.16900  0.69600  0.49090  Biso   1.000  H
  H186     1.0000 0.08100  0.55400  0.49090  Biso   1.000  H
  H187     1.0000 0.16900  0.55400  0.75910  Biso   1.000  H
  H188     1.0000 0.08100  0.69600  0.75910  Biso   1.000  H
  H189     1.0000 0.16900  0.19600  0.99090  Biso   1.000  H
  H190     1.0000 0.08100  0.05400  0.99090  Biso   1.000  H
  H191     1.0000 0.16900  0.05400  0.25910  Biso   1.000  H
  H192     1.0000 0.08100  0.19600  0.25910  Biso   1.000  H
  H193     1.0000 0.26510  0.30020  0.95570  Biso   1.000  H
  H194     1.0000 0.98490  0.94980  0.95570  Biso   1.000  H
  H195     1.0000 0.26510  0.94980  0.29430  Biso   1.000  H
  H196     1.0000 0.98490  0.30020  0.29430  Biso   1.000  H
  H197     1.0000 0.26510  0.80020  0.45570  Biso   1.000  H
  H198     1.0000 0.98490  0.44980  0.45570  Biso   1.000  H
  H199     1.0000 0.26510  0.44980  0.79430  Biso   1.000  H
  H200     1.0000 0.98490  0.80020  0.79430  Biso   1.000  H
  H201     1.0000 0.76510  0.30020  0.45570  Biso   1.000  H
  H202     1.0000 0.48490  0.94980  0.45570  Biso   1.000  H
  H203     1.0000 0.76510  0.94980  0.79430  Biso   1.000  H
  H204     1.0000 0.48490  0.30020  0.79430  Biso   1.000  H
  H205     1.0000 0.76510  0.80020  0.95570  Biso   1.000  H
  H206     1.0000 0.48490  0.44980  0.95570  Biso   1.000  H
  H207     1.0000 0.76510  0.44980  0.29430  Biso   1.000  H
  H208     1.0000 0.48490  0.80020  0.29430  Biso   1.000  H
  H209     1.0000 0.73490  0.69980  0.04430  Biso   1.000  H
  H210     1.0000 0.51510  0.55020  0.04430  Biso   1.000  H
  H211     1.0000 0.73490  0.55020  0.20570  Biso   1.000  H
  H212     1.0000 0.51510  0.69980  0.20570  Biso   1.000  H
  H213     1.0000 0.73490  0.19980  0.54430  Biso   1.000  H
  H214     1.0000 0.51510  0.05020  0.54430  Biso   1.000  H
  H215     1.0000 0.73490  0.05020  0.70570  Biso   1.000  H
  H216     1.0000 0.51510  0.19980  0.70570  Biso   1.000  H
  H217     1.0000 0.23490  0.69980  0.54430  Biso   1.000  H
  H218     1.0000 0.01510  0.55020  0.54430  Biso   1.000  H
  H219     1.0000 0.23490  0.55020  0.70570  Biso   1.000  H
  H220     1.0000 0.01510  0.69980  0.70570  Biso   1.000  H
  H221     1.0000 0.23490  0.19980  0.04430  Biso   1.000  H
  H222     1.0000 0.01510  0.05020  0.04430  Biso   1.000  H
  H223     1.0000 0.23490  0.05020  0.20570  Biso   1.000  H
  H224     1.0000 0.01510  0.19980  0.20570  Biso   1.000  H
  B1       1.0000 0.37500  0.37500  0.13058  Biso   1.000  B
  B2       1.0000 0.87500  0.87500  0.13058  Biso   1.000  B
  B3       1.0000 0.37500  0.87500  0.11942  Biso   1.000  B
  B4       1.0000 0.87500  0.37500  0.11942  Biso   1.000  B
  B5       1.0000 0.37500  0.87500  0.63058  Biso   1.000  B
  B6       1.0000 0.87500  0.37500  0.63058  Biso   1.000  B
  B7       1.0000 0.37500  0.37500  0.61942  Biso   1.000  B
  B8       1.0000 0.87500  0.87500  0.61942  Biso   1.000  B
  B9       1.0000 0.62500  0.62500  0.86942  Biso   1.000  B
  B10      1.0000 0.62500  0.62500  0.38058  Biso   1.000  B
  B11      1.0000 0.62500  0.12500  0.36942  Biso   1.000  B
  B12      1.0000 0.62500  0.12500  0.88058  Biso   1.000  B
  B13      1.0000 0.12500  0.62500  0.36942  Biso   1.000  B
  B14      1.0000 0.12500  0.62500  0.88058  Biso   1.000  B
  B15      1.0000 0.12500  0.12500  0.86942  Biso   1.000  B
  B16      1.0000 0.12500  0.12500  0.38058  Biso   1.000  B
  F1       1.0000 0.44280  0.33320  0.10030  Biso   1.000  F
  F2       1.0000 0.80720  0.91680  0.10030  Biso   1.000  F
  F3       1.0000 0.44280  0.91680  0.14970  Biso   1.000  F
  F4       1.0000 0.80720  0.33320  0.14970  Biso   1.000  F
  F5       1.0000 0.44280  0.83320  0.60030  Biso   1.000  F
  F6       1.0000 0.80720  0.41680  0.60030  Biso   1.000  F
  F7       1.0000 0.44280  0.41680  0.64970  Biso   1.000  F
  F8       1.0000 0.80720  0.83320  0.64970  Biso   1.000  F
  F9       1.0000 0.94280  0.33320  0.60030  Biso   1.000  F
  F10      1.0000 0.30720  0.91680  0.60030  Biso   1.000  F
  F11      1.0000 0.94280  0.91680  0.64970  Biso   1.000  F
  F12      1.0000 0.30720  0.33320  0.64970  Biso   1.000  F
  F13      1.0000 0.94280  0.83320  0.10030  Biso   1.000  F
  F14      1.0000 0.30720  0.41680  0.10030  Biso   1.000  F
  F15      1.0000 0.94280  0.41680  0.14970  Biso   1.000  F
  F16      1.0000 0.30720  0.83320  0.14970  Biso   1.000  F
  F17      1.0000 0.55720  0.66680  0.89970  Biso   1.000  F
  F18      1.0000 0.69280  0.58320  0.89970  Biso   1.000  F
  F19      1.0000 0.55720  0.58320  0.35030  Biso   1.000  F
  F20      1.0000 0.69280  0.66680  0.35030  Biso   1.000  F
  F21      1.0000 0.55720  0.16680  0.39970  Biso   1.000  F
  F22      1.0000 0.69280  0.08320  0.39970  Biso   1.000  F
  F23      1.0000 0.55720  0.08320  0.85030  Biso   1.000  F
  F24      1.0000 0.69280  0.16680  0.85030  Biso   1.000  F
  F25      1.0000 0.05720  0.66680  0.39970  Biso   1.000  F
  F26      1.0000 0.19280  0.58320  0.39970  Biso   1.000  F
  F27      1.0000 0.05720  0.58320  0.85030  Biso   1.000  F
  F28      1.0000 0.19280  0.66680  0.85030  Biso   1.000  F
  F29      1.0000 0.05720  0.16680  0.89970  Biso   1.000  F
  F30      1.0000 0.19280  0.08320  0.89970  Biso   1.000  F
  F31      1.0000 0.05720  0.08320  0.35030  Biso   1.000  F
  F32      1.0000 0.19280  0.16680  0.35030  Biso   1.000  F
  F33      1.0000 0.29990  0.30880  0.13580  Biso   1.000  F
  F34      1.0000 0.95010  0.94120  0.13580  Biso   1.000  F
  F35      1.0000 0.29990  0.94120  0.11420  Biso   1.000  F
  F36      1.0000 0.95010  0.30880  0.11420  Biso   1.000  F
  F37      1.0000 0.29990  0.80880  0.63580  Biso   1.000  F
  F38      1.0000 0.95010  0.44120  0.63580  Biso   1.000  F
  F39      1.0000 0.29990  0.44120  0.61420  Biso   1.000  F
  F40      1.0000 0.95010  0.80880  0.61420  Biso   1.000  F
  F41      1.0000 0.79990  0.30880  0.63580  Biso   1.000  F
  F42      1.0000 0.45010  0.94120  0.63580  Biso   1.000  F
  F43      1.0000 0.79990  0.94120  0.61420  Biso   1.000  F
  F44      1.0000 0.45010  0.30880  0.61420  Biso   1.000  F
  F45      1.0000 0.79990  0.80880  0.13580  Biso   1.000  F
  F46      1.0000 0.45010  0.44120  0.13580  Biso   1.000  F
  F47      1.0000 0.79990  0.44120  0.11420  Biso   1.000  F
  F48      1.0000 0.45010  0.80880  0.11420  Biso   1.000  F
  F49      1.0000 0.70010  0.69120  0.86420  Biso   1.000  F
  F50      1.0000 0.54990  0.55880  0.86420  Biso   1.000  F
  F51      1.0000 0.70010  0.55880  0.38580  Biso   1.000  F
  F52      1.0000 0.54990  0.69120  0.38580  Biso   1.000  F
  F53      1.0000 0.70010  0.19120  0.36420  Biso   1.000  F
  F54      1.0000 0.54990  0.05880  0.36420  Biso   1.000  F
  F55      1.0000 0.70010  0.05880  0.88580  Biso   1.000  F
  F56      1.0000 0.54990  0.19120  0.88580  Biso   1.000  F
  F57      1.0000 0.20010  0.69120  0.36420  Biso   1.000  F
  F58      1.0000 0.04990  0.55880  0.36420  Biso   1.000  F
  F59      1.0000 0.20010  0.55880  0.88580  Biso   1.000  F
  F60      1.0000 0.04990  0.69120  0.88580  Biso   1.000  F
  F61      1.0000 0.20010  0.19120  0.86420  Biso   1.000  F
  F62      1.0000 0.04990  0.05880  0.86420  Biso   1.000  F
  F63      1.0000 0.20010  0.05880  0.38580  Biso   1.000  F
  F64      1.0000 0.04990  0.19120  0.38580  Biso   1.000  F
  F65      1.0000 0.33810  0.43220  0.10030  Biso   1.000  F
  F66      1.0000 0.91190  0.81780  0.10030  Biso   1.000  F
  F67      1.0000 0.33810  0.81780  0.14970  Biso   1.000  F
  F68      1.0000 0.91190  0.43220  0.14970  Biso   1.000  F
  F69      1.0000 0.33810  0.93220  0.60030  Biso   1.000  F
  F70      1.0000 0.91190  0.31780  0.60030  Biso   1.000  F
  F71      1.0000 0.33810  0.31780  0.64970  Biso   1.000  F
  F72      1.0000 0.91190  0.93220  0.64970  Biso   1.000  F
  F73      1.0000 0.83810  0.43220  0.60030  Biso   1.000  F
  F74      1.0000 0.41190  0.81780  0.60030  Biso   1.000  F
  F75      1.0000 0.83810  0.81780  0.64970  Biso   1.000  F
  F76      1.0000 0.41190  0.43220  0.64970  Biso   1.000  F
  F77      1.0000 0.83810  0.93220  0.10030  Biso   1.000  F
  F78      1.0000 0.41190  0.31780  0.10030  Biso   1.000  F
  F79      1.0000 0.83810  0.31780  0.14970  Biso   1.000  F
  F80      1.0000 0.41190  0.93220  0.14970  Biso   1.000  F
  F81      1.0000 0.66190  0.56780  0.89970  Biso   1.000  F
  F82      1.0000 0.58810  0.68220  0.89970  Biso   1.000  F
  F83      1.0000 0.66190  0.68220  0.35030  Biso   1.000  F
  F84      1.0000 0.58810  0.56780  0.35030  Biso   1.000  F
  F85      1.0000 0.66190  0.06780  0.39970  Biso   1.000  F
  F86      1.0000 0.58810  0.18220  0.39970  Biso   1.000  F
  F87      1.0000 0.66190  0.18220  0.85030  Biso   1.000  F
  F88      1.0000 0.58810  0.06780  0.85030  Biso   1.000  F
  F89      1.0000 0.16190  0.56780  0.39970  Biso   1.000  F
  F90      1.0000 0.08810  0.68220  0.39970  Biso   1.000  F
  F91      1.0000 0.16190  0.68220  0.85030  Biso   1.000  F
  F92      1.0000 0.08810  0.56780  0.85030  Biso   1.000  F
  F93      1.0000 0.16190  0.06780  0.89970  Biso   1.000  F
  F94      1.0000 0.08810  0.18220  0.89970  Biso   1.000  F
  F95      1.0000 0.16190  0.18220  0.35030  Biso   1.000  F
  F96      1.0000 0.08810  0.06780  0.35030  Biso   1.000  F
  F97      1.0000 0.42790  0.38230  0.17270  Biso   1.000  F
  F98      1.0000 0.82210  0.86770  0.17270  Biso   1.000  F
  F99      1.0000 0.42790  0.86770  0.07730  Biso   1.000  F
  F100     1.0000 0.82210  0.38230  0.07730  Biso   1.000  F
  F101     1.0000 0.42790  0.88230  0.67270  Biso   1.000  F
  F102     1.0000 0.82210  0.36770  0.67270  Biso   1.000  F
  F103     1.0000 0.42790  0.36770  0.57730  Biso   1.000  F
  F104     1.0000 0.82210  0.88230  0.57730  Biso   1.000  F
  F105     1.0000 0.92790  0.38230  0.67270  Biso   1.000  F
  F106     1.0000 0.32210  0.86770  0.67270  Biso   1.000  F
  F107     1.0000 0.92790  0.86770  0.57730  Biso   1.000  F
  F108     1.0000 0.32210  0.38230  0.57730  Biso   1.000  F
  F109     1.0000 0.92790  0.88230  0.17270  Biso   1.000  F
  F110     1.0000 0.32210  0.36770  0.17270  Biso   1.000  F
  F111     1.0000 0.92790  0.36770  0.07730  Biso   1.000  F
  F112     1.0000 0.32210  0.88230  0.07730  Biso   1.000  F
  F113     1.0000 0.57210  0.61770  0.82730  Biso   1.000  F
  F114     1.0000 0.67790  0.63230  0.82730  Biso   1.000  F
  F115     1.0000 0.57210  0.63230  0.42270  Biso   1.000  F
  F116     1.0000 0.67790  0.61770  0.42270  Biso   1.000  F
  F117     1.0000 0.57210  0.11770  0.32730  Biso   1.000  F
  F118     1.0000 0.67790  0.13230  0.32730  Biso   1.000  F
  F119     1.0000 0.57210  0.13230  0.92270  Biso   1.000  F
  F120     1.0000 0.67790  0.11770  0.92270  Biso   1.000  F
  F121     1.0000 0.07210  0.61770  0.32730  Biso   1.000  F
  F122     1.0000 0.17790  0.63230  0.32730  Biso   1.000  F
  F123     1.0000 0.07210  0.63230  0.92270  Biso   1.000  F
  F124     1.0000 0.17790  0.61770  0.92270  Biso   1.000  F
  F125     1.0000 0.07210  0.11770  0.82730  Biso   1.000  F
  F126     1.0000 0.17790  0.13230  0.82730  Biso   1.000  F
  F127     1.0000 0.07210  0.13230  0.42270  Biso   1.000  F
  F128     1.0000 0.17790  0.11770  0.42270  Biso   1.000  F
  C129     1.0000 0.25680  0.22910  0.97580  Biso   1.000  C
  C130     1.0000 0.99320  0.02090  0.97580  Biso   1.000  C
  C131     1.0000 0.25680  0.02090  0.27420  Biso   1.000  C
  C132     1.0000 0.99320  0.22910  0.27420  Biso   1.000  C
  C133     1.0000 0.25680  0.72910  0.47580  Biso   1.000  C
  C134     1.0000 0.99320  0.52090  0.47580  Biso   1.000  C
  C135     1.0000 0.25680  0.52090  0.77420  Biso   1.000  C
  C136     1.0000 0.99320  0.72910  0.77420  Biso   1.000  C
  C137     1.0000 0.75680  0.22910  0.47580  Biso   1.000  C
  C138     1.0000 0.49320  0.02090  0.47580  Biso   1.000  C
  C139     1.0000 0.75680  0.02090  0.77420  Biso   1.000  C
  C140     1.0000 0.49320  0.22910  0.77420  Biso   1.000  C
  C141     1.0000 0.75680  0.72910  0.97580  Biso   1.000  C
  C142     1.0000 0.49320  0.52090  0.97580  Biso   1.000  C
  C143     1.0000 0.75680  0.52090  0.27420  Biso   1.000  C
  C144     1.0000 0.49320  0.72910  0.27420  Biso   1.000  C
  C145     1.0000 0.74320  0.77090  0.02420  Biso   1.000  C
  C146     1.0000 0.50680  0.47910  0.02420  Biso   1.000  C
  C147     1.0000 0.74320  0.47910  0.22580  Biso   1.000  C
  C148     1.0000 0.50680  0.77090  0.22580  Biso   1.000  C
  C149     1.0000 0.74320  0.27090  0.52420  Biso   1.000  C
  C150     1.0000 0.50680  0.97910  0.52420  Biso   1.000  C
  C151     1.0000 0.74320  0.97910  0.72580  Biso   1.000  C
  C152     1.0000 0.50680  0.27090  0.72580  Biso   1.000  C
  C153     1.0000 0.24320  0.77090  0.52420  Biso   1.000  C
  C154     1.0000 0.00680  0.47910  0.52420  Biso   1.000  C
  C155     1.0000 0.24320  0.47910  0.72580  Biso   1.000  C
  C156     1.0000 0.00680  0.77090  0.72580  Biso   1.000  C
  C157     1.0000 0.24320  0.27090  0.02420  Biso   1.000  C
  C158     1.0000 0.00680  0.97910  0.02420  Biso   1.000  C
  C159     1.0000 0.24320  0.97910  0.22580  Biso   1.000  C
  C160     1.0000 0.00680  0.27090  0.22580  Biso   1.000  C
  F129     1.0000 0.37500  0.37500  0.18390  Biso   1.000  F
  F130     1.0000 0.87500  0.87500  0.18390  Biso   1.000  F
  F131     1.0000 0.37500  0.87500  0.06610  Biso   1.000  F
  F132     1.0000 0.87500  0.37500  0.06610  Biso   1.000  F
  F133     1.0000 0.37500  0.87500  0.68390  Biso   1.000  F
  F134     1.0000 0.87500  0.37500  0.68390  Biso   1.000  F
  F135     1.0000 0.37500  0.37500  0.56610  Biso   1.000  F
  F136     1.0000 0.87500  0.87500  0.56610  Biso   1.000  F
  F137     1.0000 0.62500  0.62500  0.81610  Biso   1.000  F
  F138     1.0000 0.62500  0.62500  0.43390  Biso   1.000  F
  F139     1.0000 0.62500  0.12500  0.31610  Biso   1.000  F
  F140     1.0000 0.62500  0.12500  0.93390  Biso   1.000  F
  F141     1.0000 0.12500  0.62500  0.31610  Biso   1.000  F
  F142     1.0000 0.12500  0.62500  0.93390  Biso   1.000  F
  F143     1.0000 0.12500  0.12500  0.81610  Biso   1.000  F
  F144     1.0000 0.12500  0.12500  0.43390  Biso   1.000  F
  F145     1.0000 0.28090  0.37930  0.12510  Biso   1.000  F
  F146     1.0000 0.96910  0.87070  0.12510  Biso   1.000  F
  F147     1.0000 0.28090  0.87070  0.12490  Biso   1.000  F
  F148     1.0000 0.96910  0.37930  0.12490  Biso   1.000  F
  F149     1.0000 0.28090  0.87930  0.62510  Biso   1.000  F
  F150     1.0000 0.96910  0.37070  0.62510  Biso   1.000  F
  F151     1.0000 0.28090  0.37070  0.62490  Biso   1.000  F
  F152     1.0000 0.96910  0.87930  0.62490  Biso   1.000  F
  F153     1.0000 0.78090  0.37930  0.62510  Biso   1.000  F
  F154     1.0000 0.46910  0.87070  0.62510  Biso   1.000  F
  F155     1.0000 0.78090  0.87070  0.62490  Biso   1.000  F
  F156     1.0000 0.46910  0.37930  0.62490  Biso   1.000  F
  F157     1.0000 0.78090  0.87930  0.12510  Biso   1.000  F
  F158     1.0000 0.46910  0.37070  0.12510  Biso   1.000  F
  F159     1.0000 0.78090  0.37070  0.12490  Biso   1.000  F
  F160     1.0000 0.46910  0.87930  0.12490  Biso   1.000  F
  F161     1.0000 0.71910  0.62070  0.87490  Biso   1.000  F
  F162     1.0000 0.53090  0.62930  0.87490  Biso   1.000  F
  F163     1.0000 0.71910  0.62930  0.37510  Biso   1.000  F
  F164     1.0000 0.53090  0.62070  0.37510  Biso   1.000  F
  F165     1.0000 0.71910  0.12070  0.37490  Biso   1.000  F
  F166     1.0000 0.53090  0.12930  0.37490  Biso   1.000  F
  F167     1.0000 0.71910  0.12930  0.87510  Biso   1.000  F
  F168     1.0000 0.53090  0.12070  0.87510  Biso   1.000  F
  F169     1.0000 0.21910  0.62070  0.37490  Biso   1.000  F
  F170     1.0000 0.03090  0.62930  0.37490  Biso   1.000  F
  F171     1.0000 0.21910  0.62930  0.87510  Biso   1.000  F
  F172     1.0000 0.03090  0.62070  0.87510  Biso   1.000  F
  F173     1.0000 0.21910  0.12070  0.87490  Biso   1.000  F
  F174     1.0000 0.03090  0.12930  0.87490  Biso   1.000  F
  F175     1.0000 0.21910  0.12930  0.37510  Biso   1.000  F
  F176     1.0000 0.03090  0.12070  0.37510  Biso   1.000  F
  F177     1.0000 0.33110  0.29570  0.11780  Biso   1.000  F
  F178     1.0000 0.91890  0.95430  0.11780  Biso   1.000  F
  F179     1.0000 0.33110  0.95430  0.13220  Biso   1.000  F
  F180     1.0000 0.91890  0.29570  0.13220  Biso   1.000  F
  F181     1.0000 0.33110  0.79570  0.61780  Biso   1.000  F
  F182     1.0000 0.91890  0.45430  0.61780  Biso   1.000  F
  F183     1.0000 0.33110  0.45430  0.63220  Biso   1.000  F
  F184     1.0000 0.91890  0.79570  0.63220  Biso   1.000  F
  F185     1.0000 0.83110  0.29570  0.61780  Biso   1.000  F
  F186     1.0000 0.41890  0.95430  0.61780  Biso   1.000  F
  F187     1.0000 0.83110  0.95430  0.63220  Biso   1.000  F
  F188     1.0000 0.41890  0.29570  0.63220  Biso   1.000  F
  F189     1.0000 0.83110  0.79570  0.11780  Biso   1.000  F
  F190     1.0000 0.41890  0.45430  0.11780  Biso   1.000  F
  F191     1.0000 0.83110  0.45430  0.13220  Biso   1.000  F
  F192     1.0000 0.41890  0.79570  0.13220  Biso   1.000  F
  F193     1.0000 0.66890  0.70430  0.88220  Biso   1.000  F
  F194     1.0000 0.58110  0.54570  0.88220  Biso   1.000  F
  F195     1.0000 0.66890  0.54570  0.36780  Biso   1.000  F
  F196     1.0000 0.58110  0.70430  0.36780  Biso   1.000  F
  F197     1.0000 0.66890  0.20430  0.38220  Biso   1.000  F
  F198     1.0000 0.58110  0.04570  0.38220  Biso   1.000  F
  F199     1.0000 0.66890  0.04570  0.86780  Biso   1.000  F
  F200     1.0000 0.58110  0.20430  0.86780  Biso   1.000  F
  F201     1.0000 0.16890  0.70430  0.38220  Biso   1.000  F
  F202     1.0000 0.08110  0.54570  0.38220  Biso   1.000  F
  F203     1.0000 0.16890  0.54570  0.86780  Biso   1.000  F
  F204     1.0000 0.08110  0.70430  0.86780  Biso   1.000  F
  F205     1.0000 0.16890  0.20430  0.88220  Biso   1.000  F
  F206     1.0000 0.08110  0.04570  0.88220  Biso   1.000  F
  F207     1.0000 0.16890  0.04570  0.36780  Biso   1.000  F
  F208     1.0000 0.08110  0.20430  0.36780  Biso   1.000  F
  H225     1.0000 0.22680  0.25980  0.94650  Biso   1.000  H
  H226     1.0000 0.02320  0.99020  0.94650  Biso   1.000  H
  H227     1.0000 0.22680  0.99020  0.30350  Biso   1.000  H
  H228     1.0000 0.02320  0.25980  0.30350  Biso   1.000  H
  H229     1.0000 0.22680  0.75980  0.44650  Biso   1.000  H
  H230     1.0000 0.02320  0.49020  0.44650  Biso   1.000  H
  H231     1.0000 0.22680  0.49020  0.80350  Biso   1.000  H
  H232     1.0000 0.02320  0.75980  0.80350  Biso   1.000  H
  H233     1.0000 0.72680  0.25980  0.44650  Biso   1.000  H
  H234     1.0000 0.52320  0.99020  0.44650  Biso   1.000  H
  H235     1.0000 0.72680  0.99020  0.80350  Biso   1.000  H
  H236     1.0000 0.52320  0.25980  0.80350  Biso   1.000  H
  H237     1.0000 0.72680  0.75980  0.94650  Biso   1.000  H
  H238     1.0000 0.52320  0.49020  0.94650  Biso   1.000  H
  H239     1.0000 0.72680  0.49020  0.30350  Biso   1.000  H
  H240     1.0000 0.52320  0.75980  0.30350  Biso   1.000  H
  H241     1.0000 0.77320  0.74020  0.05350  Biso   1.000  H
  H242     1.0000 0.47680  0.50980  0.05350  Biso   1.000  H
  H243     1.0000 0.77320  0.50980  0.19650  Biso   1.000  H
  H244     1.0000 0.47680  0.74020  0.19650  Biso   1.000  H
  H245     1.0000 0.77320  0.24020  0.55350  Biso   1.000  H
  H246     1.0000 0.47680  0.00980  0.55350  Biso   1.000  H
  H247     1.0000 0.77320  0.00980  0.69650  Biso   1.000  H
  H248     1.0000 0.47680  0.24020  0.69650  Biso   1.000  H
  H249     1.0000 0.27320  0.74020  0.55350  Biso   1.000  H
  H250     1.0000 0.97680  0.50980  0.55350  Biso   1.000  H
  H251     1.0000 0.27320  0.50980  0.69650  Biso   1.000  H
  H252     1.0000 0.97680  0.74020  0.69650  Biso   1.000  H
  H253     1.0000 0.27320  0.24020  0.05350  Biso   1.000  H
  H254     1.0000 0.97680  0.00980  0.05350  Biso   1.000  H
  H255     1.0000 0.27320  0.00980  0.19650  Biso   1.000  H
  H256     1.0000 0.97680  0.24020  0.19650  Biso   1.000  H
  H257     1.0000 0.21810  0.17990  0.97810  Biso   1.000  H
  H258     1.0000 0.03190  0.07010  0.97810  Biso   1.000  H
  H259     1.0000 0.21810  0.07010  0.27190  Biso   1.000  H
  H260     1.0000 0.03190  0.17990  0.27190  Biso   1.000  H
  H261     1.0000 0.21810  0.67990  0.47810  Biso   1.000  H
  H262     1.0000 0.03190  0.57010  0.47810  Biso   1.000  H
  H263     1.0000 0.21810  0.57010  0.77190  Biso   1.000  H
  H264     1.0000 0.03190  0.67990  0.77190  Biso   1.000  H
  H265     1.0000 0.71810  0.17990  0.47810  Biso   1.000  H
  H266     1.0000 0.53190  0.07010  0.47810  Biso   1.000  H
  H267     1.0000 0.71810  0.07010  0.77190  Biso   1.000  H
  H268     1.0000 0.53190  0.17990  0.77190  Biso   1.000  H
  H269     1.0000 0.71810  0.67990  0.97810  Biso   1.000  H
  H270     1.0000 0.53190  0.57010  0.97810  Biso   1.000  H
  H271     1.0000 0.71810  0.57010  0.27190  Biso   1.000  H
  H272     1.0000 0.53190  0.67990  0.27190  Biso   1.000  H
  H273     1.0000 0.78190  0.82010  0.02190  Biso   1.000  H
  H274     1.0000 0.46810  0.42990  0.02190  Biso   1.000  H
  H275     1.0000 0.78190  0.42990  0.22810  Biso   1.000  H
  H276     1.0000 0.46810  0.82010  0.22810  Biso   1.000  H
  H277     1.0000 0.78190  0.32010  0.52190  Biso   1.000  H
  H278     1.0000 0.46810  0.92990  0.52190  Biso   1.000  H
  H279     1.0000 0.78190  0.92990  0.72810  Biso   1.000  H
  H280     1.0000 0.46810  0.32010  0.72810  Biso   1.000  H
  H281     1.0000 0.28190  0.82010  0.52190  Biso   1.000  H
  H282     1.0000 0.96810  0.42990  0.52190  Biso   1.000  H
  H283     1.0000 0.28190  0.42990  0.72810  Biso   1.000  H
  H284     1.0000 0.96810  0.82010  0.72810  Biso   1.000  H
  H285     1.0000 0.28190  0.32010  0.02190  Biso   1.000  H
  H286     1.0000 0.96810  0.92990  0.02190  Biso   1.000  H
  H287     1.0000 0.28190  0.92990  0.22810  Biso   1.000  H
  H288     1.0000 0.96810  0.32010  0.22810  Biso   1.000  H
