data_image0
_cell_length_a       16.9982
_cell_length_b       12.8924
_cell_length_c       24.7143
_cell_angle_alpha    90
_cell_angle_beta     90
_cell_angle_gamma    90

_symmetry_space_group_name_H-M    "P 1"
_symmetry_int_tables_number       1

loop_
  _symmetry_equiv_pos_as_xyz
  'x, y, z'

loop_
  _atom_site_label
  _atom_site_occupancy
  _atom_site_fract_x
  _atom_site_fract_y
  _atom_site_fract_z
  _atom_site_thermal_displace_type
  _atom_site_B_iso_or_equiv
  _atom_site_type_symbol
  Cu1      1.0000 0.87500  0.37500  0.87500  Biso   1.000  Cu
  Cu2      1.0000 0.37500  0.87500  0.87500  Biso   1.000  Cu
  Cu3      1.0000 0.87500  0.87500  0.37500  Biso   1.000  Cu
  Cu4      1.0000 0.37500  0.37500  0.37500  Biso   1.000  Cu
  Cu5      1.0000 0.12500  0.62500  0.12500  Biso   1.000  Cu
  Cu6      1.0000 0.12500  0.12500  0.62500  Biso   1.000  Cu
  Cu7      1.0000 0.62500  0.62500  0.62500  Biso   1.000  Cu
  Cu8      1.0000 0.62500  0.12500  0.12500  Biso   1.000  Cu
  C1       1.0000 0.82200  0.18950  0.94280  Biso   1.000  C
  C2       1.0000 0.42800  0.06050  0.94280  Biso   1.000  C
  C3       1.0000 0.82200  0.06050  0.30720  Biso   1.000  C
  C4       1.0000 0.42800  0.18950  0.30720  Biso   1.000  C
  C5       1.0000 0.82200  0.68950  0.44280  Biso   1.000  C
  C6       1.0000 0.42800  0.56050  0.44280  Biso   1.000  C
  C7       1.0000 0.82200  0.56050  0.80720  Biso   1.000  C
  C8       1.0000 0.42800  0.68950  0.80720  Biso   1.000  C
  C9       1.0000 0.32200  0.18950  0.44280  Biso   1.000  C
  C10      1.0000 0.92800  0.06050  0.44280  Biso   1.000  C
  C11      1.0000 0.32200  0.06050  0.80720  Biso   1.000  C
  C12      1.0000 0.92800  0.18950  0.80720  Biso   1.000  C
  C13      1.0000 0.32200  0.68950  0.94280  Biso   1.000  C
  C14      1.0000 0.92800  0.56050  0.94280  Biso   1.000  C
  C15      1.0000 0.32200  0.56050  0.30720  Biso   1.000  C
  C16      1.0000 0.92800  0.68950  0.30720  Biso   1.000  C
  C17      1.0000 0.17800  0.81050  0.05720  Biso   1.000  C
  C18      1.0000 0.07200  0.43950  0.05720  Biso   1.000  C
  C19      1.0000 0.17800  0.43950  0.19280  Biso   1.000  C
  C20      1.0000 0.07200  0.81050  0.19280  Biso   1.000  C
  C21      1.0000 0.17800  0.31050  0.55720  Biso   1.000  C
  C22      1.0000 0.07200  0.93950  0.55720  Biso   1.000  C
  C23      1.0000 0.17800  0.93950  0.69280  Biso   1.000  C
  C24      1.0000 0.07200  0.31050  0.69280  Biso   1.000  C
  C25      1.0000 0.67800  0.81050  0.55720  Biso   1.000  C
  C26      1.0000 0.57200  0.43950  0.55720  Biso   1.000  C
  C27      1.0000 0.67800  0.43950  0.69280  Biso   1.000  C
  C28      1.0000 0.57200  0.81050  0.69280  Biso   1.000  C
  C29      1.0000 0.67800  0.31050  0.05720  Biso   1.000  C
  C30      1.0000 0.57200  0.93950  0.05720  Biso   1.000  C
  C31      1.0000 0.67800  0.93950  0.19280  Biso   1.000  C
  C32      1.0000 0.57200  0.31050  0.19280  Biso   1.000  C
  H1       1.0000 0.77590  0.18200  0.92300  Biso   1.000  H
  H2       1.0000 0.47410  0.06800  0.92300  Biso   1.000  H
  H3       1.0000 0.77590  0.06800  0.32700  Biso   1.000  H
  H4       1.0000 0.47410  0.18200  0.32700  Biso   1.000  H
  H5       1.0000 0.77590  0.68200  0.42300  Biso   1.000  H
  H6       1.0000 0.47410  0.56800  0.42300  Biso   1.000  H
  H7       1.0000 0.77590  0.56800  0.82700  Biso   1.000  H
  H8       1.0000 0.47410  0.68200  0.82700  Biso   1.000  H
  H9       1.0000 0.27590  0.18200  0.42300  Biso   1.000  H
  H10      1.0000 0.97410  0.06800  0.42300  Biso   1.000  H
  H11      1.0000 0.27590  0.06800  0.82700  Biso   1.000  H
  H12      1.0000 0.97410  0.18200  0.82700  Biso   1.000  H
  H13      1.0000 0.27590  0.68200  0.92300  Biso   1.000  H
  H14      1.0000 0.97410  0.56800  0.92300  Biso   1.000  H
  H15      1.0000 0.27590  0.56800  0.32700  Biso   1.000  H
  H16      1.0000 0.97410  0.68200  0.32700  Biso   1.000  H
  H17      1.0000 0.22410  0.81800  0.07700  Biso   1.000  H
  H18      1.0000 0.02590  0.43200  0.07700  Biso   1.000  H
  H19      1.0000 0.22410  0.43200  0.17300  Biso   1.000  H
  H20      1.0000 0.02590  0.81800  0.17300  Biso   1.000  H
  H21      1.0000 0.22410  0.31800  0.57700  Biso   1.000  H
  H22      1.0000 0.02590  0.93200  0.57700  Biso   1.000  H
  H23      1.0000 0.22410  0.93200  0.67300  Biso   1.000  H
  H24      1.0000 0.02590  0.31800  0.67300  Biso   1.000  H
  H25      1.0000 0.72410  0.81800  0.57700  Biso   1.000  H
  H26      1.0000 0.52590  0.43200  0.57700  Biso   1.000  H
  H27      1.0000 0.72410  0.43200  0.67300  Biso   1.000  H
  H28      1.0000 0.52590  0.81800  0.67300  Biso   1.000  H
  H29      1.0000 0.72410  0.31800  0.07700  Biso   1.000  H
  H30      1.0000 0.52590  0.93200  0.07700  Biso   1.000  H
  H31      1.0000 0.72410  0.93200  0.17300  Biso   1.000  H
  H32      1.0000 0.52590  0.31800  0.17300  Biso   1.000  H
  C33      1.0000 0.93100  0.24840  0.96956  Biso   1.000  C
  C34      1.0000 0.31900  0.00160  0.96956  Biso   1.000  C
  C35      1.0000 0.93100  0.00160  0.28044  Biso   1.000  C
  C36      1.0000 0.31900  0.24840  0.28044  Biso   1.000  C
  C37      1.0000 0.93100  0.74840  0.46956  Biso   1.000  C
  C38      1.0000 0.31900  0.50160  0.46956  Biso   1.000  C
  C39      1.0000 0.93100  0.50160  0.78044  Biso   1.000  C
  C40      1.0000 0.31900  0.74840  0.78044  Biso   1.000  C
  C41      1.0000 0.43100  0.24840  0.46956  Biso   1.000  C
  C42      1.0000 0.81900  0.00160  0.46956  Biso   1.000  C
  C43      1.0000 0.43100  0.00160  0.78044  Biso   1.000  C
  C44      1.0000 0.81900  0.24840  0.78044  Biso   1.000  C
  C45      1.0000 0.43100  0.74840  0.96956  Biso   1.000  C
  C46      1.0000 0.81900  0.50160  0.96956  Biso   1.000  C
  C47      1.0000 0.43100  0.50160  0.28044  Biso   1.000  C
  C48      1.0000 0.81900  0.74840  0.28044  Biso   1.000  C
  C49      1.0000 0.06900  0.75160  0.03044  Biso   1.000  C
  C50      1.0000 0.18100  0.49840  0.03044  Biso   1.000  C
  C51      1.0000 0.06900  0.49840  0.21956  Biso   1.000  C
  C52      1.0000 0.18100  0.75160  0.21956  Biso   1.000  C
  C53      1.0000 0.06900  0.25160  0.53044  Biso   1.000  C
  C54      1.0000 0.18100  0.99840  0.53044  Biso   1.000  C
  C55      1.0000 0.06900  0.99840  0.71956  Biso   1.000  C
  C56      1.0000 0.18100  0.25160  0.71956  Biso   1.000  C
  C57      1.0000 0.56900  0.75160  0.53044  Biso   1.000  C
  C58      1.0000 0.68100  0.49840  0.53044  Biso   1.000  C
  C59      1.0000 0.56900  0.49840  0.71956  Biso   1.000  C
  C60      1.0000 0.68100  0.75160  0.71956  Biso   1.000  C
  C61      1.0000 0.56900  0.25160  0.03044  Biso   1.000  C
  C62      1.0000 0.68100  0.99840  0.03044  Biso   1.000  C
  C63      1.0000 0.56900  0.99840  0.21956  Biso   1.000  C
  C64      1.0000 0.68100  0.25160  0.21956  Biso   1.000  C
  H33      1.0000 0.97650  0.28780  0.97360  Biso   1.000  H
  H34      1.0000 0.27350  0.96220  0.97360  Biso   1.000  H
  H35      1.0000 0.97650  0.96220  0.27640  Biso   1.000  H
  H36      1.0000 0.27350  0.28780  0.27640  Biso   1.000  H
  H37      1.0000 0.97650  0.78780  0.47360  Biso   1.000  H
  H38      1.0000 0.27350  0.46220  0.47360  Biso   1.000  H
  H39      1.0000 0.97650  0.46220  0.77640  Biso   1.000  H
  H40      1.0000 0.27350  0.78780  0.77640  Biso   1.000  H
  H41      1.0000 0.47650  0.28780  0.47360  Biso   1.000  H
  H42      1.0000 0.77350  0.96220  0.47360  Biso   1.000  H
  H43      1.0000 0.47650  0.96220  0.77640  Biso   1.000  H
  H44      1.0000 0.77350  0.28780  0.77640  Biso   1.000  H
  H45      1.0000 0.47650  0.78780  0.97360  Biso   1.000  H
  H46      1.0000 0.77350  0.46220  0.97360  Biso   1.000  H
  H47      1.0000 0.47650  0.46220  0.27640  Biso   1.000  H
  H48      1.0000 0.77350  0.78780  0.27640  Biso   1.000  H
  H49      1.0000 0.02350  0.71220  0.02640  Biso   1.000  H
  H50      1.0000 0.22650  0.53780  0.02640  Biso   1.000  H
  H51      1.0000 0.02350  0.53780  0.22360  Biso   1.000  H
  H52      1.0000 0.22650  0.71220  0.22360  Biso   1.000  H
  H53      1.0000 0.02350  0.21220  0.52640  Biso   1.000  H
  H54      1.0000 0.22650  0.03780  0.52640  Biso   1.000  H
  H55      1.0000 0.02350  0.03780  0.72360  Biso   1.000  H
  H56      1.0000 0.22650  0.21220  0.72360  Biso   1.000  H
  H57      1.0000 0.52350  0.71220  0.52640  Biso   1.000  H
  H58      1.0000 0.72650  0.53780  0.52640  Biso   1.000  H
  H59      1.0000 0.52350  0.53780  0.72360  Biso   1.000  H
  H60      1.0000 0.72650  0.71220  0.72360  Biso   1.000  H
  H61      1.0000 0.52350  0.21220  0.02640  Biso   1.000  H
  H62      1.0000 0.72650  0.03780  0.02640  Biso   1.000  H
  H63      1.0000 0.52350  0.03780  0.22360  Biso   1.000  H
  H64      1.0000 0.72650  0.21220  0.22360  Biso   1.000  H
  C65      1.0000 0.95840  0.11610  0.04126  Biso   1.000  C
  C66      1.0000 0.29160  0.13390  0.04126  Biso   1.000  C
  C67      1.0000 0.95840  0.13390  0.20874  Biso   1.000  C
  C68      1.0000 0.29160  0.11610  0.20874  Biso   1.000  C
  C69      1.0000 0.95840  0.61610  0.54126  Biso   1.000  C
  C70      1.0000 0.29160  0.63390  0.54126  Biso   1.000  C
  C71      1.0000 0.95840  0.63390  0.70874  Biso   1.000  C
  C72      1.0000 0.29160  0.61610  0.70874  Biso   1.000  C
  C73      1.0000 0.45840  0.11610  0.54126  Biso   1.000  C
  C74      1.0000 0.79160  0.13390  0.54126  Biso   1.000  C
  C75      1.0000 0.45840  0.13390  0.70874  Biso   1.000  C
  C76      1.0000 0.79160  0.11610  0.70874  Biso   1.000  C
  C77      1.0000 0.45840  0.61610  0.04126  Biso   1.000  C
  C78      1.0000 0.79160  0.63390  0.04126  Biso   1.000  C
  C79      1.0000 0.45840  0.63390  0.20874  Biso   1.000  C
  C80      1.0000 0.79160  0.61610  0.20874  Biso   1.000  C
  C81      1.0000 0.04160  0.88390  0.95874  Biso   1.000  C
  C82      1.0000 0.20840  0.36610  0.95874  Biso   1.000  C
  C83      1.0000 0.04160  0.36610  0.29126  Biso   1.000  C
  C84      1.0000 0.20840  0.88390  0.29126  Biso   1.000  C
  C85      1.0000 0.04160  0.38390  0.45874  Biso   1.000  C
  C86      1.0000 0.20840  0.86610  0.45874  Biso   1.000  C
  C87      1.0000 0.04160  0.86610  0.79126  Biso   1.000  C
  C88      1.0000 0.20840  0.38390  0.79126  Biso   1.000  C
  C89      1.0000 0.54160  0.88390  0.45874  Biso   1.000  C
  C90      1.0000 0.70840  0.36610  0.45874  Biso   1.000  C
  C91      1.0000 0.54160  0.36610  0.79126  Biso   1.000  C
  C92      1.0000 0.70840  0.88390  0.79126  Biso   1.000  C
  C93      1.0000 0.54160  0.38390  0.95874  Biso   1.000  C
  C94      1.0000 0.70840  0.86610  0.95874  Biso   1.000  C
  C95      1.0000 0.54160  0.86610  0.29126  Biso   1.000  C
  C96      1.0000 0.70840  0.38390  0.29126  Biso   1.000  C
  H65      1.0000 0.92340  0.07870  0.06530  Biso   1.000  H
  H66      1.0000 0.32660  0.17130  0.06530  Biso   1.000  H
  H67      1.0000 0.92340  0.17130  0.18470  Biso   1.000  H
  H68      1.0000 0.32660  0.07870  0.18470  Biso   1.000  H
  H69      1.0000 0.92340  0.57870  0.56530  Biso   1.000  H
  H70      1.0000 0.32660  0.67130  0.56530  Biso   1.000  H
  H71      1.0000 0.92340  0.67130  0.68470  Biso   1.000  H
  H72      1.0000 0.32660  0.57870  0.68470  Biso   1.000  H
  H73      1.0000 0.42340  0.07870  0.56530  Biso   1.000  H
  H74      1.0000 0.82660  0.17130  0.56530  Biso   1.000  H
  H75      1.0000 0.42340  0.17130  0.68470  Biso   1.000  H
  H76      1.0000 0.82660  0.07870  0.68470  Biso   1.000  H
  H77      1.0000 0.42340  0.57870  0.06530  Biso   1.000  H
  H78      1.0000 0.82660  0.67130  0.06530  Biso   1.000  H
  H79      1.0000 0.42340  0.67130  0.18470  Biso   1.000  H
  H80      1.0000 0.82660  0.57870  0.18470  Biso   1.000  H
  H81      1.0000 0.07660  0.92130  0.93470  Biso   1.000  H
  H82      1.0000 0.17340  0.32870  0.93470  Biso   1.000  H
  H83      1.0000 0.07660  0.32870  0.31530  Biso   1.000  H
  H84      1.0000 0.17340  0.92130  0.31530  Biso   1.000  H
  H85      1.0000 0.07660  0.42130  0.43470  Biso   1.000  H
  H86      1.0000 0.17340  0.82870  0.43470  Biso   1.000  H
  H87      1.0000 0.07660  0.82870  0.81530  Biso   1.000  H
  H88      1.0000 0.17340  0.42130  0.81530  Biso   1.000  H
  H89      1.0000 0.57660  0.92130  0.43470  Biso   1.000  H
  H90      1.0000 0.67340  0.32870  0.43470  Biso   1.000  H
  H91      1.0000 0.57660  0.32870  0.81530  Biso   1.000  H
  H92      1.0000 0.67340  0.92130  0.81530  Biso   1.000  H
  H93      1.0000 0.57660  0.42130  0.93470  Biso   1.000  H
  H94      1.0000 0.67340  0.82870  0.93470  Biso   1.000  H
  H95      1.0000 0.57660  0.82870  0.31530  Biso   1.000  H
  H96      1.0000 0.67340  0.42130  0.31530  Biso   1.000  H
  H97      1.0000 0.98620  0.16770  0.06250  Biso   1.000  H
  H98      1.0000 0.26380  0.08230  0.06250  Biso   1.000  H
  H99      1.0000 0.98620  0.08230  0.18750  Biso   1.000  H
  H100     1.0000 0.26380  0.16770  0.18750  Biso   1.000  H
  H101     1.0000 0.98620  0.66770  0.56250  Biso   1.000  H
  H102     1.0000 0.26380  0.58230  0.56250  Biso   1.000  H
  H103     1.0000 0.98620  0.58230  0.68750  Biso   1.000  H
  H104     1.0000 0.26380  0.66770  0.68750  Biso   1.000  H
  H105     1.0000 0.48620  0.16770  0.56250  Biso   1.000  H
  H106     1.0000 0.76380  0.08230  0.56250  Biso   1.000  H
  H107     1.0000 0.48620  0.08230  0.68750  Biso   1.000  H
  H108     1.0000 0.76380  0.16770  0.68750  Biso   1.000  H
  H109     1.0000 0.48620  0.66770  0.06250  Biso   1.000  H
  H110     1.0000 0.76380  0.58230  0.06250  Biso   1.000  H
  H111     1.0000 0.48620  0.58230  0.18750  Biso   1.000  H
  H112     1.0000 0.76380  0.66770  0.18750  Biso   1.000  H
  H113     1.0000 0.01380  0.83230  0.93750  Biso   1.000  H
  H114     1.0000 0.23620  0.41770  0.93750  Biso   1.000  H
  H115     1.0000 0.01380  0.41770  0.31250  Biso   1.000  H
  H116     1.0000 0.23620  0.83230  0.31250  Biso   1.000  H
  H117     1.0000 0.01380  0.33230  0.43750  Biso   1.000  H
  H118     1.0000 0.23620  0.91770  0.43750  Biso   1.000  H
  H119     1.0000 0.01380  0.91770  0.81250  Biso   1.000  H
  H120     1.0000 0.23620  0.33230  0.81250  Biso   1.000  H
  H121     1.0000 0.51380  0.83230  0.43750  Biso   1.000  H
  H122     1.0000 0.73620  0.41770  0.43750  Biso   1.000  H
  H123     1.0000 0.51380  0.41770  0.81250  Biso   1.000  H
  H124     1.0000 0.73620  0.83230  0.81250  Biso   1.000  H
  H125     1.0000 0.51380  0.33230  0.93750  Biso   1.000  H
  H126     1.0000 0.73620  0.91770  0.93750  Biso   1.000  H
  H127     1.0000 0.51380  0.91770  0.31250  Biso   1.000  H
  H128     1.0000 0.73620  0.33230  0.31250  Biso   1.000  H
  C97      1.0000 0.01690  0.04150  0.01730  Biso   1.000  C
  C98      1.0000 0.23310  0.20850  0.01730  Biso   1.000  C
  C99      1.0000 0.01690  0.20850  0.23270  Biso   1.000  C
  C100     1.0000 0.23310  0.04150  0.23270  Biso   1.000  C
  C101     1.0000 0.01690  0.54150  0.51730  Biso   1.000  C
  C102     1.0000 0.23310  0.70850  0.51730  Biso   1.000  C
  C103     1.0000 0.01690  0.70850  0.73270  Biso   1.000  C
  C104     1.0000 0.23310  0.54150  0.73270  Biso   1.000  C
  C105     1.0000 0.51690  0.04150  0.51730  Biso   1.000  C
  C106     1.0000 0.73310  0.20850  0.51730  Biso   1.000  C
  C107     1.0000 0.51690  0.20850  0.73270  Biso   1.000  C
  C108     1.0000 0.73310  0.04150  0.73270  Biso   1.000  C
  C109     1.0000 0.51690  0.54150  0.01730  Biso   1.000  C
  C110     1.0000 0.73310  0.70850  0.01730  Biso   1.000  C
  C111     1.0000 0.51690  0.70850  0.23270  Biso   1.000  C
  C112     1.0000 0.73310  0.54150  0.23270  Biso   1.000  C
  C113     1.0000 0.98310  0.95850  0.98270  Biso   1.000  C
  C114     1.0000 0.26690  0.29150  0.98270  Biso   1.000  C
  C115     1.0000 0.98310  0.29150  0.26730  Biso   1.000  C
  C116     1.0000 0.26690  0.95850  0.26730  Biso   1.000  C
  C117     1.0000 0.98310  0.45850  0.48270  Biso   1.000  C
  C118     1.0000 0.26690  0.79150  0.48270  Biso   1.000  C
  C119     1.0000 0.98310  0.79150  0.76730  Biso   1.000  C
  C120     1.0000 0.26690  0.45850  0.76730  Biso   1.000  C
  C121     1.0000 0.48310  0.95850  0.48270  Biso   1.000  C
  C122     1.0000 0.76690  0.29150  0.48270  Biso   1.000  C
  C123     1.0000 0.48310  0.29150  0.76730  Biso   1.000  C
  C124     1.0000 0.76690  0.95850  0.76730  Biso   1.000  C
  C125     1.0000 0.48310  0.45850  0.98270  Biso   1.000  C
  C126     1.0000 0.76690  0.79150  0.98270  Biso   1.000  C
  C127     1.0000 0.48310  0.79150  0.26730  Biso   1.000  C
  C128     1.0000 0.76690  0.45850  0.26730  Biso   1.000  C
  H129     1.0000 0.05430  0.08070  0.99590  Biso   1.000  H
  H130     1.0000 0.19570  0.16930  0.99590  Biso   1.000  H
  H131     1.0000 0.05430  0.16930  0.25410  Biso   1.000  H
  H132     1.0000 0.19570  0.08070  0.25410  Biso   1.000  H
  H133     1.0000 0.05430  0.58070  0.49590  Biso   1.000  H
  H134     1.0000 0.19570  0.66930  0.49590  Biso   1.000  H
  H135     1.0000 0.05430  0.66930  0.75410  Biso   1.000  H
  H136     1.0000 0.19570  0.58070  0.75410  Biso   1.000  H
  H137     1.0000 0.55430  0.08070  0.49590  Biso   1.000  H
  H138     1.0000 0.69570  0.16930  0.49590  Biso   1.000  H
  H139     1.0000 0.55430  0.16930  0.75410  Biso   1.000  H
  H140     1.0000 0.69570  0.08070  0.75410  Biso   1.000  H
  H141     1.0000 0.55430  0.58070  0.99590  Biso   1.000  H
  H142     1.0000 0.69570  0.66930  0.99590  Biso   1.000  H
  H143     1.0000 0.55430  0.66930  0.25410  Biso   1.000  H
  H144     1.0000 0.69570  0.58070  0.25410  Biso   1.000  H
  H145     1.0000 0.94570  0.91930  0.00410  Biso   1.000  H
  H146     1.0000 0.30430  0.33070  0.00410  Biso   1.000  H
  H147     1.0000 0.94570  0.33070  0.24590  Biso   1.000  H
  H148     1.0000 0.30430  0.91930  0.24590  Biso   1.000  H
  H149     1.0000 0.94570  0.41930  0.50410  Biso   1.000  H
  H150     1.0000 0.30430  0.83070  0.50410  Biso   1.000  H
  H151     1.0000 0.94570  0.83070  0.74590  Biso   1.000  H
  H152     1.0000 0.30430  0.41930  0.74590  Biso   1.000  H
  H153     1.0000 0.44570  0.91930  0.50410  Biso   1.000  H
  H154     1.0000 0.80430  0.33070  0.50410  Biso   1.000  H
  H155     1.0000 0.44570  0.33070  0.74590  Biso   1.000  H
  H156     1.0000 0.80430  0.91930  0.74590  Biso   1.000  H
  H157     1.0000 0.44570  0.41930  0.00410  Biso   1.000  H
  H158     1.0000 0.80430  0.83070  0.00410  Biso   1.000  H
  H159     1.0000 0.44570  0.83070  0.24590  Biso   1.000  H
  H160     1.0000 0.80430  0.41930  0.24590  Biso   1.000  H
  H161     1.0000 0.04570  0.00900  0.04660  Biso   1.000  H
  H162     1.0000 0.20430  0.24100  0.04660  Biso   1.000  H
  H163     1.0000 0.04570  0.24100  0.20340  Biso   1.000  H
  H164     1.0000 0.20430  0.00900  0.20340  Biso   1.000  H
  H165     1.0000 0.04570  0.50900  0.54660  Biso   1.000  H
  H166     1.0000 0.20430  0.74100  0.54660  Biso   1.000  H
  H167     1.0000 0.04570  0.74100  0.70340  Biso   1.000  H
  H168     1.0000 0.20430  0.50900  0.70340  Biso   1.000  H
  H169     1.0000 0.54570  0.00900  0.54660  Biso   1.000  H
  H170     1.0000 0.70430  0.24100  0.54660  Biso   1.000  H
  H171     1.0000 0.54570  0.24100  0.70340  Biso   1.000  H
  H172     1.0000 0.70430  0.00900  0.70340  Biso   1.000  H
  H173     1.0000 0.54570  0.50900  0.04660  Biso   1.000  H
  H174     1.0000 0.70430  0.74100  0.04660  Biso   1.000  H
  H175     1.0000 0.54570  0.74100  0.20340  Biso   1.000  H
  H176     1.0000 0.70430  0.50900  0.20340  Biso   1.000  H
  H177     1.0000 0.95430  0.99100  0.95340  Biso   1.000  H
  H178     1.0000 0.29570  0.25900  0.95340  Biso   1.000  H
  H179     1.0000 0.95430  0.25900  0.29660  Biso   1.000  H
  H180     1.0000 0.29570  0.99100  0.29660  Biso   1.000  H
  H181     1.0000 0.95430  0.49100  0.45340  Biso   1.000  H
  H182     1.0000 0.29570  0.75900  0.45340  Biso   1.000  H
  H183     1.0000 0.95430  0.75900  0.79660  Biso   1.000  H
  H184     1.0000 0.29570  0.49100  0.79660  Biso   1.000  H
  H185     1.0000 0.45430  0.99100  0.45340  Biso   1.000  H
  H186     1.0000 0.79570  0.25900  0.45340  Biso   1.000  H
  H187     1.0000 0.45430  0.25900  0.79660  Biso   1.000  H
  H188     1.0000 0.79570  0.99100  0.79660  Biso   1.000  H
  H189     1.0000 0.45430  0.49100  0.95340  Biso   1.000  H
  H190     1.0000 0.79570  0.75900  0.95340  Biso   1.000  H
  H191     1.0000 0.45430  0.75900  0.29660  Biso   1.000  H
  H192     1.0000 0.79570  0.49100  0.29660  Biso   1.000  H
  N1       1.0000 0.87580  0.26500  0.93287  Biso   1.000  N
  N2       1.0000 0.37420  0.98500  0.93287  Biso   1.000  N
  N3       1.0000 0.87580  0.98500  0.31713  Biso   1.000  N
  N4       1.0000 0.37420  0.26500  0.31713  Biso   1.000  N
  N5       1.0000 0.87580  0.76500  0.43287  Biso   1.000  N
  N6       1.0000 0.37420  0.48500  0.43287  Biso   1.000  N
  N7       1.0000 0.87580  0.48500  0.81713  Biso   1.000  N
  N8       1.0000 0.37420  0.76500  0.81713  Biso   1.000  N
  N9       1.0000 0.37580  0.26500  0.43287  Biso   1.000  N
  N10      1.0000 0.87420  0.98500  0.43287  Biso   1.000  N
  N11      1.0000 0.37580  0.98500  0.81713  Biso   1.000  N
  N12      1.0000 0.87420  0.26500  0.81713  Biso   1.000  N
  N13      1.0000 0.37580  0.76500  0.93287  Biso   1.000  N
  N14      1.0000 0.87420  0.48500  0.93287  Biso   1.000  N
  N15      1.0000 0.37580  0.48500  0.31713  Biso   1.000  N
  N16      1.0000 0.87420  0.76500  0.31713  Biso   1.000  N
  N17      1.0000 0.12420  0.73500  0.06713  Biso   1.000  N
  N18      1.0000 0.12580  0.51500  0.06713  Biso   1.000  N
  N19      1.0000 0.12420  0.51500  0.18287  Biso   1.000  N
  N20      1.0000 0.12580  0.73500  0.18287  Biso   1.000  N
  N21      1.0000 0.12420  0.23500  0.56713  Biso   1.000  N
  N22      1.0000 0.12580  0.01500  0.56713  Biso   1.000  N
  N23      1.0000 0.12420  0.01500  0.68287  Biso   1.000  N
  N24      1.0000 0.12580  0.23500  0.68287  Biso   1.000  N
  N25      1.0000 0.62420  0.73500  0.56713  Biso   1.000  N
  N26      1.0000 0.62580  0.51500  0.56713  Biso   1.000  N
  N27      1.0000 0.62420  0.51500  0.68287  Biso   1.000  N
  N28      1.0000 0.62580  0.73500  0.68287  Biso   1.000  N
  N29      1.0000 0.62420  0.23500  0.06713  Biso   1.000  N
  N30      1.0000 0.62580  0.01500  0.06713  Biso   1.000  N
  N31      1.0000 0.62420  0.01500  0.18287  Biso   1.000  N
  N32      1.0000 0.62580  0.23500  0.18287  Biso   1.000  N
  N33      1.0000 0.91200  0.16800  0.99945  Biso   1.000  N
  N34      1.0000 0.33800  0.08200  0.99945  Biso   1.000  N
  N35      1.0000 0.91200  0.08200  0.25055  Biso   1.000  N
  N36      1.0000 0.33800  0.16800  0.25055  Biso   1.000  N
  N37      1.0000 0.91200  0.66800  0.49945  Biso   1.000  N
  N38      1.0000 0.33800  0.58200  0.49945  Biso   1.000  N
  N39      1.0000 0.91200  0.58200  0.75055  Biso   1.000  N
  N40      1.0000 0.33800  0.66800  0.75055  Biso   1.000  N
  N41      1.0000 0.41200  0.16800  0.49945  Biso   1.000  N
  N42      1.0000 0.83800  0.08200  0.49945  Biso   1.000  N
  N43      1.0000 0.41200  0.08200  0.75055  Biso   1.000  N
  N44      1.0000 0.83800  0.16800  0.75055  Biso   1.000  N
  N45      1.0000 0.41200  0.66800  0.99945  Biso   1.000  N
  N46      1.0000 0.83800  0.58200  0.99945  Biso   1.000  N
  N47      1.0000 0.41200  0.58200  0.25055  Biso   1.000  N
  N48      1.0000 0.83800  0.66800  0.25055  Biso   1.000  N
  N49      1.0000 0.08800  0.83200  0.00055  Biso   1.000  N
  N50      1.0000 0.16200  0.41800  0.00055  Biso   1.000  N
  N51      1.0000 0.08800  0.41800  0.24945  Biso   1.000  N
  N52      1.0000 0.16200  0.83200  0.24945  Biso   1.000  N
  N53      1.0000 0.08800  0.33200  0.50055  Biso   1.000  N
  N54      1.0000 0.16200  0.91800  0.50055  Biso   1.000  N
  N55      1.0000 0.08800  0.91800  0.74945  Biso   1.000  N
  N56      1.0000 0.16200  0.33200  0.74945  Biso   1.000  N
  N57      1.0000 0.58800  0.83200  0.50055  Biso   1.000  N
  N58      1.0000 0.66200  0.41800  0.50055  Biso   1.000  N
  N59      1.0000 0.58800  0.41800  0.74945  Biso   1.000  N
  N60      1.0000 0.66200  0.83200  0.74945  Biso   1.000  N
  N61      1.0000 0.58800  0.33200  0.00055  Biso   1.000  N
  N62      1.0000 0.66200  0.91800  0.00055  Biso   1.000  N
  N63      1.0000 0.58800  0.91800  0.24945  Biso   1.000  N
  N64      1.0000 0.66200  0.33200  0.24945  Biso   1.000  N
  N65      1.0000 0.84130  0.12840  0.98284  Biso   1.000  N
  N66      1.0000 0.40870  0.12160  0.98284  Biso   1.000  N
  N67      1.0000 0.84130  0.12160  0.26716  Biso   1.000  N
  N68      1.0000 0.40870  0.12840  0.26716  Biso   1.000  N
  N69      1.0000 0.84130  0.62840  0.48284  Biso   1.000  N
  N70      1.0000 0.40870  0.62160  0.48284  Biso   1.000  N
  N71      1.0000 0.84130  0.62160  0.76716  Biso   1.000  N
  N72      1.0000 0.40870  0.62840  0.76716  Biso   1.000  N
  N73      1.0000 0.34130  0.12840  0.48284  Biso   1.000  N
  N74      1.0000 0.90870  0.12160  0.48284  Biso   1.000  N
  N75      1.0000 0.34130  0.12160  0.76716  Biso   1.000  N
  N76      1.0000 0.90870  0.12840  0.76716  Biso   1.000  N
  N77      1.0000 0.34130  0.62840  0.98284  Biso   1.000  N
  N78      1.0000 0.90870  0.62160  0.98284  Biso   1.000  N
  N79      1.0000 0.34130  0.62160  0.26716  Biso   1.000  N
  N80      1.0000 0.90870  0.62840  0.26716  Biso   1.000  N
  N81      1.0000 0.15870  0.87160  0.01716  Biso   1.000  N
  N82      1.0000 0.09130  0.37840  0.01716  Biso   1.000  N
  N83      1.0000 0.15870  0.37840  0.23284  Biso   1.000  N
  N84      1.0000 0.09130  0.87160  0.23284  Biso   1.000  N
  N85      1.0000 0.15870  0.37160  0.51716  Biso   1.000  N
  N86      1.0000 0.09130  0.87840  0.51716  Biso   1.000  N
  N87      1.0000 0.15870  0.87840  0.73284  Biso   1.000  N
  N88      1.0000 0.09130  0.37160  0.73284  Biso   1.000  N
  N89      1.0000 0.65870  0.87160  0.51716  Biso   1.000  N
  N90      1.0000 0.59130  0.37840  0.51716  Biso   1.000  N
  N91      1.0000 0.65870  0.37840  0.73284  Biso   1.000  N
  N92      1.0000 0.59130  0.87160  0.73284  Biso   1.000  N
  N93      1.0000 0.65870  0.37160  0.01716  Biso   1.000  N
  N94      1.0000 0.59130  0.87840  0.01716  Biso   1.000  N
  N95      1.0000 0.65870  0.87840  0.23284  Biso   1.000  N
  N96      1.0000 0.59130  0.37160  0.23284  Biso   1.000  N
  N97      1.0000 0.12500  0.12500  0.87530  Biso   1.000  N
  N98      1.0000 0.12500  0.12500  0.37470  Biso   1.000  N
  N99      1.0000 0.12500  0.62500  0.37530  Biso   1.000  N
  N100     1.0000 0.12500  0.62500  0.87470  Biso   1.000  N
  N101     1.0000 0.62500  0.12500  0.37530  Biso   1.000  N
  N102     1.0000 0.62500  0.12500  0.87470  Biso   1.000  N
  N103     1.0000 0.62500  0.62500  0.87530  Biso   1.000  N
  N104     1.0000 0.62500  0.62500  0.37470  Biso   1.000  N
  N105     1.0000 0.87500  0.87500  0.12470  Biso   1.000  N
  N106     1.0000 0.37500  0.37500  0.12470  Biso   1.000  N
  N107     1.0000 0.87500  0.37500  0.12530  Biso   1.000  N
  N108     1.0000 0.37500  0.87500  0.12530  Biso   1.000  N
  N109     1.0000 0.87500  0.37500  0.62470  Biso   1.000  N
  N110     1.0000 0.37500  0.87500  0.62470  Biso   1.000  N
  N111     1.0000 0.87500  0.87500  0.62530  Biso   1.000  N
  N112     1.0000 0.37500  0.37500  0.62530  Biso   1.000  N
  O1       1.0000 0.01640  0.37500  0.87500  Biso   1.000  O
  O2       1.0000 0.23360  0.87500  0.87500  Biso   1.000  O
  O3       1.0000 0.01640  0.87500  0.37500  Biso   1.000  O
  O4       1.0000 0.23360  0.37500  0.37500  Biso   1.000  O
  O5       1.0000 0.51640  0.37500  0.37500  Biso   1.000  O
  O6       1.0000 0.73360  0.87500  0.37500  Biso   1.000  O
  O7       1.0000 0.51640  0.87500  0.87500  Biso   1.000  O
  O8       1.0000 0.73360  0.37500  0.87500  Biso   1.000  O
  O9       1.0000 0.98360  0.62500  0.12500  Biso   1.000  O
  O10      1.0000 0.26640  0.62500  0.12500  Biso   1.000  O
  O11      1.0000 0.98360  0.12500  0.62500  Biso   1.000  O
  O12      1.0000 0.26640  0.12500  0.62500  Biso   1.000  O
  O13      1.0000 0.48360  0.62500  0.62500  Biso   1.000  O
  O14      1.0000 0.76640  0.62500  0.62500  Biso   1.000  O
  O15      1.0000 0.48360  0.12500  0.12500  Biso   1.000  O
  O16      1.0000 0.76640  0.12500  0.12500  Biso   1.000  O
  H193     1.0000 0.04560  0.32130  0.87580  Biso   1.000  H
  H194     1.0000 0.20440  0.92870  0.87580  Biso   1.000  H
  H195     1.0000 0.04560  0.92870  0.37420  Biso   1.000  H
  H196     1.0000 0.20440  0.32130  0.37420  Biso   1.000  H
  H197     1.0000 0.04560  0.82130  0.37580  Biso   1.000  H
  H198     1.0000 0.20440  0.42870  0.37580  Biso   1.000  H
  H199     1.0000 0.04560  0.42870  0.87420  Biso   1.000  H
  H200     1.0000 0.20440  0.82130  0.87420  Biso   1.000  H
  H201     1.0000 0.54560  0.32130  0.37580  Biso   1.000  H
  H202     1.0000 0.70440  0.92870  0.37580  Biso   1.000  H
  H203     1.0000 0.54560  0.92870  0.87420  Biso   1.000  H
  H204     1.0000 0.70440  0.32130  0.87420  Biso   1.000  H
  H205     1.0000 0.54560  0.82130  0.87580  Biso   1.000  H
  H206     1.0000 0.70440  0.42870  0.87580  Biso   1.000  H
  H207     1.0000 0.54560  0.42870  0.37420  Biso   1.000  H
  H208     1.0000 0.70440  0.82130  0.37420  Biso   1.000  H
  H209     1.0000 0.95440  0.67870  0.12420  Biso   1.000  H
  H210     1.0000 0.29560  0.57130  0.12420  Biso   1.000  H
  H211     1.0000 0.95440  0.57130  0.12580  Biso   1.000  H
  H212     1.0000 0.29560  0.67870  0.12580  Biso   1.000  H
  H213     1.0000 0.95440  0.17870  0.62420  Biso   1.000  H
  H214     1.0000 0.29560  0.07130  0.62420  Biso   1.000  H
  H215     1.0000 0.95440  0.07130  0.62580  Biso   1.000  H
  H216     1.0000 0.29560  0.17870  0.62580  Biso   1.000  H
  H217     1.0000 0.45440  0.67870  0.62420  Biso   1.000  H
  H218     1.0000 0.79560  0.57130  0.62420  Biso   1.000  H
  H219     1.0000 0.45440  0.57130  0.62580  Biso   1.000  H
  H220     1.0000 0.79560  0.67870  0.62580  Biso   1.000  H
  H221     1.0000 0.45440  0.17870  0.12420  Biso   1.000  H
  H222     1.0000 0.79560  0.07130  0.12420  Biso   1.000  H
  H223     1.0000 0.45440  0.07130  0.12580  Biso   1.000  H
  H224     1.0000 0.79560  0.17870  0.12580  Biso   1.000  H
  H225     1.0000 0.99680  0.39060  0.90580  Biso   1.000  H
  H226     1.0000 0.25320  0.85940  0.90580  Biso   1.000  H
  H227     1.0000 0.99680  0.85940  0.34420  Biso   1.000  H
  H228     1.0000 0.25320  0.39060  0.34420  Biso   1.000  H
  H229     1.0000 0.99680  0.89060  0.40580  Biso   1.000  H
  H230     1.0000 0.25320  0.35940  0.40580  Biso   1.000  H
  H231     1.0000 0.99680  0.35940  0.84420  Biso   1.000  H
  H232     1.0000 0.25320  0.89060  0.84420  Biso   1.000  H
  H233     1.0000 0.49680  0.39060  0.40580  Biso   1.000  H
  H234     1.0000 0.75320  0.85940  0.40580  Biso   1.000  H
  H235     1.0000 0.49680  0.85940  0.84420  Biso   1.000  H
  H236     1.0000 0.75320  0.39060  0.84420  Biso   1.000  H
  H237     1.0000 0.49680  0.89060  0.90580  Biso   1.000  H
  H238     1.0000 0.75320  0.35940  0.90580  Biso   1.000  H
  H239     1.0000 0.49680  0.35940  0.34420  Biso   1.000  H
  H240     1.0000 0.75320  0.89060  0.34420  Biso   1.000  H
  H241     1.0000 0.00320  0.60940  0.09420  Biso   1.000  H
  H242     1.0000 0.24680  0.64060  0.09420  Biso   1.000  H
  H243     1.0000 0.00320  0.64060  0.15580  Biso   1.000  H
  H244     1.0000 0.24680  0.60940  0.15580  Biso   1.000  H
  H245     1.0000 0.00320  0.10940  0.59420  Biso   1.000  H
  H246     1.0000 0.24680  0.14060  0.59420  Biso   1.000  H
  H247     1.0000 0.00320  0.14060  0.65580  Biso   1.000  H
  H248     1.0000 0.24680  0.10940  0.65580  Biso   1.000  H
  H249     1.0000 0.50320  0.60940  0.59420  Biso   1.000  H
  H250     1.0000 0.74680  0.64060  0.59420  Biso   1.000  H
  H251     1.0000 0.50320  0.64060  0.65580  Biso   1.000  H
  H252     1.0000 0.74680  0.60940  0.65580  Biso   1.000  H
  H253     1.0000 0.50320  0.10940  0.09420  Biso   1.000  H
  H254     1.0000 0.74680  0.14060  0.09420  Biso   1.000  H
  H255     1.0000 0.50320  0.14060  0.15580  Biso   1.000  H
  H256     1.0000 0.74680  0.10940  0.15580  Biso   1.000  H
  O17      1.0000 0.16730  0.06320  0.89710  Biso   1.000  O
  O18      1.0000 0.08270  0.18680  0.89710  Biso   1.000  O
  O19      1.0000 0.16730  0.18680  0.35290  Biso   1.000  O
  O20      1.0000 0.08270  0.06320  0.35290  Biso   1.000  O
  O21      1.0000 0.16730  0.56320  0.39710  Biso   1.000  O
  O22      1.0000 0.08270  0.68680  0.39710  Biso   1.000  O
  O23      1.0000 0.16730  0.68680  0.85290  Biso   1.000  O
  O24      1.0000 0.08270  0.56320  0.85290  Biso   1.000  O
  O25      1.0000 0.66730  0.06320  0.39710  Biso   1.000  O
  O26      1.0000 0.58270  0.18680  0.39710  Biso   1.000  O
  O27      1.0000 0.66730  0.18680  0.85290  Biso   1.000  O
  O28      1.0000 0.58270  0.06320  0.85290  Biso   1.000  O
  O29      1.0000 0.66730  0.56320  0.89710  Biso   1.000  O
  O30      1.0000 0.58270  0.68680  0.89710  Biso   1.000  O
  O31      1.0000 0.66730  0.68680  0.35290  Biso   1.000  O
  O32      1.0000 0.58270  0.56320  0.35290  Biso   1.000  O
  O33      1.0000 0.83270  0.93680  0.10290  Biso   1.000  O
  O34      1.0000 0.41730  0.31320  0.10290  Biso   1.000  O
  O35      1.0000 0.83270  0.31320  0.14710  Biso   1.000  O
  O36      1.0000 0.41730  0.93680  0.14710  Biso   1.000  O
  O37      1.0000 0.83270  0.43680  0.60290  Biso   1.000  O
  O38      1.0000 0.41730  0.81320  0.60290  Biso   1.000  O
  O39      1.0000 0.83270  0.81320  0.64710  Biso   1.000  O
  O40      1.0000 0.41730  0.43680  0.64710  Biso   1.000  O
  O41      1.0000 0.33270  0.93680  0.60290  Biso   1.000  O
  O42      1.0000 0.91730  0.31320  0.60290  Biso   1.000  O
  O43      1.0000 0.33270  0.31320  0.64710  Biso   1.000  O
  O44      1.0000 0.91730  0.93680  0.64710  Biso   1.000  O
  O45      1.0000 0.33270  0.43680  0.10290  Biso   1.000  O
  O46      1.0000 0.91730  0.81320  0.10290  Biso   1.000  O
  O47      1.0000 0.33270  0.81320  0.14710  Biso   1.000  O
  O48      1.0000 0.91730  0.43680  0.14710  Biso   1.000  O
  O49      1.0000 0.12500  0.12500  0.82640  Biso   1.000  O
  O50      1.0000 0.12500  0.12500  0.42360  Biso   1.000  O
  O51      1.0000 0.12500  0.62500  0.32640  Biso   1.000  O
  O52      1.0000 0.12500  0.62500  0.92360  Biso   1.000  O
  O53      1.0000 0.62500  0.12500  0.32640  Biso   1.000  O
  O54      1.0000 0.62500  0.12500  0.92360  Biso   1.000  O
  O55      1.0000 0.62500  0.62500  0.82640  Biso   1.000  O
  O56      1.0000 0.62500  0.62500  0.42360  Biso   1.000  O
  O57      1.0000 0.87500  0.87500  0.17360  Biso   1.000  O
  O58      1.0000 0.37500  0.37500  0.17360  Biso   1.000  O
  O59      1.0000 0.87500  0.37500  0.07640  Biso   1.000  O
  O60      1.0000 0.37500  0.87500  0.07640  Biso   1.000  O
  O61      1.0000 0.87500  0.37500  0.67360  Biso   1.000  O
  O62      1.0000 0.37500  0.87500  0.67360  Biso   1.000  O
  O63      1.0000 0.87500  0.87500  0.57640  Biso   1.000  O
  O64      1.0000 0.37500  0.37500  0.57640  Biso   1.000  O
  O65      1.0000 0.06260  0.15260  0.89690  Biso   1.000  O
  O66      1.0000 0.18740  0.09740  0.89690  Biso   1.000  O
  O67      1.0000 0.06260  0.09740  0.35310  Biso   1.000  O
  O68      1.0000 0.18740  0.15260  0.35310  Biso   1.000  O
  O69      1.0000 0.06260  0.65260  0.39690  Biso   1.000  O
  O70      1.0000 0.18740  0.59740  0.39690  Biso   1.000  O
  O71      1.0000 0.06260  0.59740  0.85310  Biso   1.000  O
  O72      1.0000 0.18740  0.65260  0.85310  Biso   1.000  O
  O73      1.0000 0.56260  0.15260  0.39690  Biso   1.000  O
  O74      1.0000 0.68740  0.09740  0.39690  Biso   1.000  O
  O75      1.0000 0.56260  0.09740  0.85310  Biso   1.000  O
  O76      1.0000 0.68740  0.15260  0.85310  Biso   1.000  O
  O77      1.0000 0.56260  0.65260  0.89690  Biso   1.000  O
  O78      1.0000 0.68740  0.59740  0.89690  Biso   1.000  O
  O79      1.0000 0.56260  0.59740  0.35310  Biso   1.000  O
  O80      1.0000 0.68740  0.65260  0.35310  Biso   1.000  O
  O81      1.0000 0.93740  0.84740  0.10310  Biso   1.000  O
  O82      1.0000 0.31260  0.40260  0.10310  Biso   1.000  O
  O83      1.0000 0.93740  0.40260  0.14690  Biso   1.000  O
  O84      1.0000 0.31260  0.84740  0.14690  Biso   1.000  O
  O85      1.0000 0.93740  0.34740  0.60310  Biso   1.000  O
  O86      1.0000 0.31260  0.90260  0.60310  Biso   1.000  O
  O87      1.0000 0.93740  0.90260  0.64690  Biso   1.000  O
  O88      1.0000 0.31260  0.34740  0.64690  Biso   1.000  O
  O89      1.0000 0.43740  0.84740  0.60310  Biso   1.000  O
  O90      1.0000 0.81260  0.40260  0.60310  Biso   1.000  O
  O91      1.0000 0.43740  0.40260  0.64690  Biso   1.000  O
  O92      1.0000 0.81260  0.84740  0.64690  Biso   1.000  O
  O93      1.0000 0.43740  0.34740  0.10310  Biso   1.000  O
  O94      1.0000 0.81260  0.90260  0.10310  Biso   1.000  O
  O95      1.0000 0.43740  0.90260  0.14690  Biso   1.000  O
  O96      1.0000 0.81260  0.34740  0.14690  Biso   1.000  O
  O97      1.0000 0.13000  0.20680  0.85720  Biso   1.000  O
  O98      1.0000 0.12000  0.04320  0.85720  Biso   1.000  O
  O99      1.0000 0.13000  0.04320  0.39280  Biso   1.000  O
  O100     1.0000 0.12000  0.20680  0.39280  Biso   1.000  O
  O101     1.0000 0.13000  0.70680  0.35720  Biso   1.000  O
  O102     1.0000 0.12000  0.54320  0.35720  Biso   1.000  O
  O103     1.0000 0.13000  0.54320  0.89280  Biso   1.000  O
  O104     1.0000 0.12000  0.70680  0.89280  Biso   1.000  O
  O105     1.0000 0.63000  0.20680  0.35720  Biso   1.000  O
  O106     1.0000 0.62000  0.04320  0.35720  Biso   1.000  O
  O107     1.0000 0.63000  0.04320  0.89280  Biso   1.000  O
  O108     1.0000 0.62000  0.20680  0.89280  Biso   1.000  O
  O109     1.0000 0.63000  0.70680  0.85720  Biso   1.000  O
  O110     1.0000 0.62000  0.54320  0.85720  Biso   1.000  O
  O111     1.0000 0.63000  0.54320  0.39280  Biso   1.000  O
  O112     1.0000 0.62000  0.70680  0.39280  Biso   1.000  O
  O113     1.0000 0.87000  0.79320  0.14280  Biso   1.000  O
  O114     1.0000 0.38000  0.45680  0.14280  Biso   1.000  O
  O115     1.0000 0.87000  0.45680  0.10720  Biso   1.000  O
  O116     1.0000 0.38000  0.79320  0.10720  Biso   1.000  O
  O117     1.0000 0.87000  0.29320  0.64280  Biso   1.000  O
  O118     1.0000 0.38000  0.95680  0.64280  Biso   1.000  O
  O119     1.0000 0.87000  0.95680  0.60720  Biso   1.000  O
  O120     1.0000 0.38000  0.29320  0.60720  Biso   1.000  O
  O121     1.0000 0.37000  0.79320  0.64280  Biso   1.000  O
  O122     1.0000 0.88000  0.45680  0.64280  Biso   1.000  O
  O123     1.0000 0.37000  0.45680  0.60720  Biso   1.000  O
  O124     1.0000 0.88000  0.79320  0.60720  Biso   1.000  O
  O125     1.0000 0.37000  0.29320  0.14280  Biso   1.000  O
  O126     1.0000 0.88000  0.95680  0.14280  Biso   1.000  O
  O127     1.0000 0.37000  0.95680  0.10720  Biso   1.000  O
  O128     1.0000 0.88000  0.29320  0.10720  Biso   1.000  O
  O129     1.0000 0.05380  0.08640  0.87720  Biso   1.000  O
  O130     1.0000 0.19620  0.16360  0.87720  Biso   1.000  O
  O131     1.0000 0.05380  0.16360  0.37280  Biso   1.000  O
  O132     1.0000 0.19620  0.08640  0.37280  Biso   1.000  O
  O133     1.0000 0.05380  0.58640  0.37720  Biso   1.000  O
  O134     1.0000 0.19620  0.66360  0.37720  Biso   1.000  O
  O135     1.0000 0.05380  0.66360  0.87280  Biso   1.000  O
  O136     1.0000 0.19620  0.58640  0.87280  Biso   1.000  O
  O137     1.0000 0.55380  0.08640  0.37720  Biso   1.000  O
  O138     1.0000 0.69620  0.16360  0.37720  Biso   1.000  O
  O139     1.0000 0.55380  0.16360  0.87280  Biso   1.000  O
  O140     1.0000 0.69620  0.08640  0.87280  Biso   1.000  O
  O141     1.0000 0.55380  0.58640  0.87720  Biso   1.000  O
  O142     1.0000 0.69620  0.66360  0.87720  Biso   1.000  O
  O143     1.0000 0.55380  0.66360  0.37280  Biso   1.000  O
  O144     1.0000 0.69620  0.58640  0.37280  Biso   1.000  O
  O145     1.0000 0.94620  0.91360  0.12280  Biso   1.000  O
  O146     1.0000 0.30380  0.33640  0.12280  Biso   1.000  O
  O147     1.0000 0.94620  0.33640  0.12720  Biso   1.000  O
  O148     1.0000 0.30380  0.91360  0.12720  Biso   1.000  O
  O149     1.0000 0.94620  0.41360  0.62280  Biso   1.000  O
  O150     1.0000 0.30380  0.83640  0.62280  Biso   1.000  O
  O151     1.0000 0.94620  0.83640  0.62720  Biso   1.000  O
  O152     1.0000 0.30380  0.41360  0.62720  Biso   1.000  O
  O153     1.0000 0.44620  0.91360  0.62280  Biso   1.000  O
  O154     1.0000 0.80380  0.33640  0.62280  Biso   1.000  O
  O155     1.0000 0.44620  0.33640  0.62720  Biso   1.000  O
  O156     1.0000 0.80380  0.91360  0.62720  Biso   1.000  O
  O157     1.0000 0.44620  0.41360  0.12280  Biso   1.000  O
  O158     1.0000 0.80380  0.83640  0.12280  Biso   1.000  O
  O159     1.0000 0.44620  0.83640  0.12720  Biso   1.000  O
  O160     1.0000 0.80380  0.41360  0.12720  Biso   1.000  O
