data_image0
_cell_length_a       12.765
_cell_length_b       32.777
_cell_length_c       18.378
_cell_angle_alpha    90
_cell_angle_beta     94.61
_cell_angle_gamma    90

_symmetry_space_group_name_H-M    "P 1"
_symmetry_int_tables_number       1

loop_
  _symmetry_equiv_pos_as_xyz
  'x, y, z'

loop_
  _atom_site_label
  _atom_site_occupancy
  _atom_site_fract_x
  _atom_site_fract_y
  _atom_site_fract_z
  _atom_site_thermal_displace_type
  _atom_site_B_iso_or_equiv
  _atom_site_type_symbol
  C1       1.0000 0.59260  0.59169  0.88860  Biso   1.000  C
  C2       1.0000 0.40740  0.09169  0.61140  Biso   1.000  C
  C3       1.0000 0.40740  0.40831  0.11140  Biso   1.000  C
  C4       1.0000 0.59260  0.90831  0.38860  Biso   1.000  C
  C5       1.0000 0.51540  0.44181  0.35460  Biso   1.000  C
  C6       1.0000 0.48460  0.94181  0.14540  Biso   1.000  C
  C7       1.0000 0.48460  0.55819  0.64540  Biso   1.000  C
  C8       1.0000 0.51540  0.05819  0.85460  Biso   1.000  C
  C9       1.0000 0.49420  0.47706  0.40520  Biso   1.000  C
  C10      1.0000 0.50580  0.97706  0.09480  Biso   1.000  C
  C11      1.0000 0.50580  0.52294  0.59480  Biso   1.000  C
  C12      1.0000 0.49420  0.02294  0.90520  Biso   1.000  C
  H1       1.0000 0.45760  0.46670  0.44560  Biso   1.000  H
  H2       1.0000 0.54240  0.96670  0.05440  Biso   1.000  H
  H3       1.0000 0.54240  0.53330  0.55440  Biso   1.000  H
  H4       1.0000 0.45760  0.03330  0.94560  Biso   1.000  H
  H5       1.0000 0.56090  0.48810  0.42520  Biso   1.000  H
  H6       1.0000 0.43910  0.98810  0.07480  Biso   1.000  H
  H7       1.0000 0.43910  0.51190  0.57480  Biso   1.000  H
  H8       1.0000 0.56090  0.01190  0.92520  Biso   1.000  H
  C13      1.0000 0.95740  0.77193  0.12640  Biso   1.000  C
  C14      1.0000 0.04260  0.27193  0.37360  Biso   1.000  C
  C15      1.0000 0.04260  0.22807  0.87360  Biso   1.000  C
  C16      1.0000 0.95740  0.72807  0.62640  Biso   1.000  C
  C17      1.0000 0.03810  0.18745  0.61440  Biso   1.000  C
  C18      1.0000 0.96190  0.68745  0.88560  Biso   1.000  C
  C19      1.0000 0.96190  0.81255  0.38560  Biso   1.000  C
  C20      1.0000 0.03810  0.31255  0.11440  Biso   1.000  C
  C21      1.0000 0.96980  0.15570  0.57270  Biso   1.000  C
  C22      1.0000 0.03020  0.65570  0.92730  Biso   1.000  C
  C23      1.0000 0.03020  0.84430  0.42730  Biso   1.000  C
  C24      1.0000 0.96980  0.34430  0.07270  Biso   1.000  C
  H9       1.0000 0.96190  0.13200  0.60340  Biso   1.000  H
  H10      1.0000 0.03810  0.63200  0.89660  Biso   1.000  H
  H11      1.0000 0.03810  0.86800  0.39660  Biso   1.000  H
  H12      1.0000 0.96190  0.36800  0.10340  Biso   1.000  H
  H13      1.0000 0.00360  0.14700  0.52980  Biso   1.000  H
  H14      1.0000 0.99640  0.64700  0.97020  Biso   1.000  H
  H15      1.0000 0.99640  0.85300  0.47020  Biso   1.000  H
  H16      1.0000 0.00360  0.35300  0.02980  Biso   1.000  H
  C25      1.0000 0.85330  0.83646  0.14600  Biso   1.000  C
  C26      1.0000 0.14670  0.33646  0.35400  Biso   1.000  C
  C27      1.0000 0.14670  0.16354  0.85400  Biso   1.000  C
  C28      1.0000 0.85330  0.66354  0.64600  Biso   1.000  C
  H17      1.0000 0.89000  0.84870  0.10720  Biso   1.000  H
  H18      1.0000 0.11000  0.34870  0.39280  Biso   1.000  H
  H19      1.0000 0.11000  0.15130  0.89280  Biso   1.000  H
  H20      1.0000 0.89000  0.65130  0.60720  Biso   1.000  H
  H21      1.0000 0.84360  0.85740  0.18210  Biso   1.000  H
  H22      1.0000 0.15640  0.35740  0.31790  Biso   1.000  H
  H23      1.0000 0.15640  0.14260  0.81790  Biso   1.000  H
  H24      1.0000 0.84360  0.64260  0.68210  Biso   1.000  H
  C29      1.0000 0.92150  0.80188  0.18170  Biso   1.000  C
  C30      1.0000 0.07850  0.30188  0.31830  Biso   1.000  C
  C31      1.0000 0.07850  0.19812  0.81830  Biso   1.000  C
  C32      1.0000 0.92150  0.69812  0.68170  Biso   1.000  C
  C33      1.0000 0.06050  0.22370  0.56750  Biso   1.000  C
  C34      1.0000 0.93950  0.72370  0.93250  Biso   1.000  C
  C35      1.0000 0.93950  0.77630  0.43250  Biso   1.000  C
  C36      1.0000 0.06050  0.27630  0.06750  Biso   1.000  C
  C37      1.0000 0.48950  0.52554  0.90070  Biso   1.000  C
  C38      1.0000 0.51050  0.02554  0.59930  Biso   1.000  C
  C39      1.0000 0.51050  0.47446  0.09930  Biso   1.000  C
  C40      1.0000 0.48950  0.97446  0.40070  Biso   1.000  C
  H25      1.0000 0.54880  0.51610  0.93260  Biso   1.000  H
  H26      1.0000 0.45120  0.01610  0.56740  Biso   1.000  H
  H27      1.0000 0.45120  0.48390  0.06740  Biso   1.000  H
  H28      1.0000 0.54880  0.98390  0.43260  Biso   1.000  H
  H29      1.0000 0.43850  0.53730  0.93100  Biso   1.000  H
  H30      1.0000 0.56150  0.03730  0.56900  Biso   1.000  H
  H31      1.0000 0.56150  0.46270  0.06900  Biso   1.000  H
  H32      1.0000 0.43850  0.96270  0.43100  Biso   1.000  H
  C41      1.0000 0.52660  0.55812  0.85020  Biso   1.000  C
  C42      1.0000 0.47340  0.05812  0.64980  Biso   1.000  C
  C43      1.0000 0.47340  0.44188  0.14980  Biso   1.000  C
  C44      1.0000 0.52660  0.94188  0.35020  Biso   1.000  C
  C45      1.0000 0.58610  0.40926  0.39170  Biso   1.000  C
  C46      1.0000 0.41390  0.90926  0.10830  Biso   1.000  C
  C47      1.0000 0.41390  0.59074  0.60830  Biso   1.000  C
  C48      1.0000 0.58610  0.09074  0.89170  Biso   1.000  C
  C49      1.0000 0.69150  0.42594  0.41790  Biso   1.000  C
  C50      1.0000 0.30850  0.92594  0.08210  Biso   1.000  C
  C51      1.0000 0.30850  0.57406  0.58210  Biso   1.000  C
  C52      1.0000 0.69150  0.07406  0.91790  Biso   1.000  C
  C53      1.0000 0.76240  0.43843  0.36880  Biso   1.000  C
  C54      1.0000 0.23760  0.93843  0.13120  Biso   1.000  C
  C55      1.0000 0.23760  0.56157  0.63120  Biso   1.000  C
  C56      1.0000 0.76240  0.06157  0.86880  Biso   1.000  C
  H33      1.0000 0.74760  0.43380  0.31910  Biso   1.000  H
  H34      1.0000 0.25240  0.93380  0.18090  Biso   1.000  H
  H35      1.0000 0.25240  0.56620  0.68090  Biso   1.000  H
  H36      1.0000 0.74760  0.06620  0.81910  Biso   1.000  H
  C57      1.0000 0.85270  0.45729  0.39300  Biso   1.000  C
  C58      1.0000 0.14730  0.95729  0.10700  Biso   1.000  C
  C59      1.0000 0.14730  0.54271  0.60700  Biso   1.000  C
  C60      1.0000 0.85270  0.04271  0.89300  Biso   1.000  C
  H37      1.0000 0.89780  0.46590  0.35880  Biso   1.000  H
  H38      1.0000 0.10220  0.96590  0.14120  Biso   1.000  H
  H39      1.0000 0.10220  0.53410  0.64120  Biso   1.000  H
  H40      1.0000 0.89780  0.03410  0.85880  Biso   1.000  H
  C61      1.0000 0.81600  0.45046  0.51150  Biso   1.000  C
  C62      1.0000 0.18400  0.95046  0.98850  Biso   1.000  C
  C63      1.0000 0.18400  0.54954  0.48850  Biso   1.000  C
  C64      1.0000 0.81600  0.04954  0.01150  Biso   1.000  C
  H41      1.0000 0.83520  0.45330  0.56110  Biso   1.000  H
  H42      1.0000 0.16480  0.95330  0.93890  Biso   1.000  H
  H43      1.0000 0.16480  0.54670  0.43890  Biso   1.000  H
  H44      1.0000 0.83520  0.04670  0.06110  Biso   1.000  H
  C65      1.0000 0.72210  0.43218  0.49020  Biso   1.000  C
  C66      1.0000 0.27790  0.93218  0.00980  Biso   1.000  C
  C67      1.0000 0.27790  0.56782  0.50980  Biso   1.000  C
  C68      1.0000 0.72210  0.06782  0.99020  Biso   1.000  C
  H45      1.0000 0.67830  0.42380  0.52540  Biso   1.000  H
  H46      1.0000 0.32170  0.92380  0.97460  Biso   1.000  H
  H47      1.0000 0.32170  0.57620  0.47460  Biso   1.000  H
  H48      1.0000 0.67830  0.07620  0.02540  Biso   1.000  H
  C69      1.0000 0.16680  0.44001  0.49680  Biso   1.000  C
  C70      1.0000 0.83320  0.94001  0.00320  Biso   1.000  C
  C71      1.0000 0.83320  0.55999  0.50320  Biso   1.000  C
  C72      1.0000 0.16680  0.05999  0.99680  Biso   1.000  C
  N1       1.0000 0.88070  0.46427  0.46427  Biso   1.000  N
  N2       1.0000 0.11930  0.96427  0.03573  Biso   1.000  N
  N3       1.0000 0.11930  0.53573  0.53573  Biso   1.000  N
  N4       1.0000 0.88070  0.03573  0.96427  Biso   1.000  N
  O1       1.0000 0.12853  0.45826  0.44219  Biso   1.000  O
  O2       1.0000 0.87147  0.95826  0.05781  Biso   1.000  O
  O3       1.0000 0.87147  0.54174  0.55781  Biso   1.000  O
  O4       1.0000 0.12853  0.04174  0.94219  Biso   1.000  O
  O5       1.0000 0.74600  0.08782  0.66465  Biso   1.000  O
  O6       1.0000 0.25400  0.58782  0.83535  Biso   1.000  O
  O7       1.0000 0.25400  0.91218  0.33535  Biso   1.000  O
  O8       1.0000 0.74600  0.41218  0.16465  Biso   1.000  O
  O9       1.0000 0.62030  0.14358  0.73000  Biso   1.000  O
  O10      1.0000 0.37970  0.64358  0.77000  Biso   1.000  O
  O11      1.0000 0.37970  0.85642  0.27000  Biso   1.000  O
  O12      1.0000 0.62030  0.35642  0.23000  Biso   1.000  O
  O13      1.0000 0.93800  0.10810  0.73784  Biso   1.000  O
  O14      1.0000 0.06200  0.60810  0.76216  Biso   1.000  O
  O15      1.0000 0.06200  0.89190  0.26216  Biso   1.000  O
  O16      1.0000 0.93800  0.39190  0.23784  Biso   1.000  O
  O17      1.0000 0.81090  0.16075  0.80669  Biso   1.000  O
  O18      1.0000 0.18910  0.66075  0.69331  Biso   1.000  O
  O19      1.0000 0.18910  0.83925  0.19331  Biso   1.000  O
  O20      1.0000 0.81090  0.33925  0.30669  Biso   1.000  O
  O21      1.0000 0.54810  0.22583  0.22930  Biso   1.000  O
  O22      1.0000 0.45190  0.72583  0.27070  Biso   1.000  O
  O23      1.0000 0.45190  0.77417  0.77070  Biso   1.000  O
  O24      1.0000 0.54810  0.27417  0.72930  Biso   1.000  O
  O25      1.0000 0.46040  0.29897  0.18282  Biso   1.000  O
  O26      1.0000 0.53960  0.79897  0.31718  Biso   1.000  O
  O27      1.0000 0.53960  0.70103  0.81718  Biso   1.000  O
  O28      1.0000 0.46040  0.20103  0.68282  Biso   1.000  O
  O29      1.0000 0.01560  0.47647  0.74070  Biso   1.000  O
  O30      1.0000 0.98440  0.97647  0.75930  Biso   1.000  O
  O31      1.0000 0.98440  0.52353  0.25930  Biso   1.000  O
  O32      1.0000 0.01560  0.02353  0.24070  Biso   1.000  O
  O33      1.0000 0.90560  0.54980  0.71324  Biso   1.000  O
  O34      1.0000 0.09440  0.04980  0.78676  Biso   1.000  O
  O35      1.0000 0.09440  0.45020  0.28676  Biso   1.000  O
  O36      1.0000 0.90560  0.95020  0.21324  Biso   1.000  O
  H49      1.0000 0.55800  0.60050  0.92780  Biso   1.000  H
  H50      1.0000 0.44200  0.10050  0.57220  Biso   1.000  H
  H51      1.0000 0.44200  0.39950  0.07220  Biso   1.000  H
  H52      1.0000 0.55800  0.89950  0.42780  Biso   1.000  H
  H53      1.0000 0.61000  0.61530  0.85600  Biso   1.000  H
  H54      1.0000 0.39000  0.11530  0.64400  Biso   1.000  H
  H55      1.0000 0.39000  0.38470  0.14400  Biso   1.000  H
  H56      1.0000 0.61000  0.88470  0.35600  Biso   1.000  H
  H57      1.0000 0.54000  0.45360  0.31210  Biso   1.000  H
  H58      1.0000 0.46000  0.95360  0.18790  Biso   1.000  H
  H59      1.0000 0.46000  0.54640  0.68790  Biso   1.000  H
  H60      1.0000 0.54000  0.04640  0.81210  Biso   1.000  H
  H61      1.0000 0.45000  0.43040  0.33560  Biso   1.000  H
  H62      1.0000 0.55000  0.93040  0.16440  Biso   1.000  H
  H63      1.0000 0.55000  0.56960  0.66440  Biso   1.000  H
  H64      1.0000 0.45000  0.06960  0.83560  Biso   1.000  H
  H65      1.0000 0.00800  0.79040  0.09270  Biso   1.000  H
  H66      1.0000 0.99200  0.29040  0.40730  Biso   1.000  H
  H67      1.0000 0.99200  0.20960  0.90730  Biso   1.000  H
  H68      1.0000 0.00800  0.70960  0.59270  Biso   1.000  H
  H69      1.0000 0.90200  0.76390  0.09760  Biso   1.000  H
  H70      1.0000 0.09800  0.26390  0.40240  Biso   1.000  H
  H71      1.0000 0.09800  0.23610  0.90240  Biso   1.000  H
  H72      1.0000 0.90200  0.73610  0.59760  Biso   1.000  H
  H73      1.0000 0.00700  0.19540  0.66690  Biso   1.000  H
  H74      1.0000 0.99300  0.69540  0.83310  Biso   1.000  H
  H75      1.0000 0.99300  0.80460  0.33310  Biso   1.000  H
  H76      1.0000 0.00700  0.30460  0.16690  Biso   1.000  H
  H77      1.0000 0.10200  0.17500  0.63310  Biso   1.000  H
  H78      1.0000 0.89800  0.67500  0.86690  Biso   1.000  H
  H79      1.0000 0.89800  0.82500  0.36690  Biso   1.000  H
  H80      1.0000 0.10200  0.32500  0.13310  Biso   1.000  H
  H81      1.0000 0.80410  0.08640  0.68150  Biso   1.000  H
  H82      1.0000 0.19590  0.58640  0.81850  Biso   1.000  H
  H83      1.0000 0.19590  0.91360  0.31850  Biso   1.000  H
  H84      1.0000 0.80410  0.41360  0.18150  Biso   1.000  H
  H85      1.0000 0.73890  0.11030  0.64610  Biso   1.000  H
  H86      1.0000 0.26110  0.61030  0.85390  Biso   1.000  H
  H87      1.0000 0.26110  0.88970  0.35390  Biso   1.000  H
  H88      1.0000 0.73890  0.38970  0.14610  Biso   1.000  H
  H89      1.0000 0.64090  0.13240  0.68410  Biso   1.000  H
  H90      1.0000 0.35910  0.63240  0.81590  Biso   1.000  H
  H91      1.0000 0.35910  0.86760  0.31590  Biso   1.000  H
  H92      1.0000 0.64090  0.36760  0.18410  Biso   1.000  H
  H93      1.0000 0.66480  0.16610  0.75480  Biso   1.000  H
  H94      1.0000 0.33520  0.66610  0.74520  Biso   1.000  H
  H95      1.0000 0.33520  0.83390  0.24520  Biso   1.000  H
  H96      1.0000 0.66480  0.33390  0.25480  Biso   1.000  H
  H97      1.0000 0.89740  0.08550  0.72740  Biso   1.000  H
  H98      1.0000 0.10260  0.58550  0.77260  Biso   1.000  H
  H99      1.0000 0.10260  0.91450  0.27260  Biso   1.000  H
  H100     1.0000 0.89740  0.41450  0.22740  Biso   1.000  H
  H101     1.0000 0.99600  0.09540  0.74320  Biso   1.000  H
  H102     1.0000 0.00400  0.59540  0.75680  Biso   1.000  H
  H103     1.0000 0.00400  0.90460  0.25680  Biso   1.000  H
  H104     1.0000 0.99600  0.40460  0.24320  Biso   1.000  H
  H105     1.0000 0.86790  0.13940  0.79420  Biso   1.000  H
  H106     1.0000 0.13210  0.63940  0.70580  Biso   1.000  H
  H107     1.0000 0.13210  0.86060  0.20580  Biso   1.000  H
  H108     1.0000 0.86790  0.36060  0.29420  Biso   1.000  H
  H109     1.0000 0.83730  0.16310  0.85840  Biso   1.000  H
  H110     1.0000 0.16270  0.66310  0.64160  Biso   1.000  H
  H111     1.0000 0.16270  0.83690  0.14160  Biso   1.000  H
  H112     1.0000 0.83730  0.33690  0.35840  Biso   1.000  H
  H113     1.0000 0.54220  0.20290  0.20030  Biso   1.000  H
  H114     1.0000 0.45780  0.70290  0.29970  Biso   1.000  H
  H115     1.0000 0.45780  0.79710  0.79970  Biso   1.000  H
  H116     1.0000 0.54220  0.29710  0.70030  Biso   1.000  H
  H117     1.0000 0.43440  0.29980  0.13010  Biso   1.000  H
  H118     1.0000 0.56560  0.79980  0.36990  Biso   1.000  H
  H119     1.0000 0.56560  0.70020  0.86990  Biso   1.000  H
  H120     1.0000 0.43440  0.20020  0.63010  Biso   1.000  H
  H121     1.0000 0.49990  0.31710  0.18070  Biso   1.000  H
  H122     1.0000 0.50010  0.81710  0.31930  Biso   1.000  H
  H123     1.0000 0.50010  0.68290  0.81930  Biso   1.000  H
  H124     1.0000 0.49990  0.18290  0.68070  Biso   1.000  H
  H125     1.0000 0.04840  0.47140  0.69660  Biso   1.000  H
  H126     1.0000 0.95160  0.97140  0.80340  Biso   1.000  H
  H127     1.0000 0.95160  0.52860  0.30340  Biso   1.000  H
  H128     1.0000 0.04840  0.02860  0.19660  Biso   1.000  H
  H129     1.0000 0.95410  0.48160  0.72200  Biso   1.000  H
  H130     1.0000 0.04590  0.98160  0.77800  Biso   1.000  H
  H131     1.0000 0.04590  0.51840  0.27800  Biso   1.000  H
  H132     1.0000 0.95410  0.01840  0.22200  Biso   1.000  H
  H133     1.0000 0.88000  0.78590  0.21850  Biso   1.000  H
  H134     1.0000 0.12000  0.28590  0.28150  Biso   1.000  H
  H135     1.0000 0.12000  0.21410  0.78150  Biso   1.000  H
  H136     1.0000 0.88000  0.71410  0.71850  Biso   1.000  H
  H137     1.0000 0.98800  0.81410  0.20670  Biso   1.000  H
  H138     1.0000 0.01200  0.31410  0.29330  Biso   1.000  H
  H139     1.0000 0.01200  0.18590  0.79330  Biso   1.000  H
  H140     1.0000 0.98800  0.68590  0.70670  Biso   1.000  H
  H141     1.0000 0.00300  0.23340  0.54300  Biso   1.000  H
  H142     1.0000 0.99700  0.73340  0.95700  Biso   1.000  H
  H143     1.0000 0.99700  0.76660  0.45700  Biso   1.000  H
  H144     1.0000 0.00300  0.26660  0.04300  Biso   1.000  H
  H145     1.0000 0.10400  0.21750  0.53490  Biso   1.000  H
  H146     1.0000 0.89600  0.71750  0.96510  Biso   1.000  H
  H147     1.0000 0.89600  0.78250  0.46510  Biso   1.000  H
  H148     1.0000 0.10400  0.28250  0.03490  Biso   1.000  H
  H149     1.0000 0.56300  0.54400  0.81400  Biso   1.000  H
  H150     1.0000 0.43700  0.04400  0.68600  Biso   1.000  H
  H151     1.0000 0.43700  0.45600  0.18600  Biso   1.000  H
  H152     1.0000 0.56300  0.95600  0.31400  Biso   1.000  H
  H153     1.0000 0.46800  0.57030  0.82270  Biso   1.000  H
  H154     1.0000 0.53200  0.07030  0.67730  Biso   1.000  H
  H155     1.0000 0.53200  0.42970  0.17730  Biso   1.000  H
  H156     1.0000 0.46800  0.92970  0.32270  Biso   1.000  H
  H157     1.0000 0.54900  0.39710  0.43300  Biso   1.000  H
  H158     1.0000 0.45100  0.89710  0.06700  Biso   1.000  H
  H159     1.0000 0.45100  0.60290  0.56700  Biso   1.000  H
  H160     1.0000 0.54900  0.10290  0.93300  Biso   1.000  H
  H161     1.0000 0.59700  0.38930  0.36400  Biso   1.000  H
  H162     1.0000 0.40300  0.88930  0.13600  Biso   1.000  H
  H163     1.0000 0.40300  0.61070  0.63600  Biso   1.000  H
  H164     1.0000 0.59700  0.11070  0.86400  Biso   1.000  H
  H165     1.0000 0.50070  0.24130  0.21310  Biso   1.000  H
  H166     1.0000 0.49930  0.74130  0.28690  Biso   1.000  H
  H167     1.0000 0.49930  0.75870  0.78690  Biso   1.000  H
  H168     1.0000 0.50070  0.25870  0.71310  Biso   1.000  H
  H169     1.0000 0.96070  0.54630  0.74610  Biso   1.000  H
  H170     1.0000 0.03930  0.04630  0.75390  Biso   1.000  H
  H171     1.0000 0.03930  0.45370  0.25390  Biso   1.000  H
  H172     1.0000 0.96070  0.95370  0.24610  Biso   1.000  H
  H173     1.0000 0.89670  0.55850  0.65060  Biso   1.000  H
  H174     1.0000 0.10330  0.05850  0.84940  Biso   1.000  H
  H175     1.0000 0.10330  0.44150  0.34940  Biso   1.000  H
  H176     1.0000 0.89670  0.94150  0.15060  Biso   1.000  H
  C73      1.0000 0.86530  0.54930  0.89770  Biso   1.000  C
  C74      1.0000 0.13470  0.04930  0.60230  Biso   1.000  C
  C75      1.0000 0.13470  0.45070  0.10230  Biso   1.000  C
  C76      1.0000 0.86530  0.95070  0.39770  Biso   1.000  C
  H177     1.0000 0.91630  0.54430  0.86540  Biso   1.000  H
  H178     1.0000 0.08370  0.04430  0.63460  Biso   1.000  H
  H179     1.0000 0.08370  0.45570  0.13460  Biso   1.000  H
  H180     1.0000 0.91630  0.95570  0.36540  Biso   1.000  H
  C77      1.0000 0.77550  0.56800  0.87230  Biso   1.000  C
  C78      1.0000 0.22450  0.06800  0.62770  Biso   1.000  C
  C79      1.0000 0.22450  0.43200  0.12770  Biso   1.000  C
  C80      1.0000 0.77550  0.93200  0.37230  Biso   1.000  C
  H181     1.0000 0.76650  0.57590  0.82360  Biso   1.000  H
  H182     1.0000 0.23350  0.07590  0.67640  Biso   1.000  H
  H183     1.0000 0.23350  0.42410  0.17640  Biso   1.000  H
  H184     1.0000 0.76650  0.92410  0.32360  Biso   1.000  H
  C81      1.0000 0.69620  0.57562  0.91810  Biso   1.000  C
  C82      1.0000 0.30380  0.07562  0.58190  Biso   1.000  C
  C83      1.0000 0.30380  0.42438  0.08190  Biso   1.000  C
  C84      1.0000 0.69620  0.92438  0.41810  Biso   1.000  C
  C85      1.0000 0.71790  0.56500  0.99050  Biso   1.000  C
  C86      1.0000 0.28210  0.06500  0.50950  Biso   1.000  C
  C87      1.0000 0.28210  0.43500  0.00950  Biso   1.000  C
  C88      1.0000 0.71790  0.93500  0.49050  Biso   1.000  C
  H185     1.0000 0.66890  0.57040  0.02410  Biso   1.000  H
  H186     1.0000 0.33110  0.07040  0.47590  Biso   1.000  H
  H187     1.0000 0.33110  0.42960  0.97590  Biso   1.000  H
  H188     1.0000 0.66890  0.92960  0.52410  Biso   1.000  H
  C89      1.0000 0.81100  0.54667  0.01320  Biso   1.000  C
  C90      1.0000 0.18900  0.04667  0.48680  Biso   1.000  C
  C91      1.0000 0.18900  0.45333  0.98680  Biso   1.000  C
  C92      1.0000 0.81100  0.95333  0.51320  Biso   1.000  C
  H189     1.0000 0.82390  0.54020  0.06240  Biso   1.000  H
  H190     1.0000 0.17610  0.04020  0.43760  Biso   1.000  H
  H191     1.0000 0.17610  0.45980  0.93760  Biso   1.000  H
  H192     1.0000 0.82390  0.95980  0.56240  Biso   1.000  H
  C93      1.0000 0.43030  0.51103  0.36910  Biso   1.000  C
  C94      1.0000 0.56970  0.01103  0.13090  Biso   1.000  C
  C95      1.0000 0.56970  0.48897  0.63090  Biso   1.000  C
  C96      1.0000 0.43030  0.98897  0.86910  Biso   1.000  C
  C97      1.0000 0.32830  0.50556  0.34030  Biso   1.000  C
  C98      1.0000 0.67170  0.00556  0.15970  Biso   1.000  C
  C99      1.0000 0.67170  0.49444  0.65970  Biso   1.000  C
  C100     1.0000 0.32830  0.99444  0.84030  Biso   1.000  C
  H193     1.0000 0.29760  0.47990  0.34140  Biso   1.000  H
  H194     1.0000 0.70240  0.97990  0.15860  Biso   1.000  H
  H195     1.0000 0.70240  0.52010  0.65860  Biso   1.000  H
  H196     1.0000 0.29760  0.02010  0.84140  Biso   1.000  H
  C101     1.0000 0.27140  0.53790  0.31000  Biso   1.000  C
  C102     1.0000 0.72860  0.03790  0.19000  Biso   1.000  C
  C103     1.0000 0.72860  0.46210  0.69000  Biso   1.000  C
  C104     1.0000 0.27140  0.96210  0.81000  Biso   1.000  C
  H197     1.0000 0.20250  0.53330  0.29120  Biso   1.000  H
  H198     1.0000 0.79750  0.03330  0.20880  Biso   1.000  H
  H199     1.0000 0.79750  0.46670  0.70880  Biso   1.000  H
  H200     1.0000 0.20250  0.96670  0.79120  Biso   1.000  H
  C105     1.0000 0.40930  0.58111  0.33321  Biso   1.000  C
  C106     1.0000 0.59070  0.08111  0.16679  Biso   1.000  C
  C107     1.0000 0.59070  0.41889  0.66679  Biso   1.000  C
  C108     1.0000 0.40930  0.91889  0.83321  Biso   1.000  C
  H201     1.0000 0.43860  0.60700  0.33140  Biso   1.000  H
  H202     1.0000 0.56140  0.10700  0.16860  Biso   1.000  H
  H203     1.0000 0.56140  0.39300  0.66860  Biso   1.000  H
  H204     1.0000 0.43860  0.89300  0.83140  Biso   1.000  H
  C109     1.0000 0.46970  0.54971  0.36360  Biso   1.000  C
  C110     1.0000 0.53030  0.04971  0.13640  Biso   1.000  C
  C111     1.0000 0.53030  0.45029  0.63640  Biso   1.000  C
  C112     1.0000 0.46970  0.95029  0.86360  Biso   1.000  C
  H205     1.0000 0.53900  0.55490  0.38090  Biso   1.000  H
  H206     1.0000 0.46100  0.05490  0.11910  Biso   1.000  H
  H207     1.0000 0.46100  0.44510  0.61910  Biso   1.000  H
  H208     1.0000 0.53900  0.94510  0.88090  Biso   1.000  H
  C113     1.0000 0.17280  0.70853  0.22150  Biso   1.000  C
  C114     1.0000 0.82720  0.20853  0.27850  Biso   1.000  C
  C115     1.0000 0.82720  0.29147  0.77850  Biso   1.000  C
  C116     1.0000 0.17280  0.79147  0.72150  Biso   1.000  C
  H209     1.0000 0.24150  0.71260  0.24100  Biso   1.000  H
  H210     1.0000 0.75850  0.21260  0.25900  Biso   1.000  H
  H211     1.0000 0.75850  0.28740  0.75900  Biso   1.000  H
  H212     1.0000 0.24150  0.78740  0.74100  Biso   1.000  H
  C117     1.0000 0.11880  0.74160  0.19180  Biso   1.000  C
  C118     1.0000 0.88120  0.24160  0.30820  Biso   1.000  C
  C119     1.0000 0.88120  0.25840  0.80820  Biso   1.000  C
  C120     1.0000 0.11880  0.75840  0.69180  Biso   1.000  C
  H213     1.0000 0.15050  0.76720  0.19260  Biso   1.000  H
  H214     1.0000 0.84950  0.26720  0.30740  Biso   1.000  H
  H215     1.0000 0.84950  0.23280  0.80740  Biso   1.000  H
  H216     1.0000 0.15050  0.73280  0.69260  Biso   1.000  H
  C121     1.0000 0.01800  0.73687  0.16110  Biso   1.000  C
  C122     1.0000 0.98200  0.23687  0.33890  Biso   1.000  C
  C123     1.0000 0.98200  0.26313  0.83890  Biso   1.000  C
  C124     1.0000 0.01800  0.76313  0.66110  Biso   1.000  C
  C125     1.0000 0.97630  0.69807  0.16450  Biso   1.000  C
  C126     1.0000 0.02370  0.19807  0.33550  Biso   1.000  C
  C127     1.0000 0.02370  0.30193  0.83550  Biso   1.000  C
  C128     1.0000 0.97630  0.80193  0.66450  Biso   1.000  C
  H217     1.0000 0.90770  0.69320  0.14540  Biso   1.000  H
  H218     1.0000 0.09230  0.19320  0.35460  Biso   1.000  H
  H219     1.0000 0.09230  0.30680  0.85460  Biso   1.000  H
  H220     1.0000 0.90770  0.80680  0.64540  Biso   1.000  H
  C129     1.0000 0.03540  0.66643  0.19576  Biso   1.000  C
  C130     1.0000 0.96460  0.16643  0.30424  Biso   1.000  C
  C131     1.0000 0.96460  0.33357  0.80424  Biso   1.000  C
  C132     1.0000 0.03540  0.83357  0.69576  Biso   1.000  C
  H221     1.0000 0.00490  0.64070  0.19700  Biso   1.000  H
  H222     1.0000 0.99510  0.14070  0.30300  Biso   1.000  H
  H223     1.0000 0.99510  0.35930  0.80300  Biso   1.000  H
  H224     1.0000 0.00490  0.85930  0.69700  Biso   1.000  H
  C133     1.0000 0.86400  0.17321  0.54990  Biso   1.000  C
  C134     1.0000 0.13600  0.67321  0.95010  Biso   1.000  C
  C135     1.0000 0.13600  0.82679  0.45010  Biso   1.000  C
  C136     1.0000 0.86400  0.32679  0.04990  Biso   1.000  C
  C137     1.0000 0.83280  0.18109  0.47740  Biso   1.000  C
  C138     1.0000 0.16720  0.68109  0.02260  Biso   1.000  C
  C139     1.0000 0.16720  0.81891  0.52260  Biso   1.000  C
  C140     1.0000 0.83280  0.31891  0.97740  Biso   1.000  C
  H225     1.0000 0.87540  0.17310  0.44120  Biso   1.000  H
  H226     1.0000 0.12460  0.67310  0.05880  Biso   1.000  H
  H227     1.0000 0.12460  0.82690  0.55880  Biso   1.000  H
  H228     1.0000 0.87540  0.32690  0.94120  Biso   1.000  H
  C141     1.0000 0.73920  0.20060  0.45860  Biso   1.000  C
  C142     1.0000 0.26080  0.70060  0.04140  Biso   1.000  C
  C143     1.0000 0.26080  0.79940  0.54140  Biso   1.000  C
  C144     1.0000 0.73920  0.29940  0.95860  Biso   1.000  C
  H229     1.0000 0.71930  0.20460  0.40930  Biso   1.000  H
  H230     1.0000 0.28070  0.70460  0.09070  Biso   1.000  H
  H231     1.0000 0.28070  0.79540  0.59070  Biso   1.000  H
  H232     1.0000 0.71930  0.29540  0.90930  Biso   1.000  H
  C145     1.0000 0.70450  0.20559  0.57680  Biso   1.000  C
  C146     1.0000 0.29550  0.70559  0.92320  Biso   1.000  C
  C147     1.0000 0.29550  0.79441  0.42320  Biso   1.000  C
  C148     1.0000 0.70450  0.29441  0.07680  Biso   1.000  C
  H233     1.0000 0.66050  0.21400  0.61190  Biso   1.000  H
  H234     1.0000 0.33950  0.71400  0.88810  Biso   1.000  H
  H235     1.0000 0.33950  0.78600  0.38810  Biso   1.000  H
  H236     1.0000 0.66050  0.28600  0.11190  Biso   1.000  H
  C149     1.0000 0.79570  0.18514  0.59940  Biso   1.000  C
  C150     1.0000 0.20430  0.68514  0.90060  Biso   1.000  C
  C151     1.0000 0.20430  0.81486  0.40060  Biso   1.000  C
  C152     1.0000 0.79570  0.31486  0.09940  Biso   1.000  C
  H237     1.0000 0.81080  0.17940  0.64870  Biso   1.000  H
  H238     1.0000 0.18920  0.67940  0.85130  Biso   1.000  H
  H239     1.0000 0.18920  0.82060  0.35130  Biso   1.000  H
  H240     1.0000 0.81080  0.32060  0.14870  Biso   1.000  H
  C153     1.0000 0.57830  0.79671  0.13250  Biso   1.000  C
  C154     1.0000 0.42170  0.29671  0.36750  Biso   1.000  C
  C155     1.0000 0.42170  0.20329  0.86750  Biso   1.000  C
  C156     1.0000 0.57830  0.70329  0.63250  Biso   1.000  C
  H241     1.0000 0.52660  0.79120  0.16400  Biso   1.000  H
  H242     1.0000 0.47340  0.29120  0.33600  Biso   1.000  H
  H243     1.0000 0.47340  0.20880  0.83600  Biso   1.000  H
  H244     1.0000 0.52660  0.70880  0.66400  Biso   1.000  H
  C157     1.0000 0.66900  0.81350  0.16080  Biso   1.000  C
  C158     1.0000 0.33100  0.31350  0.33920  Biso   1.000  C
  C159     1.0000 0.33100  0.18650  0.83920  Biso   1.000  C
  C160     1.0000 0.66900  0.68650  0.66080  Biso   1.000  C
  H245     1.0000 0.67860  0.81940  0.21040  Biso   1.000  H
  H246     1.0000 0.32140  0.31940  0.28960  Biso   1.000  H
  H247     1.0000 0.32140  0.18060  0.78960  Biso   1.000  H
  H248     1.0000 0.67860  0.68060  0.71040  Biso   1.000  H
  C161     1.0000 0.74830  0.82196  0.11520  Biso   1.000  C
  C162     1.0000 0.25170  0.32196  0.38480  Biso   1.000  C
  C163     1.0000 0.25170  0.17804  0.88480  Biso   1.000  C
  C164     1.0000 0.74830  0.67804  0.61520  Biso   1.000  C
  C165     1.0000 0.72670  0.81400  0.04260  Biso   1.000  C
  C166     1.0000 0.27330  0.31400  0.45740  Biso   1.000  C
  C167     1.0000 0.27330  0.18600  0.95740  Biso   1.000  C
  C168     1.0000 0.72670  0.68600  0.54260  Biso   1.000  C
  H249     1.0000 0.77640  0.82000  0.00980  Biso   1.000  H
  H250     1.0000 0.22360  0.32000  0.49020  Biso   1.000  H
  H251     1.0000 0.22360  0.18000  0.99020  Biso   1.000  H
  H252     1.0000 0.77640  0.68000  0.50980  Biso   1.000  H
  C169     1.0000 0.63280  0.79739  0.01780  Biso   1.000  C
  C170     1.0000 0.36720  0.29739  0.48220  Biso   1.000  C
  C171     1.0000 0.36720  0.20261  0.98220  Biso   1.000  C
  C172     1.0000 0.63280  0.70261  0.51780  Biso   1.000  C
  H253     1.0000 0.61970  0.79270  0.96800  Biso   1.000  H
  H254     1.0000 0.38030  0.29270  0.53200  Biso   1.000  H
  H255     1.0000 0.38030  0.20730  0.03200  Biso   1.000  H
  H256     1.0000 0.61970  0.70730  0.46800  Biso   1.000  H
  C173     1.0000 0.11320  0.25865  0.60886  Biso   1.000  C
  C174     1.0000 0.88680  0.75865  0.89114  Biso   1.000  C
  C175     1.0000 0.88680  0.74135  0.39114  Biso   1.000  C
  C176     1.0000 0.11320  0.24135  0.10886  Biso   1.000  C
  C177     1.0000 0.06010  0.29319  0.62370  Biso   1.000  C
  C178     1.0000 0.93990  0.79319  0.87630  Biso   1.000  C
  C179     1.0000 0.93990  0.70681  0.37630  Biso   1.000  C
  C180     1.0000 0.06010  0.20681  0.12370  Biso   1.000  C
  H257     1.0000 0.98950  0.29530  0.60710  Biso   1.000  H
  H258     1.0000 0.01050  0.79530  0.89290  Biso   1.000  H
  H259     1.0000 0.01050  0.70470  0.39290  Biso   1.000  H
  H260     1.0000 0.98950  0.20470  0.10710  Biso   1.000  H
  C181     1.0000 0.10630  0.32487  0.66180  Biso   1.000  C
  C182     1.0000 0.89370  0.82487  0.83820  Biso   1.000  C
  C183     1.0000 0.89370  0.67513  0.33820  Biso   1.000  C
  C184     1.0000 0.10630  0.17513  0.16180  Biso   1.000  C
  H261     1.0000 0.06630  0.34780  0.67090  Biso   1.000  H
  H262     1.0000 0.93370  0.84780  0.82910  Biso   1.000  H
  H263     1.0000 0.93370  0.65220  0.32910  Biso   1.000  H
  H264     1.0000 0.06630  0.15220  0.17090  Biso   1.000  H
  C185     1.0000 0.26100  0.28964  0.67340  Biso   1.000  C
  C186     1.0000 0.73900  0.78964  0.82660  Biso   1.000  C
  C187     1.0000 0.73900  0.71036  0.32660  Biso   1.000  C
  C188     1.0000 0.26100  0.21036  0.17340  Biso   1.000  C
  H265     1.0000 0.33150  0.28800  0.69040  Biso   1.000  H
  H266     1.0000 0.66850  0.78800  0.80960  Biso   1.000  H
  H267     1.0000 0.66850  0.71200  0.30960  Biso   1.000  H
  H268     1.0000 0.33150  0.21200  0.19040  Biso   1.000  H
  C189     1.0000 0.21740  0.25714  0.63630  Biso   1.000  C
  C190     1.0000 0.78260  0.75714  0.86370  Biso   1.000  C
  C191     1.0000 0.78260  0.74286  0.36370  Biso   1.000  C
  C192     1.0000 0.21740  0.24286  0.13630  Biso   1.000  C
  H269     1.0000 0.25750  0.23400  0.62950  Biso   1.000  H
  H270     1.0000 0.74250  0.73400  0.87050  Biso   1.000  H
  H271     1.0000 0.74250  0.76600  0.37050  Biso   1.000  H
  H272     1.0000 0.25750  0.26600  0.12950  Biso   1.000  H
  C193     1.0000 0.29740  0.45753  0.79090  Biso   1.000  C
  C194     1.0000 0.70260  0.95753  0.70910  Biso   1.000  C
  C195     1.0000 0.70260  0.54247  0.20910  Biso   1.000  C
  C196     1.0000 0.29740  0.04247  0.29090  Biso   1.000  C
  H273     1.0000 0.22790  0.45880  0.77150  Biso   1.000  H
  H274     1.0000 0.77210  0.95880  0.72850  Biso   1.000  H
  H275     1.0000 0.77210  0.54120  0.22850  Biso   1.000  H
  H276     1.0000 0.22790  0.04120  0.27150  Biso   1.000  H
  C197     1.0000 0.33840  0.49061  0.82840  Biso   1.000  C
  C198     1.0000 0.66160  0.99061  0.67160  Biso   1.000  C
  C199     1.0000 0.66160  0.50939  0.17160  Biso   1.000  C
  C200     1.0000 0.33840  0.00939  0.32840  Biso   1.000  C
  H277     1.0000 0.29730  0.51370  0.83320  Biso   1.000  H
  H278     1.0000 0.70270  0.01370  0.66680  Biso   1.000  H
  H279     1.0000 0.70270  0.48630  0.16680  Biso   1.000  H
  H280     1.0000 0.29730  0.98630  0.33320  Biso   1.000  H
  C201     1.0000 0.44060  0.48985  0.85920  Biso   1.000  C
  C202     1.0000 0.55940  0.98985  0.64080  Biso   1.000  C
  C203     1.0000 0.55940  0.51015  0.14080  Biso   1.000  C
  C204     1.0000 0.44060  0.01015  0.35920  Biso   1.000  C
  C205     1.0000 0.49640  0.45470  0.84830  Biso   1.000  C
  C206     1.0000 0.50360  0.95470  0.65170  Biso   1.000  C
  C207     1.0000 0.50360  0.54530  0.15170  Biso   1.000  C
  C208     1.0000 0.49640  0.04530  0.34830  Biso   1.000  C
  H281     1.0000 0.56580  0.45270  0.86750  Biso   1.000  H
  H282     1.0000 0.43420  0.95270  0.63250  Biso   1.000  H
  H283     1.0000 0.43420  0.54730  0.13250  Biso   1.000  H
  H284     1.0000 0.56580  0.04730  0.36750  Biso   1.000  H
  C209     1.0000 0.45140  0.42269  0.80960  Biso   1.000  C
  C210     1.0000 0.54860  0.92269  0.69040  Biso   1.000  C
  C211     1.0000 0.54860  0.57731  0.19040  Biso   1.000  C
  C212     1.0000 0.45140  0.07731  0.30960  Biso   1.000  C
  H285     1.0000 0.49190  0.39960  0.80320  Biso   1.000  H
  H286     1.0000 0.50810  0.89960  0.69680  Biso   1.000  H
  H287     1.0000 0.50810  0.60040  0.19680  Biso   1.000  H
  H288     1.0000 0.49190  0.10040  0.30320  Biso   1.000  H
  C213     1.0000 0.11430  0.55658  0.08420  Biso   1.000  C
  C214     1.0000 0.88570  0.05658  0.41580  Biso   1.000  C
  C215     1.0000 0.88570  0.44342  0.91580  Biso   1.000  C
  C216     1.0000 0.11430  0.94342  0.58420  Biso   1.000  C
  C217     1.0000 0.17040  0.56135  0.01930  Biso   1.000  C
  C218     1.0000 0.82960  0.06135  0.48070  Biso   1.000  C
  C219     1.0000 0.82960  0.43865  0.98070  Biso   1.000  C
  C220     1.0000 0.17040  0.93865  0.51930  Biso   1.000  C
  C221     1.0000 0.26200  0.58738  0.03830  Biso   1.000  C
  C222     1.0000 0.73800  0.08738  0.46170  Biso   1.000  C
  C223     1.0000 0.73800  0.41262  0.96170  Biso   1.000  C
  C224     1.0000 0.26200  0.91262  0.53830  Biso   1.000  C
  C225     1.0000 0.25530  0.59990  0.11542  Biso   1.000  C
  C226     1.0000 0.74470  0.09990  0.38458  Biso   1.000  C
  C227     1.0000 0.74470  0.40010  0.88458  Biso   1.000  C
  C228     1.0000 0.25530  0.90010  0.61542  Biso   1.000  C
  C229     1.0000 0.16290  0.58080  0.14040  Biso   1.000  C
  C230     1.0000 0.83710  0.08080  0.35960  Biso   1.000  C
  C231     1.0000 0.83710  0.41920  0.85960  Biso   1.000  C
  C232     1.0000 0.16290  0.91920  0.64040  Biso   1.000  C
  C233     1.0000 0.18510  0.64833  0.41470  Biso   1.000  C
  C234     1.0000 0.81490  0.14833  0.08530  Biso   1.000  C
  C235     1.0000 0.81490  0.35167  0.58530  Biso   1.000  C
  C236     1.0000 0.18510  0.85167  0.91470  Biso   1.000  C
  C237     1.0000 0.27820  0.66642  0.38920  Biso   1.000  C
  C238     1.0000 0.72180  0.16642  0.11080  Biso   1.000  C
  C239     1.0000 0.72180  0.33358  0.61080  Biso   1.000  C
  C240     1.0000 0.27820  0.83358  0.88920  Biso   1.000  C
  C241     1.0000 0.32790  0.69114  0.44536  Biso   1.000  C
  C242     1.0000 0.67210  0.19114  0.05464  Biso   1.000  C
  C243     1.0000 0.67210  0.30886  0.55464  Biso   1.000  C
  C244     1.0000 0.32790  0.80886  0.94536  Biso   1.000  C
  C245     1.0000 0.27050  0.68773  0.50950  Biso   1.000  C
  C246     1.0000 0.72950  0.18773  0.99050  Biso   1.000  C
  C247     1.0000 0.72950  0.31227  0.49050  Biso   1.000  C
  C248     1.0000 0.27050  0.81227  0.00950  Biso   1.000  C
  C249     1.0000 0.17760  0.66154  0.49150  Biso   1.000  C
  C250     1.0000 0.82240  0.16154  0.00850  Biso   1.000  C
  C251     1.0000 0.82240  0.33846  0.50850  Biso   1.000  C
  C252     1.0000 0.17760  0.83846  0.99150  Biso   1.000  C
  C253     1.0000 0.43530  0.30747  0.90256  Biso   1.000  C
  C254     1.0000 0.56470  0.80747  0.59744  Biso   1.000  C
  C255     1.0000 0.56470  0.69253  0.09744  Biso   1.000  C
  C256     1.0000 0.43530  0.19253  0.40256  Biso   1.000  C
  C257     1.0000 0.39120  0.30914  0.97270  Biso   1.000  C
  C258     1.0000 0.60880  0.80914  0.52730  Biso   1.000  C
  C259     1.0000 0.60880  0.69086  0.02730  Biso   1.000  C
  C260     1.0000 0.39120  0.19086  0.47270  Biso   1.000  C
  C261     1.0000 0.29360  0.33333  0.96350  Biso   1.000  C
  C262     1.0000 0.70640  0.83333  0.53650  Biso   1.000  C
  C263     1.0000 0.70640  0.66667  0.03650  Biso   1.000  C
  C264     1.0000 0.29360  0.16667  0.46350  Biso   1.000  C
  C265     1.0000 0.28280  0.34721  0.88670  Biso   1.000  C
  C266     1.0000 0.71720  0.84721  0.61330  Biso   1.000  C
  C267     1.0000 0.71720  0.65279  0.11330  Biso   1.000  C
  C268     1.0000 0.28280  0.15279  0.38670  Biso   1.000  C
  C269     1.0000 0.37250  0.33132  0.85240  Biso   1.000  C
  C270     1.0000 0.62750  0.83132  0.64760  Biso   1.000  C
  C271     1.0000 0.62750  0.66868  0.14760  Biso   1.000  C
  C272     1.0000 0.37250  0.16868  0.35240  Biso   1.000  C
  C273     1.0000 0.27710  0.40069  0.57980  Biso   1.000  C
  C274     1.0000 0.72290  0.90069  0.92020  Biso   1.000  C
  C275     1.0000 0.72290  0.59931  0.42020  Biso   1.000  C
  C276     1.0000 0.27710  0.09931  0.07980  Biso   1.000  C
  C277     1.0000 0.18800  0.41591  0.61560  Biso   1.000  C
  C278     1.0000 0.81200  0.91591  0.88440  Biso   1.000  C
  C279     1.0000 0.81200  0.58409  0.38440  Biso   1.000  C
  C280     1.0000 0.18800  0.08409  0.11560  Biso   1.000  C
  C281     1.0000 0.12350  0.44047  0.56671  Biso   1.000  C
  C282     1.0000 0.87650  0.94047  0.93329  Biso   1.000  C
  C283     1.0000 0.87650  0.55953  0.43329  Biso   1.000  C
  C284     1.0000 0.12350  0.05953  0.06671  Biso   1.000  C
  C285     1.0000 0.26500  0.41550  0.50260  Biso   1.000  C
  C286     1.0000 0.73500  0.91550  0.99740  Biso   1.000  C
  C287     1.0000 0.73500  0.58450  0.49740  Biso   1.000  C
  C288     1.0000 0.26500  0.08450  0.00260  Biso   1.000  C
  N5       1.0000 0.88420  0.53763  0.96776  Biso   1.000  N
  N6       1.0000 0.11580  0.03763  0.53224  Biso   1.000  N
  N7       1.0000 0.11580  0.46237  0.03224  Biso   1.000  N
  N8       1.0000 0.88420  0.96237  0.46776  Biso   1.000  N
  N9       1.0000 0.13310  0.67097  0.22405  Biso   1.000  N
  N10      1.0000 0.86690  0.17097  0.27595  Biso   1.000  N
  N11      1.0000 0.86690  0.32903  0.77595  Biso   1.000  N
  N12      1.0000 0.13310  0.82903  0.72405  Biso   1.000  N
  N13      1.0000 0.31060  0.57556  0.30633  Biso   1.000  N
  N14      1.0000 0.68940  0.07556  0.19367  Biso   1.000  N
  N15      1.0000 0.68940  0.42444  0.69367  Biso   1.000  N
  N16      1.0000 0.31060  0.92444  0.80633  Biso   1.000  N
  N17      1.0000 0.67640  0.21386  0.50673  Biso   1.000  N
  N18      1.0000 0.32360  0.71386  0.99327  Biso   1.000  N
  N19      1.0000 0.32360  0.78614  0.49327  Biso   1.000  N
  N20      1.0000 0.67640  0.28614  0.00673  Biso   1.000  N
  N21      1.0000 0.55830  0.78754  0.06223  Biso   1.000  N
  N22      1.0000 0.44170  0.28754  0.43777  Biso   1.000  N
  N23      1.0000 0.44170  0.21246  0.93777  Biso   1.000  N
  N24      1.0000 0.55830  0.71246  0.56223  Biso   1.000  N
  N25      1.0000 0.35260  0.42311  0.78078  Biso   1.000  N
  N26      1.0000 0.64740  0.92311  0.71922  Biso   1.000  N
  N27      1.0000 0.64740  0.57689  0.21922  Biso   1.000  N
  N28      1.0000 0.35260  0.07689  0.28078  Biso   1.000  N
  N29      1.0000 0.20850  0.32397  0.68686  Biso   1.000  N
  N30      1.0000 0.79150  0.82397  0.81314  Biso   1.000  N
  N31      1.0000 0.79150  0.67603  0.31314  Biso   1.000  N
  N32      1.0000 0.20850  0.17603  0.18686  Biso   1.000  N
  O37      1.0000 0.03337  0.53400  0.08823  Biso   1.000  O
  O38      1.0000 0.96663  0.03400  0.41177  Biso   1.000  O
  O39      1.0000 0.96663  0.46600  0.91177  Biso   1.000  O
  O40      1.0000 0.03337  0.96600  0.58823  Biso   1.000  O
  O41      1.0000 0.14370  0.54571  0.95940  Biso   1.000  O
  O42      1.0000 0.85630  0.04571  0.54060  Biso   1.000  O
  O43      1.0000 0.85630  0.45429  0.04060  Biso   1.000  O
  O44      1.0000 0.14370  0.95429  0.45940  Biso   1.000  O
  O45      1.0000 0.33150  0.59602  0.99885  Biso   1.000  O
  O46      1.0000 0.66850  0.09602  0.50115  Biso   1.000  O
  O47      1.0000 0.66850  0.40398  0.00115  Biso   1.000  O
  O48      1.0000 0.33150  0.90398  0.49885  Biso   1.000  O
  O49      1.0000 0.31588  0.62214  0.15390  Biso   1.000  O
  O50      1.0000 0.68412  0.12214  0.34610  Biso   1.000  O
  O51      1.0000 0.68412  0.37786  0.84610  Biso   1.000  O
  O52      1.0000 0.31588  0.87786  0.65390  Biso   1.000  O
  O53      1.0000 0.13309  0.58533  0.20423  Biso   1.000  O
  O54      1.0000 0.86691  0.08533  0.29577  Biso   1.000  O
  O55      1.0000 0.86691  0.41467  0.79577  Biso   1.000  O
  O56      1.0000 0.13309  0.91467  0.70423  Biso   1.000  O
  O57      1.0000 0.12482  0.62570  0.37665  Biso   1.000  O
  O58      1.0000 0.87518  0.12570  0.12335  Biso   1.000  O
  O59      1.0000 0.87518  0.37430  0.62335  Biso   1.000  O
  O60      1.0000 0.12482  0.87430  0.87665  Biso   1.000  O
  O61      1.0000 0.30910  0.66106  0.32594  Biso   1.000  O
  O62      1.0000 0.69090  0.16106  0.17406  Biso   1.000  O
  O63      1.0000 0.69090  0.33894  0.67406  Biso   1.000  O
  O64      1.0000 0.30910  0.83894  0.82594  Biso   1.000  O
  O65      1.0000 0.40837  0.71331  0.44059  Biso   1.000  O
  O66      1.0000 0.59163  0.21331  0.05941  Biso   1.000  O
  O67      1.0000 0.59163  0.28669  0.55941  Biso   1.000  O
  O68      1.0000 0.40837  0.78669  0.94059  Biso   1.000  O
  O69      1.0000 0.29630  0.70427  0.56899  Biso   1.000  O
  O70      1.0000 0.70370  0.20427  0.93101  Biso   1.000  O
  O71      1.0000 0.70370  0.29573  0.43101  Biso   1.000  O
  O72      1.0000 0.29630  0.79573  0.06899  Biso   1.000  O
  O73      1.0000 0.10850  0.65305  0.53046  Biso   1.000  O
  O74      1.0000 0.89150  0.15305  0.96954  Biso   1.000  O
  O75      1.0000 0.89150  0.34695  0.46954  Biso   1.000  O
  O76      1.0000 0.10850  0.84695  0.03046  Biso   1.000  O
  O77      1.0000 0.51695  0.28666  0.89064  Biso   1.000  O
  O78      1.0000 0.48305  0.78666  0.60936  Biso   1.000  O
  O79      1.0000 0.48305  0.71334  0.10936  Biso   1.000  O
  O80      1.0000 0.51695  0.21334  0.39064  Biso   1.000  O
  O81      1.0000 0.42880  0.29155  0.02788  Biso   1.000  O
  O82      1.0000 0.57120  0.79155  0.47212  Biso   1.000  O
  O83      1.0000 0.57120  0.70845  0.97212  Biso   1.000  O
  O84      1.0000 0.42880  0.20845  0.52788  Biso   1.000  O
  O85      1.0000 0.23200  0.33916  0.01013  Biso   1.000  O
  O86      1.0000 0.76800  0.83916  0.48987  Biso   1.000  O
  O87      1.0000 0.76800  0.66084  0.98987  Biso   1.000  O
  O88      1.0000 0.23200  0.16084  0.51013  Biso   1.000  O
  O89      1.0000 0.21197  0.36743  0.85510  Biso   1.000  O
  O90      1.0000 0.78803  0.86743  0.64490  Biso   1.000  O
  O91      1.0000 0.78803  0.63257  0.14490  Biso   1.000  O
  O92      1.0000 0.21197  0.13257  0.35510  Biso   1.000  O
  O93      1.0000 0.38745  0.33746  0.78536  Biso   1.000  O
  O94      1.0000 0.61255  0.83746  0.71464  Biso   1.000  O
  O95      1.0000 0.61255  0.66254  0.21464  Biso   1.000  O
  O96      1.0000 0.38745  0.16254  0.28536  Biso   1.000  O
  O97      1.0000 0.34836  0.38038  0.60997  Biso   1.000  O
  O98      1.0000 0.65164  0.88038  0.89003  Biso   1.000  O
  O99      1.0000 0.65164  0.61962  0.39003  Biso   1.000  O
  O100     1.0000 0.34836  0.11962  0.10997  Biso   1.000  O
  O101     1.0000 0.17407  0.40931  0.68236  Biso   1.000  O
  O102     1.0000 0.82593  0.90931  0.81764  Biso   1.000  O
  O103     1.0000 0.82593  0.59069  0.31764  Biso   1.000  O
  O104     1.0000 0.17407  0.09069  0.18236  Biso   1.000  O
  O105     1.0000 0.04277  0.46094  0.57984  Biso   1.000  O
  O106     1.0000 0.95723  0.96094  0.92016  Biso   1.000  O
  O107     1.0000 0.95723  0.53906  0.42016  Biso   1.000  O
  O108     1.0000 0.04277  0.03906  0.07984  Biso   1.000  O
  O109     1.0000 0.32430  0.41013  0.45511  Biso   1.000  O
  O110     1.0000 0.67570  0.91013  0.04489  Biso   1.000  O
  O111     1.0000 0.67570  0.58987  0.54489  Biso   1.000  O
  O112     1.0000 0.32430  0.08987  0.95511  Biso   1.000  O
  Cu1      1.0000 0.00000  0.50000  0.00000  Biso   1.000  Cu
  Cu2      1.0000 0.00000  0.00000  0.50000  Biso   1.000  Cu
  Cu3      1.0000 0.22119  0.62327  0.26530  Biso   1.000  Cu
  Cu4      1.0000 0.77881  0.12327  0.23470  Biso   1.000  Cu
  Cu5      1.0000 0.77881  0.37673  0.73470  Biso   1.000  Cu
  Cu6      1.0000 0.22119  0.87673  0.76530  Biso   1.000  Cu
  Cu7      1.0000 0.55874  0.25060  0.47427  Biso   1.000  Cu
  Cu8      1.0000 0.44126  0.75060  0.02573  Biso   1.000  Cu
  Cu9      1.0000 0.44126  0.74940  0.52573  Biso   1.000  Cu
  Cu10     1.0000 0.55874  0.24940  0.97427  Biso   1.000  Cu
  Cu11     1.0000 0.28092  0.37357  0.73364  Biso   1.000  Cu
  Cu12     1.0000 0.71908  0.87357  0.76636  Biso   1.000  Cu
  Cu13     1.0000 0.71908  0.62643  0.26636  Biso   1.000  Cu
  Cu14     1.0000 0.28092  0.12643  0.23364  Biso   1.000  Cu
  Cu15     1.0000 0.00000  0.50000  0.50000  Biso   1.000  Cu
  Cu16     1.0000 0.00000  0.00000  0.00000  Biso   1.000  Cu
