data_image0
_cell_length_a       13.8325
_cell_length_b       40.435
_cell_length_c       60.962
_cell_angle_alpha    90
_cell_angle_beta     90
_cell_angle_gamma    90

_symmetry_space_group_name_H-M    "P 1"
_symmetry_int_tables_number       1

loop_
  _symmetry_equiv_pos_as_xyz
  'x, y, z'

loop_
  _atom_site_label
  _atom_site_occupancy
  _atom_site_fract_x
  _atom_site_fract_y
  _atom_site_fract_z
  _atom_site_thermal_displace_type
  _atom_site_B_iso_or_equiv
  _atom_site_type_symbol
  O1       1.0000 0.04400  0.53620  0.52760  Biso   1.000  O
  O2       1.0000 0.70600  0.21380  0.52760  Biso   1.000  O
  O3       1.0000 0.70600  0.53620  0.22240  Biso   1.000  O
  O4       1.0000 0.04400  0.21380  0.22240  Biso   1.000  O
  O5       1.0000 0.04400  0.03620  0.02760  Biso   1.000  O
  O6       1.0000 0.70600  0.71380  0.02760  Biso   1.000  O
  O7       1.0000 0.70600  0.03620  0.72240  Biso   1.000  O
  O8       1.0000 0.04400  0.71380  0.72240  Biso   1.000  O
  O9       1.0000 0.54400  0.53620  0.02760  Biso   1.000  O
  O10      1.0000 0.20600  0.21380  0.02760  Biso   1.000  O
  O11      1.0000 0.20600  0.53620  0.72240  Biso   1.000  O
  O12      1.0000 0.54400  0.21380  0.72240  Biso   1.000  O
  O13      1.0000 0.54400  0.03620  0.52760  Biso   1.000  O
  O14      1.0000 0.20600  0.71380  0.52760  Biso   1.000  O
  O15      1.0000 0.20600  0.03620  0.22240  Biso   1.000  O
  O16      1.0000 0.54400  0.71380  0.22240  Biso   1.000  O
  O17      1.0000 0.95600  0.46380  0.47240  Biso   1.000  O
  O18      1.0000 0.79400  0.28620  0.47240  Biso   1.000  O
  O19      1.0000 0.79400  0.46380  0.27760  Biso   1.000  O
  O20      1.0000 0.95600  0.28620  0.27760  Biso   1.000  O
  O21      1.0000 0.95600  0.96380  0.97240  Biso   1.000  O
  O22      1.0000 0.79400  0.78620  0.97240  Biso   1.000  O
  O23      1.0000 0.79400  0.96380  0.77760  Biso   1.000  O
  O24      1.0000 0.95600  0.78620  0.77760  Biso   1.000  O
  O25      1.0000 0.45600  0.46380  0.97240  Biso   1.000  O
  O26      1.0000 0.29400  0.28620  0.97240  Biso   1.000  O
  O27      1.0000 0.29400  0.46380  0.77760  Biso   1.000  O
  O28      1.0000 0.45600  0.28620  0.77760  Biso   1.000  O
  O29      1.0000 0.45600  0.96380  0.47240  Biso   1.000  O
  O30      1.0000 0.29400  0.78620  0.47240  Biso   1.000  O
  O31      1.0000 0.29400  0.96380  0.27760  Biso   1.000  O
  O32      1.0000 0.45600  0.78620  0.27760  Biso   1.000  O
  O33      1.0000 0.06650  0.54600  0.48430  Biso   1.000  O
  O34      1.0000 0.68350  0.20400  0.48430  Biso   1.000  O
  O35      1.0000 0.68350  0.54600  0.26570  Biso   1.000  O
  O36      1.0000 0.06650  0.20400  0.26570  Biso   1.000  O
  O37      1.0000 0.06650  0.04600  0.98430  Biso   1.000  O
  O38      1.0000 0.68350  0.70400  0.98430  Biso   1.000  O
  O39      1.0000 0.68350  0.04600  0.76570  Biso   1.000  O
  O40      1.0000 0.06650  0.70400  0.76570  Biso   1.000  O
  O41      1.0000 0.56650  0.54600  0.98430  Biso   1.000  O
  O42      1.0000 0.18350  0.20400  0.98430  Biso   1.000  O
  O43      1.0000 0.18350  0.54600  0.76570  Biso   1.000  O
  O44      1.0000 0.56650  0.20400  0.76570  Biso   1.000  O
  O45      1.0000 0.56650  0.04600  0.48430  Biso   1.000  O
  O46      1.0000 0.18350  0.70400  0.48430  Biso   1.000  O
  O47      1.0000 0.18350  0.04600  0.26570  Biso   1.000  O
  O48      1.0000 0.56650  0.70400  0.26570  Biso   1.000  O
  O49      1.0000 0.93350  0.45400  0.51570  Biso   1.000  O
  O50      1.0000 0.81650  0.29600  0.51570  Biso   1.000  O
  O51      1.0000 0.81650  0.45400  0.23430  Biso   1.000  O
  O52      1.0000 0.93350  0.29600  0.23430  Biso   1.000  O
  O53      1.0000 0.93350  0.95400  0.01570  Biso   1.000  O
  O54      1.0000 0.81650  0.79600  0.01570  Biso   1.000  O
  O55      1.0000 0.81650  0.95400  0.73430  Biso   1.000  O
  O56      1.0000 0.93350  0.79600  0.73430  Biso   1.000  O
  O57      1.0000 0.43350  0.45400  0.01570  Biso   1.000  O
  O58      1.0000 0.31650  0.29600  0.01570  Biso   1.000  O
  O59      1.0000 0.31650  0.45400  0.73430  Biso   1.000  O
  O60      1.0000 0.43350  0.29600  0.73430  Biso   1.000  O
  O61      1.0000 0.43350  0.95400  0.51570  Biso   1.000  O
  O62      1.0000 0.31650  0.79600  0.51570  Biso   1.000  O
  O63      1.0000 0.31650  0.95400  0.23430  Biso   1.000  O
  O64      1.0000 0.43350  0.79600  0.23430  Biso   1.000  O
  C1       1.0000 0.78860  0.70142  0.37632  Biso   1.000  C
  C2       1.0000 0.96140  0.04858  0.37632  Biso   1.000  C
  C3       1.0000 0.96140  0.70142  0.37368  Biso   1.000  C
  C4       1.0000 0.78860  0.04858  0.37368  Biso   1.000  C
  C5       1.0000 0.78860  0.20142  0.87632  Biso   1.000  C
  C6       1.0000 0.96140  0.54858  0.87632  Biso   1.000  C
  C7       1.0000 0.96140  0.20142  0.87368  Biso   1.000  C
  C8       1.0000 0.78860  0.54858  0.87368  Biso   1.000  C
  C9       1.0000 0.28860  0.70142  0.87632  Biso   1.000  C
  C10      1.0000 0.46140  0.04858  0.87632  Biso   1.000  C
  C11      1.0000 0.46140  0.70142  0.87368  Biso   1.000  C
  C12      1.0000 0.28860  0.04858  0.87368  Biso   1.000  C
  C13      1.0000 0.28860  0.20142  0.37632  Biso   1.000  C
  C14      1.0000 0.46140  0.54858  0.37632  Biso   1.000  C
  C15      1.0000 0.46140  0.20142  0.37368  Biso   1.000  C
  C16      1.0000 0.28860  0.54858  0.37368  Biso   1.000  C
  C17      1.0000 0.21140  0.29858  0.62368  Biso   1.000  C
  C18      1.0000 0.53860  0.45142  0.62368  Biso   1.000  C
  C19      1.0000 0.53860  0.29858  0.12632  Biso   1.000  C
  C20      1.0000 0.21140  0.45142  0.12632  Biso   1.000  C
  C21      1.0000 0.21140  0.79858  0.12368  Biso   1.000  C
  C22      1.0000 0.53860  0.95142  0.12368  Biso   1.000  C
  C23      1.0000 0.53860  0.79858  0.62632  Biso   1.000  C
  C24      1.0000 0.21140  0.95142  0.62632  Biso   1.000  C
  C25      1.0000 0.71140  0.29858  0.12368  Biso   1.000  C
  C26      1.0000 0.03860  0.45142  0.12368  Biso   1.000  C
  C27      1.0000 0.03860  0.29858  0.62632  Biso   1.000  C
  C28      1.0000 0.71140  0.45142  0.62632  Biso   1.000  C
  C29      1.0000 0.71140  0.79858  0.62368  Biso   1.000  C
  C30      1.0000 0.03860  0.95142  0.62368  Biso   1.000  C
  C31      1.0000 0.03860  0.79858  0.12632  Biso   1.000  C
  C32      1.0000 0.71140  0.95142  0.12632  Biso   1.000  C
  C33      1.0000 0.77620  0.71990  0.39533  Biso   1.000  C
  C34      1.0000 0.97380  0.03010  0.39533  Biso   1.000  C
  C35      1.0000 0.97380  0.71990  0.35467  Biso   1.000  C
  C36      1.0000 0.77620  0.03010  0.35467  Biso   1.000  C
  C37      1.0000 0.77620  0.21990  0.89533  Biso   1.000  C
  C38      1.0000 0.97380  0.53010  0.89533  Biso   1.000  C
  C39      1.0000 0.97380  0.21990  0.85467  Biso   1.000  C
  C40      1.0000 0.77620  0.53010  0.85467  Biso   1.000  C
  C41      1.0000 0.27620  0.71990  0.89533  Biso   1.000  C
  C42      1.0000 0.47380  0.03010  0.89533  Biso   1.000  C
  C43      1.0000 0.47380  0.71990  0.85467  Biso   1.000  C
  C44      1.0000 0.27620  0.03010  0.85467  Biso   1.000  C
  C45      1.0000 0.27620  0.21990  0.39533  Biso   1.000  C
  C46      1.0000 0.47380  0.53010  0.39533  Biso   1.000  C
  C47      1.0000 0.47380  0.21990  0.35467  Biso   1.000  C
  C48      1.0000 0.27620  0.53010  0.35467  Biso   1.000  C
  C49      1.0000 0.22380  0.28010  0.60467  Biso   1.000  C
  C50      1.0000 0.52620  0.46990  0.60467  Biso   1.000  C
  C51      1.0000 0.52620  0.28010  0.14533  Biso   1.000  C
  C52      1.0000 0.22380  0.46990  0.14533  Biso   1.000  C
  C53      1.0000 0.22380  0.78010  0.10467  Biso   1.000  C
  C54      1.0000 0.52620  0.96990  0.10467  Biso   1.000  C
  C55      1.0000 0.52620  0.78010  0.64533  Biso   1.000  C
  C56      1.0000 0.22380  0.96990  0.64533  Biso   1.000  C
  C57      1.0000 0.72380  0.28010  0.10467  Biso   1.000  C
  C58      1.0000 0.02620  0.46990  0.10467  Biso   1.000  C
  C59      1.0000 0.02620  0.28010  0.64533  Biso   1.000  C
  C60      1.0000 0.72380  0.46990  0.64533  Biso   1.000  C
  C61      1.0000 0.72380  0.78010  0.60467  Biso   1.000  C
  C62      1.0000 0.02620  0.96990  0.60467  Biso   1.000  C
  C63      1.0000 0.02620  0.78010  0.14533  Biso   1.000  C
  C64      1.0000 0.72380  0.96990  0.14533  Biso   1.000  C
  H1       1.0000 0.81070  0.71460  0.40790  Biso   1.000  H
  H2       1.0000 0.93930  0.03540  0.40790  Biso   1.000  H
  H3       1.0000 0.93930  0.71460  0.34210  Biso   1.000  H
  H4       1.0000 0.81070  0.03540  0.34210  Biso   1.000  H
  H5       1.0000 0.81070  0.21460  0.90790  Biso   1.000  H
  H6       1.0000 0.93930  0.53540  0.90790  Biso   1.000  H
  H7       1.0000 0.93930  0.21460  0.84210  Biso   1.000  H
  H8       1.0000 0.81070  0.53540  0.84210  Biso   1.000  H
  H9       1.0000 0.31070  0.71460  0.90790  Biso   1.000  H
  H10      1.0000 0.43930  0.03540  0.90790  Biso   1.000  H
  H11      1.0000 0.43930  0.71460  0.84210  Biso   1.000  H
  H12      1.0000 0.31070  0.03540  0.84210  Biso   1.000  H
  H13      1.0000 0.31070  0.21460  0.40790  Biso   1.000  H
  H14      1.0000 0.43930  0.53540  0.40790  Biso   1.000  H
  H15      1.0000 0.43930  0.21460  0.34210  Biso   1.000  H
  H16      1.0000 0.31070  0.53540  0.34210  Biso   1.000  H
  H17      1.0000 0.18930  0.28540  0.59210  Biso   1.000  H
  H18      1.0000 0.56070  0.46460  0.59210  Biso   1.000  H
  H19      1.0000 0.56070  0.28540  0.15790  Biso   1.000  H
  H20      1.0000 0.18930  0.46460  0.15790  Biso   1.000  H
  H21      1.0000 0.18930  0.78540  0.09210  Biso   1.000  H
  H22      1.0000 0.56070  0.96460  0.09210  Biso   1.000  H
  H23      1.0000 0.56070  0.78540  0.65790  Biso   1.000  H
  H24      1.0000 0.18930  0.96460  0.65790  Biso   1.000  H
  H25      1.0000 0.68930  0.28540  0.09210  Biso   1.000  H
  H26      1.0000 0.06070  0.46460  0.09210  Biso   1.000  H
  H27      1.0000 0.06070  0.28540  0.65790  Biso   1.000  H
  H28      1.0000 0.68930  0.46460  0.65790  Biso   1.000  H
  H29      1.0000 0.68930  0.78540  0.59210  Biso   1.000  H
  H30      1.0000 0.06070  0.96460  0.59210  Biso   1.000  H
  H31      1.0000 0.06070  0.78540  0.15790  Biso   1.000  H
  H32      1.0000 0.68930  0.96460  0.15790  Biso   1.000  H
  C65      1.0000 0.71200  0.74640  0.39551  Biso   1.000  C
  C66      1.0000 0.03800  0.00360  0.39551  Biso   1.000  C
  C67      1.0000 0.03800  0.74640  0.35449  Biso   1.000  C
  C68      1.0000 0.71200  0.00360  0.35449  Biso   1.000  C
  C69      1.0000 0.71200  0.24640  0.89551  Biso   1.000  C
  C70      1.0000 0.03800  0.50360  0.89551  Biso   1.000  C
  C71      1.0000 0.03800  0.24640  0.85449  Biso   1.000  C
  C72      1.0000 0.71200  0.50360  0.85449  Biso   1.000  C
  C73      1.0000 0.21200  0.74640  0.89551  Biso   1.000  C
  C74      1.0000 0.53800  0.00360  0.89551  Biso   1.000  C
  C75      1.0000 0.53800  0.74640  0.85449  Biso   1.000  C
  C76      1.0000 0.21200  0.00360  0.85449  Biso   1.000  C
  C77      1.0000 0.21200  0.24640  0.39551  Biso   1.000  C
  C78      1.0000 0.53800  0.50360  0.39551  Biso   1.000  C
  C79      1.0000 0.53800  0.24640  0.35449  Biso   1.000  C
  C80      1.0000 0.21200  0.50360  0.35449  Biso   1.000  C
  C81      1.0000 0.28800  0.25360  0.60449  Biso   1.000  C
  C82      1.0000 0.46200  0.49640  0.60449  Biso   1.000  C
  C83      1.0000 0.46200  0.25360  0.14551  Biso   1.000  C
  C84      1.0000 0.28800  0.49640  0.14551  Biso   1.000  C
  C85      1.0000 0.28800  0.75360  0.10449  Biso   1.000  C
  C86      1.0000 0.46200  0.99640  0.10449  Biso   1.000  C
  C87      1.0000 0.46200  0.75360  0.64551  Biso   1.000  C
  C88      1.0000 0.28800  0.99640  0.64551  Biso   1.000  C
  C89      1.0000 0.78800  0.25360  0.10449  Biso   1.000  C
  C90      1.0000 0.96200  0.49640  0.10449  Biso   1.000  C
  C91      1.0000 0.96200  0.25360  0.64551  Biso   1.000  C
  C92      1.0000 0.78800  0.49640  0.64551  Biso   1.000  C
  C93      1.0000 0.78800  0.75360  0.60449  Biso   1.000  C
  C94      1.0000 0.96200  0.99640  0.60449  Biso   1.000  C
  C95      1.0000 0.96200  0.75360  0.14551  Biso   1.000  C
  C96      1.0000 0.78800  0.99640  0.14551  Biso   1.000  C
  H33      1.0000 0.70370  0.75880  0.40820  Biso   1.000  H
  H34      1.0000 0.04630  0.99120  0.40820  Biso   1.000  H
  H35      1.0000 0.04630  0.75880  0.34180  Biso   1.000  H
  H36      1.0000 0.70370  0.99120  0.34180  Biso   1.000  H
  H37      1.0000 0.70370  0.25880  0.90820  Biso   1.000  H
  H38      1.0000 0.04630  0.49120  0.90820  Biso   1.000  H
  H39      1.0000 0.04630  0.25880  0.84180  Biso   1.000  H
  H40      1.0000 0.70370  0.49120  0.84180  Biso   1.000  H
  H41      1.0000 0.20370  0.75880  0.90820  Biso   1.000  H
  H42      1.0000 0.54630  0.99120  0.90820  Biso   1.000  H
  H43      1.0000 0.54630  0.75880  0.84180  Biso   1.000  H
  H44      1.0000 0.20370  0.99120  0.84180  Biso   1.000  H
  H45      1.0000 0.20370  0.25880  0.40820  Biso   1.000  H
  H46      1.0000 0.54630  0.49120  0.40820  Biso   1.000  H
  H47      1.0000 0.54630  0.25880  0.34180  Biso   1.000  H
  H48      1.0000 0.20370  0.49120  0.34180  Biso   1.000  H
  H49      1.0000 0.29630  0.24120  0.59180  Biso   1.000  H
  H50      1.0000 0.45370  0.50880  0.59180  Biso   1.000  H
  H51      1.0000 0.45370  0.24120  0.15820  Biso   1.000  H
  H52      1.0000 0.29630  0.50880  0.15820  Biso   1.000  H
  H53      1.0000 0.29630  0.74120  0.09180  Biso   1.000  H
  H54      1.0000 0.45370  0.00880  0.09180  Biso   1.000  H
  H55      1.0000 0.45370  0.74120  0.65820  Biso   1.000  H
  H56      1.0000 0.29630  0.00880  0.65820  Biso   1.000  H
  H57      1.0000 0.79630  0.24120  0.09180  Biso   1.000  H
  H58      1.0000 0.95370  0.50880  0.09180  Biso   1.000  H
  H59      1.0000 0.95370  0.24120  0.65820  Biso   1.000  H
  H60      1.0000 0.79630  0.50880  0.65820  Biso   1.000  H
  H61      1.0000 0.79630  0.74120  0.59180  Biso   1.000  H
  H62      1.0000 0.95370  0.00880  0.59180  Biso   1.000  H
  H63      1.0000 0.95370  0.74120  0.15820  Biso   1.000  H
  H64      1.0000 0.79630  0.00880  0.15820  Biso   1.000  H
  C97      1.0000 0.66040  0.75430  0.37670  Biso   1.000  C
  C98      1.0000 0.08960  0.99570  0.37670  Biso   1.000  C
  C99      1.0000 0.08960  0.75430  0.37330  Biso   1.000  C
  C100     1.0000 0.66040  0.99570  0.37330  Biso   1.000  C
  C101     1.0000 0.66040  0.25430  0.87670  Biso   1.000  C
  C102     1.0000 0.08960  0.49570  0.87670  Biso   1.000  C
  C103     1.0000 0.08960  0.25430  0.87330  Biso   1.000  C
  C104     1.0000 0.66040  0.49570  0.87330  Biso   1.000  C
  C105     1.0000 0.16040  0.75430  0.87670  Biso   1.000  C
  C106     1.0000 0.58960  0.99570  0.87670  Biso   1.000  C
  C107     1.0000 0.58960  0.75430  0.87330  Biso   1.000  C
  C108     1.0000 0.16040  0.99570  0.87330  Biso   1.000  C
  C109     1.0000 0.16040  0.25430  0.37670  Biso   1.000  C
  C110     1.0000 0.58960  0.49570  0.37670  Biso   1.000  C
  C111     1.0000 0.58960  0.25430  0.37330  Biso   1.000  C
  C112     1.0000 0.16040  0.49570  0.37330  Biso   1.000  C
  C113     1.0000 0.33960  0.24570  0.62330  Biso   1.000  C
  C114     1.0000 0.41040  0.50430  0.62330  Biso   1.000  C
  C115     1.0000 0.41040  0.24570  0.12670  Biso   1.000  C
  C116     1.0000 0.33960  0.50430  0.12670  Biso   1.000  C
  C117     1.0000 0.33960  0.74570  0.12330  Biso   1.000  C
  C118     1.0000 0.41040  0.00430  0.12330  Biso   1.000  C
  C119     1.0000 0.41040  0.74570  0.62670  Biso   1.000  C
  C120     1.0000 0.33960  0.00430  0.62670  Biso   1.000  C
  C121     1.0000 0.83960  0.24570  0.12330  Biso   1.000  C
  C122     1.0000 0.91040  0.50430  0.12330  Biso   1.000  C
  C123     1.0000 0.91040  0.24570  0.62670  Biso   1.000  C
  C124     1.0000 0.83960  0.50430  0.62670  Biso   1.000  C
  C125     1.0000 0.83960  0.74570  0.62330  Biso   1.000  C
  C126     1.0000 0.91040  0.00430  0.62330  Biso   1.000  C
  C127     1.0000 0.91040  0.74570  0.12670  Biso   1.000  C
  C128     1.0000 0.83960  0.00430  0.12670  Biso   1.000  C
  C129     1.0000 0.67280  0.73580  0.35767  Biso   1.000  C
  C130     1.0000 0.07720  0.01420  0.35767  Biso   1.000  C
  C131     1.0000 0.07720  0.73580  0.39233  Biso   1.000  C
  C132     1.0000 0.67280  0.01420  0.39233  Biso   1.000  C
  C133     1.0000 0.67280  0.23580  0.85767  Biso   1.000  C
  C134     1.0000 0.07720  0.51420  0.85767  Biso   1.000  C
  C135     1.0000 0.07720  0.23580  0.89233  Biso   1.000  C
  C136     1.0000 0.67280  0.51420  0.89233  Biso   1.000  C
  C137     1.0000 0.17280  0.73580  0.85767  Biso   1.000  C
  C138     1.0000 0.57720  0.01420  0.85767  Biso   1.000  C
  C139     1.0000 0.57720  0.73580  0.89233  Biso   1.000  C
  C140     1.0000 0.17280  0.01420  0.89233  Biso   1.000  C
  C141     1.0000 0.17280  0.23580  0.35767  Biso   1.000  C
  C142     1.0000 0.57720  0.51420  0.35767  Biso   1.000  C
  C143     1.0000 0.57720  0.23580  0.39233  Biso   1.000  C
  C144     1.0000 0.17280  0.51420  0.39233  Biso   1.000  C
  C145     1.0000 0.32720  0.26420  0.64233  Biso   1.000  C
  C146     1.0000 0.42280  0.48580  0.64233  Biso   1.000  C
  C147     1.0000 0.42280  0.26420  0.10767  Biso   1.000  C
  C148     1.0000 0.32720  0.48580  0.10767  Biso   1.000  C
  C149     1.0000 0.32720  0.76420  0.14233  Biso   1.000  C
  C150     1.0000 0.42280  0.98580  0.14233  Biso   1.000  C
  C151     1.0000 0.42280  0.76420  0.60767  Biso   1.000  C
  C152     1.0000 0.32720  0.98580  0.60767  Biso   1.000  C
  C153     1.0000 0.82720  0.26420  0.14233  Biso   1.000  C
  C154     1.0000 0.92280  0.48580  0.14233  Biso   1.000  C
  C155     1.0000 0.92280  0.26420  0.60767  Biso   1.000  C
  C156     1.0000 0.82720  0.48580  0.60767  Biso   1.000  C
  C157     1.0000 0.82720  0.76420  0.64233  Biso   1.000  C
  C158     1.0000 0.92280  0.98580  0.64233  Biso   1.000  C
  C159     1.0000 0.92280  0.76420  0.10767  Biso   1.000  C
  C160     1.0000 0.82720  0.98580  0.10767  Biso   1.000  C
  H65      1.0000 0.63830  0.74120  0.34510  Biso   1.000  H
  H66      1.0000 0.11170  0.00880  0.34510  Biso   1.000  H
  H67      1.0000 0.11170  0.74120  0.40490  Biso   1.000  H
  H68      1.0000 0.63830  0.00880  0.40490  Biso   1.000  H
  H69      1.0000 0.63830  0.24120  0.84510  Biso   1.000  H
  H70      1.0000 0.11170  0.50880  0.84510  Biso   1.000  H
  H71      1.0000 0.11170  0.24120  0.90490  Biso   1.000  H
  H72      1.0000 0.63830  0.50880  0.90490  Biso   1.000  H
  H73      1.0000 0.13830  0.74120  0.84510  Biso   1.000  H
  H74      1.0000 0.61170  0.00880  0.84510  Biso   1.000  H
  H75      1.0000 0.61170  0.74120  0.90490  Biso   1.000  H
  H76      1.0000 0.13830  0.00880  0.90490  Biso   1.000  H
  H77      1.0000 0.13830  0.24120  0.34510  Biso   1.000  H
  H78      1.0000 0.61170  0.50880  0.34510  Biso   1.000  H
  H79      1.0000 0.61170  0.24120  0.40490  Biso   1.000  H
  H80      1.0000 0.13830  0.50880  0.40490  Biso   1.000  H
  H81      1.0000 0.36170  0.25880  0.65490  Biso   1.000  H
  H82      1.0000 0.38830  0.49120  0.65490  Biso   1.000  H
  H83      1.0000 0.38830  0.25880  0.09510  Biso   1.000  H
  H84      1.0000 0.36170  0.49120  0.09510  Biso   1.000  H
  H85      1.0000 0.36170  0.75880  0.15490  Biso   1.000  H
  H86      1.0000 0.38830  0.99120  0.15490  Biso   1.000  H
  H87      1.0000 0.38830  0.75880  0.59510  Biso   1.000  H
  H88      1.0000 0.36170  0.99120  0.59510  Biso   1.000  H
  H89      1.0000 0.86170  0.25880  0.15490  Biso   1.000  H
  H90      1.0000 0.88830  0.49120  0.15490  Biso   1.000  H
  H91      1.0000 0.88830  0.25880  0.59510  Biso   1.000  H
  H92      1.0000 0.86170  0.49120  0.59510  Biso   1.000  H
  H93      1.0000 0.86170  0.75880  0.65490  Biso   1.000  H
  H94      1.0000 0.88830  0.99120  0.65490  Biso   1.000  H
  H95      1.0000 0.88830  0.75880  0.09510  Biso   1.000  H
  H96      1.0000 0.86170  0.99120  0.09510  Biso   1.000  H
  C161     1.0000 0.73700  0.70940  0.35749  Biso   1.000  C
  C162     1.0000 0.01300  0.04060  0.35749  Biso   1.000  C
  C163     1.0000 0.01300  0.70940  0.39251  Biso   1.000  C
  C164     1.0000 0.73700  0.04060  0.39251  Biso   1.000  C
  C165     1.0000 0.73700  0.20940  0.85749  Biso   1.000  C
  C166     1.0000 0.01300  0.54060  0.85749  Biso   1.000  C
  C167     1.0000 0.01300  0.20940  0.89251  Biso   1.000  C
  C168     1.0000 0.73700  0.54060  0.89251  Biso   1.000  C
  C169     1.0000 0.23700  0.70940  0.85749  Biso   1.000  C
  C170     1.0000 0.51300  0.04060  0.85749  Biso   1.000  C
  C171     1.0000 0.51300  0.70940  0.89251  Biso   1.000  C
  C172     1.0000 0.23700  0.04060  0.89251  Biso   1.000  C
  C173     1.0000 0.23700  0.20940  0.35749  Biso   1.000  C
  C174     1.0000 0.51300  0.54060  0.35749  Biso   1.000  C
  C175     1.0000 0.51300  0.20940  0.39251  Biso   1.000  C
  C176     1.0000 0.23700  0.54060  0.39251  Biso   1.000  C
  C177     1.0000 0.26300  0.29060  0.64251  Biso   1.000  C
  C178     1.0000 0.48700  0.45940  0.64251  Biso   1.000  C
  C179     1.0000 0.48700  0.29060  0.10749  Biso   1.000  C
  C180     1.0000 0.26300  0.45940  0.10749  Biso   1.000  C
  C181     1.0000 0.26300  0.79060  0.14251  Biso   1.000  C
  C182     1.0000 0.48700  0.95940  0.14251  Biso   1.000  C
  C183     1.0000 0.48700  0.79060  0.60749  Biso   1.000  C
  C184     1.0000 0.26300  0.95940  0.60749  Biso   1.000  C
  C185     1.0000 0.76300  0.29060  0.14251  Biso   1.000  C
  C186     1.0000 0.98700  0.45940  0.14251  Biso   1.000  C
  C187     1.0000 0.98700  0.29060  0.60749  Biso   1.000  C
  C188     1.0000 0.76300  0.45940  0.60749  Biso   1.000  C
  C189     1.0000 0.76300  0.79060  0.64251  Biso   1.000  C
  C190     1.0000 0.98700  0.95940  0.64251  Biso   1.000  C
  C191     1.0000 0.98700  0.79060  0.10749  Biso   1.000  C
  C192     1.0000 0.76300  0.95940  0.10749  Biso   1.000  C
  H97      1.0000 0.74530  0.69700  0.34480  Biso   1.000  H
  H98      1.0000 0.00470  0.05300  0.34480  Biso   1.000  H
  H99      1.0000 0.00470  0.69700  0.40520  Biso   1.000  H
  H100     1.0000 0.74530  0.05300  0.40520  Biso   1.000  H
  H101     1.0000 0.74530  0.19700  0.84480  Biso   1.000  H
  H102     1.0000 0.00470  0.55300  0.84480  Biso   1.000  H
  H103     1.0000 0.00470  0.19700  0.90520  Biso   1.000  H
  H104     1.0000 0.74530  0.55300  0.90520  Biso   1.000  H
  H105     1.0000 0.24530  0.69700  0.84480  Biso   1.000  H
  H106     1.0000 0.50470  0.05300  0.84480  Biso   1.000  H
  H107     1.0000 0.50470  0.69700  0.90520  Biso   1.000  H
  H108     1.0000 0.24530  0.05300  0.90520  Biso   1.000  H
  H109     1.0000 0.24530  0.19700  0.34480  Biso   1.000  H
  H110     1.0000 0.50470  0.55300  0.34480  Biso   1.000  H
  H111     1.0000 0.50470  0.19700  0.40520  Biso   1.000  H
  H112     1.0000 0.24530  0.55300  0.40520  Biso   1.000  H
  H113     1.0000 0.25470  0.30300  0.65520  Biso   1.000  H
  H114     1.0000 0.49530  0.44700  0.65520  Biso   1.000  H
  H115     1.0000 0.49530  0.30300  0.09480  Biso   1.000  H
  H116     1.0000 0.25470  0.44700  0.09480  Biso   1.000  H
  H117     1.0000 0.25470  0.80300  0.15520  Biso   1.000  H
  H118     1.0000 0.49530  0.94700  0.15520  Biso   1.000  H
  H119     1.0000 0.49530  0.80300  0.59480  Biso   1.000  H
  H120     1.0000 0.25470  0.94700  0.59480  Biso   1.000  H
  H121     1.0000 0.75470  0.30300  0.15520  Biso   1.000  H
  H122     1.0000 0.99530  0.44700  0.15520  Biso   1.000  H
  H123     1.0000 0.99530  0.30300  0.59480  Biso   1.000  H
  H124     1.0000 0.75470  0.44700  0.59480  Biso   1.000  H
  H125     1.0000 0.75470  0.80300  0.65520  Biso   1.000  H
  H126     1.0000 0.99530  0.94700  0.65520  Biso   1.000  H
  H127     1.0000 0.99530  0.80300  0.09480  Biso   1.000  H
  H128     1.0000 0.75470  0.94700  0.09480  Biso   1.000  H
  Cu1      1.0000 0.08789  0.50930  0.50401  Biso   1.000  Cu
  Cu2      1.0000 0.66211  0.24070  0.50401  Biso   1.000  Cu
  Cu3      1.0000 0.66211  0.50930  0.24599  Biso   1.000  Cu
  Cu4      1.0000 0.08789  0.24070  0.24599  Biso   1.000  Cu
  Cu5      1.0000 0.08789  0.00930  0.00401  Biso   1.000  Cu
  Cu6      1.0000 0.66211  0.74070  0.00401  Biso   1.000  Cu
  Cu7      1.0000 0.66211  0.00930  0.74599  Biso   1.000  Cu
  Cu8      1.0000 0.08789  0.74070  0.74599  Biso   1.000  Cu
  Cu9      1.0000 0.58789  0.50930  0.00401  Biso   1.000  Cu
  Cu10     1.0000 0.16211  0.24070  0.00401  Biso   1.000  Cu
  Cu11     1.0000 0.16211  0.50930  0.74599  Biso   1.000  Cu
  Cu12     1.0000 0.58789  0.24070  0.74599  Biso   1.000  Cu
  Cu13     1.0000 0.58789  0.00930  0.50401  Biso   1.000  Cu
  Cu14     1.0000 0.16211  0.74070  0.50401  Biso   1.000  Cu
  Cu15     1.0000 0.16211  0.00930  0.24599  Biso   1.000  Cu
  Cu16     1.0000 0.58789  0.74070  0.24599  Biso   1.000  Cu
  Cu17     1.0000 0.91211  0.49070  0.49599  Biso   1.000  Cu
  Cu18     1.0000 0.83789  0.25930  0.49599  Biso   1.000  Cu
  Cu19     1.0000 0.83789  0.49070  0.25401  Biso   1.000  Cu
  Cu20     1.0000 0.91211  0.25930  0.25401  Biso   1.000  Cu
  Cu21     1.0000 0.91211  0.99070  0.99599  Biso   1.000  Cu
  Cu22     1.0000 0.83789  0.75930  0.99599  Biso   1.000  Cu
  Cu23     1.0000 0.83789  0.99070  0.75401  Biso   1.000  Cu
  Cu24     1.0000 0.91211  0.75930  0.75401  Biso   1.000  Cu
  Cu25     1.0000 0.41211  0.49070  0.99599  Biso   1.000  Cu
  Cu26     1.0000 0.33789  0.25930  0.99599  Biso   1.000  Cu
  Cu27     1.0000 0.33789  0.49070  0.75401  Biso   1.000  Cu
  Cu28     1.0000 0.41211  0.25930  0.75401  Biso   1.000  Cu
  Cu29     1.0000 0.41211  0.99070  0.49599  Biso   1.000  Cu
  Cu30     1.0000 0.33789  0.75930  0.49599  Biso   1.000  Cu
  Cu31     1.0000 0.33789  0.99070  0.25401  Biso   1.000  Cu
  Cu32     1.0000 0.41211  0.75930  0.25401  Biso   1.000  Cu
  C193     1.0000 0.78170  0.56990  0.57602  Biso   1.000  C
  C194     1.0000 0.96830  0.18010  0.57602  Biso   1.000  C
  C195     1.0000 0.96830  0.56990  0.17398  Biso   1.000  C
  C196     1.0000 0.78170  0.18010  0.17398  Biso   1.000  C
  C197     1.0000 0.78170  0.06990  0.07602  Biso   1.000  C
  C198     1.0000 0.96830  0.68010  0.07602  Biso   1.000  C
  C199     1.0000 0.96830  0.06990  0.67398  Biso   1.000  C
  C200     1.0000 0.78170  0.68010  0.67398  Biso   1.000  C
  C201     1.0000 0.28170  0.56990  0.07602  Biso   1.000  C
  C202     1.0000 0.46830  0.18010  0.07602  Biso   1.000  C
  C203     1.0000 0.46830  0.56990  0.67398  Biso   1.000  C
  C204     1.0000 0.28170  0.18010  0.67398  Biso   1.000  C
  C205     1.0000 0.28170  0.06990  0.57602  Biso   1.000  C
  C206     1.0000 0.46830  0.68010  0.57602  Biso   1.000  C
  C207     1.0000 0.46830  0.06990  0.17398  Biso   1.000  C
  C208     1.0000 0.28170  0.68010  0.17398  Biso   1.000  C
  C209     1.0000 0.21830  0.43010  0.42398  Biso   1.000  C
  C210     1.0000 0.53170  0.31990  0.42398  Biso   1.000  C
  C211     1.0000 0.53170  0.43010  0.32602  Biso   1.000  C
  C212     1.0000 0.21830  0.31990  0.32602  Biso   1.000  C
  C213     1.0000 0.21830  0.93010  0.92398  Biso   1.000  C
  C214     1.0000 0.53170  0.81990  0.92398  Biso   1.000  C
  C215     1.0000 0.53170  0.93010  0.82602  Biso   1.000  C
  C216     1.0000 0.21830  0.81990  0.82602  Biso   1.000  C
  C217     1.0000 0.71830  0.43010  0.92398  Biso   1.000  C
  C218     1.0000 0.03170  0.31990  0.92398  Biso   1.000  C
  C219     1.0000 0.03170  0.43010  0.82602  Biso   1.000  C
  C220     1.0000 0.71830  0.31990  0.82602  Biso   1.000  C
  C221     1.0000 0.71830  0.93010  0.42398  Biso   1.000  C
  C222     1.0000 0.03170  0.81990  0.42398  Biso   1.000  C
  C223     1.0000 0.03170  0.93010  0.32602  Biso   1.000  C
  C224     1.0000 0.71830  0.81990  0.32602  Biso   1.000  C
  C225     1.0000 0.69470  0.55794  0.58418  Biso   1.000  C
  C226     1.0000 0.05530  0.19206  0.58418  Biso   1.000  C
  C227     1.0000 0.05530  0.55794  0.16582  Biso   1.000  C
  C228     1.0000 0.69470  0.19206  0.16582  Biso   1.000  C
  C229     1.0000 0.69470  0.05794  0.08418  Biso   1.000  C
  C230     1.0000 0.05530  0.69206  0.08418  Biso   1.000  C
  C231     1.0000 0.05530  0.05794  0.66582  Biso   1.000  C
  C232     1.0000 0.69470  0.69206  0.66582  Biso   1.000  C
  C233     1.0000 0.19470  0.55794  0.08418  Biso   1.000  C
  C234     1.0000 0.55530  0.19206  0.08418  Biso   1.000  C
  C235     1.0000 0.55530  0.55794  0.66582  Biso   1.000  C
  C236     1.0000 0.19470  0.19206  0.66582  Biso   1.000  C
  C237     1.0000 0.19470  0.05794  0.58418  Biso   1.000  C
  C238     1.0000 0.55530  0.69206  0.58418  Biso   1.000  C
  C239     1.0000 0.55530  0.05794  0.16582  Biso   1.000  C
  C240     1.0000 0.19470  0.69206  0.16582  Biso   1.000  C
  C241     1.0000 0.30530  0.44206  0.41582  Biso   1.000  C
  C242     1.0000 0.44470  0.30794  0.41582  Biso   1.000  C
  C243     1.0000 0.44470  0.44206  0.33418  Biso   1.000  C
  C244     1.0000 0.30530  0.30794  0.33418  Biso   1.000  C
  C245     1.0000 0.30530  0.94206  0.91582  Biso   1.000  C
  C246     1.0000 0.44470  0.80794  0.91582  Biso   1.000  C
  C247     1.0000 0.44470  0.94206  0.83418  Biso   1.000  C
  C248     1.0000 0.30530  0.80794  0.83418  Biso   1.000  C
  C249     1.0000 0.80530  0.44206  0.91582  Biso   1.000  C
  C250     1.0000 0.94470  0.30794  0.91582  Biso   1.000  C
  C251     1.0000 0.94470  0.44206  0.83418  Biso   1.000  C
  C252     1.0000 0.80530  0.30794  0.83418  Biso   1.000  C
  C253     1.0000 0.80530  0.94206  0.41582  Biso   1.000  C
  C254     1.0000 0.94470  0.80794  0.41582  Biso   1.000  C
  C255     1.0000 0.94470  0.94206  0.33418  Biso   1.000  C
  C256     1.0000 0.80530  0.80794  0.33418  Biso   1.000  C
  H129     1.0000 0.66880  0.53840  0.57870  Biso   1.000  H
  H130     1.0000 0.08120  0.21160  0.57870  Biso   1.000  H
  H131     1.0000 0.08120  0.53840  0.17130  Biso   1.000  H
  H132     1.0000 0.66880  0.21160  0.17130  Biso   1.000  H
  H133     1.0000 0.66880  0.03840  0.07870  Biso   1.000  H
  H134     1.0000 0.08120  0.71160  0.07870  Biso   1.000  H
  H135     1.0000 0.08120  0.03840  0.67130  Biso   1.000  H
  H136     1.0000 0.66880  0.71160  0.67130  Biso   1.000  H
  H137     1.0000 0.16880  0.53840  0.07870  Biso   1.000  H
  H138     1.0000 0.58120  0.21160  0.07870  Biso   1.000  H
  H139     1.0000 0.58120  0.53840  0.67130  Biso   1.000  H
  H140     1.0000 0.16880  0.21160  0.67130  Biso   1.000  H
  H141     1.0000 0.16880  0.03840  0.57870  Biso   1.000  H
  H142     1.0000 0.58120  0.71160  0.57870  Biso   1.000  H
  H143     1.0000 0.58120  0.03840  0.17130  Biso   1.000  H
  H144     1.0000 0.16880  0.71160  0.17130  Biso   1.000  H
  H145     1.0000 0.33120  0.46160  0.42130  Biso   1.000  H
  H146     1.0000 0.41880  0.28840  0.42130  Biso   1.000  H
  H147     1.0000 0.41880  0.46160  0.32870  Biso   1.000  H
  H148     1.0000 0.33120  0.28840  0.32870  Biso   1.000  H
  H149     1.0000 0.33120  0.96160  0.92130  Biso   1.000  H
  H150     1.0000 0.41880  0.78840  0.92130  Biso   1.000  H
  H151     1.0000 0.41880  0.96160  0.82870  Biso   1.000  H
  H152     1.0000 0.33120  0.78840  0.82870  Biso   1.000  H
  H153     1.0000 0.83120  0.46160  0.92130  Biso   1.000  H
  H154     1.0000 0.91880  0.28840  0.92130  Biso   1.000  H
  H155     1.0000 0.91880  0.46160  0.82870  Biso   1.000  H
  H156     1.0000 0.83120  0.28840  0.82870  Biso   1.000  H
  H157     1.0000 0.83120  0.96160  0.42130  Biso   1.000  H
  H158     1.0000 0.91880  0.78840  0.42130  Biso   1.000  H
  H159     1.0000 0.91880  0.96160  0.32870  Biso   1.000  H
  H160     1.0000 0.83120  0.78840  0.32870  Biso   1.000  H
  C257     1.0000 0.64640  0.57510  0.60061  Biso   1.000  C
  C258     1.0000 0.10360  0.17490  0.60061  Biso   1.000  C
  C259     1.0000 0.10360  0.57510  0.14939  Biso   1.000  C
  C260     1.0000 0.64640  0.17490  0.14939  Biso   1.000  C
  C261     1.0000 0.64640  0.07510  0.10061  Biso   1.000  C
  C262     1.0000 0.10360  0.67490  0.10061  Biso   1.000  C
  C263     1.0000 0.10360  0.07510  0.64939  Biso   1.000  C
  C264     1.0000 0.64640  0.67490  0.64939  Biso   1.000  C
  C265     1.0000 0.14640  0.57510  0.10061  Biso   1.000  C
  C266     1.0000 0.60360  0.17490  0.10061  Biso   1.000  C
  C267     1.0000 0.60360  0.57510  0.64939  Biso   1.000  C
  C268     1.0000 0.14640  0.17490  0.64939  Biso   1.000  C
  C269     1.0000 0.14640  0.07510  0.60061  Biso   1.000  C
  C270     1.0000 0.60360  0.67490  0.60061  Biso   1.000  C
  C271     1.0000 0.60360  0.07510  0.14939  Biso   1.000  C
  C272     1.0000 0.14640  0.67490  0.14939  Biso   1.000  C
  C273     1.0000 0.35360  0.42490  0.39939  Biso   1.000  C
  C274     1.0000 0.39640  0.32510  0.39939  Biso   1.000  C
  C275     1.0000 0.39640  0.42490  0.35061  Biso   1.000  C
  C276     1.0000 0.35360  0.32510  0.35061  Biso   1.000  C
  C277     1.0000 0.35360  0.92490  0.89939  Biso   1.000  C
  C278     1.0000 0.39640  0.82510  0.89939  Biso   1.000  C
  C279     1.0000 0.39640  0.92490  0.85061  Biso   1.000  C
  C280     1.0000 0.35360  0.82510  0.85061  Biso   1.000  C
  C281     1.0000 0.85360  0.42490  0.89939  Biso   1.000  C
  C282     1.0000 0.89640  0.32510  0.89939  Biso   1.000  C
  C283     1.0000 0.89640  0.42490  0.85061  Biso   1.000  C
  C284     1.0000 0.85360  0.32510  0.85061  Biso   1.000  C
  C285     1.0000 0.85360  0.92490  0.39939  Biso   1.000  C
  C286     1.0000 0.89640  0.82510  0.39939  Biso   1.000  C
  C287     1.0000 0.89640  0.92490  0.35061  Biso   1.000  C
  C288     1.0000 0.85360  0.82510  0.35061  Biso   1.000  C
  H161     1.0000 0.58820  0.56710  0.60610  Biso   1.000  H
  H162     1.0000 0.16180  0.18290  0.60610  Biso   1.000  H
  H163     1.0000 0.16180  0.56710  0.14390  Biso   1.000  H
  H164     1.0000 0.58820  0.18290  0.14390  Biso   1.000  H
  H165     1.0000 0.58820  0.06710  0.10610  Biso   1.000  H
  H166     1.0000 0.16180  0.68290  0.10610  Biso   1.000  H
  H167     1.0000 0.16180  0.06710  0.64390  Biso   1.000  H
  H168     1.0000 0.58820  0.68290  0.64390  Biso   1.000  H
  H169     1.0000 0.08820  0.56710  0.10610  Biso   1.000  H
  H170     1.0000 0.66180  0.18290  0.10610  Biso   1.000  H
  H171     1.0000 0.66180  0.56710  0.64390  Biso   1.000  H
  H172     1.0000 0.08820  0.18290  0.64390  Biso   1.000  H
  H173     1.0000 0.08820  0.06710  0.60610  Biso   1.000  H
  H174     1.0000 0.66180  0.68290  0.60610  Biso   1.000  H
  H175     1.0000 0.66180  0.06710  0.14390  Biso   1.000  H
  H176     1.0000 0.08820  0.68290  0.14390  Biso   1.000  H
  H177     1.0000 0.41180  0.43290  0.39390  Biso   1.000  H
  H178     1.0000 0.33820  0.31710  0.39390  Biso   1.000  H
  H179     1.0000 0.33820  0.43290  0.35610  Biso   1.000  H
  H180     1.0000 0.41180  0.31710  0.35610  Biso   1.000  H
  H181     1.0000 0.41180  0.93290  0.89390  Biso   1.000  H
  H182     1.0000 0.33820  0.81710  0.89390  Biso   1.000  H
  H183     1.0000 0.33820  0.93290  0.85610  Biso   1.000  H
  H184     1.0000 0.41180  0.81710  0.85610  Biso   1.000  H
  H185     1.0000 0.91180  0.43290  0.89390  Biso   1.000  H
  H186     1.0000 0.83820  0.31710  0.89390  Biso   1.000  H
  H187     1.0000 0.83820  0.43290  0.85610  Biso   1.000  H
  H188     1.0000 0.91180  0.31710  0.85610  Biso   1.000  H
  H189     1.0000 0.91180  0.93290  0.39390  Biso   1.000  H
  H190     1.0000 0.83820  0.81710  0.39390  Biso   1.000  H
  H191     1.0000 0.83820  0.93290  0.35610  Biso   1.000  H
  H192     1.0000 0.91180  0.81710  0.35610  Biso   1.000  H
  C289     1.0000 0.68520  0.60430  0.60888  Biso   1.000  C
  C290     1.0000 0.06480  0.14570  0.60888  Biso   1.000  C
  C291     1.0000 0.06480  0.60430  0.14112  Biso   1.000  C
  C292     1.0000 0.68520  0.14570  0.14112  Biso   1.000  C
  C293     1.0000 0.68520  0.10430  0.10888  Biso   1.000  C
  C294     1.0000 0.06480  0.64570  0.10888  Biso   1.000  C
  C295     1.0000 0.06480  0.10430  0.64112  Biso   1.000  C
  C296     1.0000 0.68520  0.64570  0.64112  Biso   1.000  C
  C297     1.0000 0.18520  0.60430  0.10888  Biso   1.000  C
  C298     1.0000 0.56480  0.14570  0.10888  Biso   1.000  C
  C299     1.0000 0.56480  0.60430  0.64112  Biso   1.000  C
  C300     1.0000 0.18520  0.14570  0.64112  Biso   1.000  C
  C301     1.0000 0.18520  0.10430  0.60888  Biso   1.000  C
  C302     1.0000 0.56480  0.64570  0.60888  Biso   1.000  C
  C303     1.0000 0.56480  0.10430  0.14112  Biso   1.000  C
  C304     1.0000 0.18520  0.64570  0.14112  Biso   1.000  C
  C305     1.0000 0.31480  0.39570  0.39112  Biso   1.000  C
  C306     1.0000 0.43520  0.35430  0.39112  Biso   1.000  C
  C307     1.0000 0.43520  0.39570  0.35888  Biso   1.000  C
  C308     1.0000 0.31480  0.35430  0.35888  Biso   1.000  C
  C309     1.0000 0.31480  0.89570  0.89112  Biso   1.000  C
  C310     1.0000 0.43520  0.85430  0.89112  Biso   1.000  C
  C311     1.0000 0.43520  0.89570  0.85888  Biso   1.000  C
  C312     1.0000 0.31480  0.85430  0.85888  Biso   1.000  C
  C313     1.0000 0.81480  0.39570  0.89112  Biso   1.000  C
  C314     1.0000 0.93520  0.35430  0.89112  Biso   1.000  C
  C315     1.0000 0.93520  0.39570  0.85888  Biso   1.000  C
  C316     1.0000 0.81480  0.35430  0.85888  Biso   1.000  C
  C317     1.0000 0.81480  0.89570  0.39112  Biso   1.000  C
  C318     1.0000 0.93520  0.85430  0.39112  Biso   1.000  C
  C319     1.0000 0.93520  0.89570  0.35888  Biso   1.000  C
  C320     1.0000 0.81480  0.85430  0.35888  Biso   1.000  C
  C321     1.0000 0.77220  0.61627  0.60071  Biso   1.000  C
  C322     1.0000 0.97780  0.13373  0.60071  Biso   1.000  C
  C323     1.0000 0.97780  0.61627  0.14929  Biso   1.000  C
  C324     1.0000 0.77220  0.13373  0.14929  Biso   1.000  C
  C325     1.0000 0.77220  0.11627  0.10071  Biso   1.000  C
  C326     1.0000 0.97780  0.63373  0.10071  Biso   1.000  C
  C327     1.0000 0.97780  0.11627  0.64929  Biso   1.000  C
  C328     1.0000 0.77220  0.63373  0.64929  Biso   1.000  C
  C329     1.0000 0.27220  0.61627  0.10071  Biso   1.000  C
  C330     1.0000 0.47780  0.13373  0.10071  Biso   1.000  C
  C331     1.0000 0.47780  0.61627  0.64929  Biso   1.000  C
  C332     1.0000 0.27220  0.13373  0.64929  Biso   1.000  C
  C333     1.0000 0.27220  0.11627  0.60071  Biso   1.000  C
  C334     1.0000 0.47780  0.63373  0.60071  Biso   1.000  C
  C335     1.0000 0.47780  0.11627  0.14929  Biso   1.000  C
  C336     1.0000 0.27220  0.63373  0.14929  Biso   1.000  C
  C337     1.0000 0.22780  0.38373  0.39929  Biso   1.000  C
  C338     1.0000 0.52220  0.36627  0.39929  Biso   1.000  C
  C339     1.0000 0.52220  0.38373  0.35071  Biso   1.000  C
  C340     1.0000 0.22780  0.36627  0.35071  Biso   1.000  C
  C341     1.0000 0.22780  0.88373  0.89929  Biso   1.000  C
  C342     1.0000 0.52220  0.86627  0.89929  Biso   1.000  C
  C343     1.0000 0.52220  0.88373  0.85071  Biso   1.000  C
  C344     1.0000 0.22780  0.86627  0.85071  Biso   1.000  C
  C345     1.0000 0.72780  0.38373  0.89929  Biso   1.000  C
  C346     1.0000 0.02220  0.36627  0.89929  Biso   1.000  C
  C347     1.0000 0.02220  0.38373  0.85071  Biso   1.000  C
  C348     1.0000 0.72780  0.36627  0.85071  Biso   1.000  C
  C349     1.0000 0.72780  0.88373  0.39929  Biso   1.000  C
  C350     1.0000 0.02220  0.86627  0.39929  Biso   1.000  C
  C351     1.0000 0.02220  0.88373  0.35071  Biso   1.000  C
  C352     1.0000 0.72780  0.86627  0.35071  Biso   1.000  C
  H193     1.0000 0.79820  0.63580  0.60620  Biso   1.000  H
  H194     1.0000 0.95180  0.11420  0.60620  Biso   1.000  H
  H195     1.0000 0.95180  0.63580  0.14380  Biso   1.000  H
  H196     1.0000 0.79820  0.11420  0.14380  Biso   1.000  H
  H197     1.0000 0.79820  0.13580  0.10620  Biso   1.000  H
  H198     1.0000 0.95180  0.61420  0.10620  Biso   1.000  H
  H199     1.0000 0.95180  0.13580  0.64380  Biso   1.000  H
  H200     1.0000 0.79820  0.61420  0.64380  Biso   1.000  H
  H201     1.0000 0.29820  0.63580  0.10620  Biso   1.000  H
  H202     1.0000 0.45180  0.11420  0.10620  Biso   1.000  H
  H203     1.0000 0.45180  0.63580  0.64380  Biso   1.000  H
  H204     1.0000 0.29820  0.11420  0.64380  Biso   1.000  H
  H205     1.0000 0.29820  0.13580  0.60620  Biso   1.000  H
  H206     1.0000 0.45180  0.61420  0.60620  Biso   1.000  H
  H207     1.0000 0.45180  0.13580  0.14380  Biso   1.000  H
  H208     1.0000 0.29820  0.61420  0.14380  Biso   1.000  H
  H209     1.0000 0.20180  0.36420  0.39380  Biso   1.000  H
  H210     1.0000 0.54820  0.38580  0.39380  Biso   1.000  H
  H211     1.0000 0.54820  0.36420  0.35620  Biso   1.000  H
  H212     1.0000 0.20180  0.38580  0.35620  Biso   1.000  H
  H213     1.0000 0.20180  0.86420  0.89380  Biso   1.000  H
  H214     1.0000 0.54820  0.88580  0.89380  Biso   1.000  H
  H215     1.0000 0.54820  0.86420  0.85620  Biso   1.000  H
  H216     1.0000 0.20180  0.88580  0.85620  Biso   1.000  H
  H217     1.0000 0.70180  0.36420  0.89380  Biso   1.000  H
  H218     1.0000 0.04820  0.38580  0.89380  Biso   1.000  H
  H219     1.0000 0.04820  0.36420  0.85620  Biso   1.000  H
  H220     1.0000 0.70180  0.38580  0.85620  Biso   1.000  H
  H221     1.0000 0.70180  0.86420  0.39380  Biso   1.000  H
  H222     1.0000 0.04820  0.88580  0.39380  Biso   1.000  H
  H223     1.0000 0.04820  0.86420  0.35620  Biso   1.000  H
  H224     1.0000 0.70180  0.88580  0.35620  Biso   1.000  H
  C353     1.0000 0.82050  0.59910  0.58428  Biso   1.000  C
  C354     1.0000 0.92950  0.15090  0.58428  Biso   1.000  C
  C355     1.0000 0.92950  0.59910  0.16572  Biso   1.000  C
  C356     1.0000 0.82050  0.15090  0.16572  Biso   1.000  C
  C357     1.0000 0.82050  0.09910  0.08428  Biso   1.000  C
  C358     1.0000 0.92950  0.65090  0.08428  Biso   1.000  C
  C359     1.0000 0.92950  0.09910  0.66572  Biso   1.000  C
  C360     1.0000 0.82050  0.65090  0.66572  Biso   1.000  C
  C361     1.0000 0.32050  0.59910  0.08428  Biso   1.000  C
  C362     1.0000 0.42950  0.15090  0.08428  Biso   1.000  C
  C363     1.0000 0.42950  0.59910  0.66572  Biso   1.000  C
  C364     1.0000 0.32050  0.15090  0.66572  Biso   1.000  C
  C365     1.0000 0.32050  0.09910  0.58428  Biso   1.000  C
  C366     1.0000 0.42950  0.65090  0.58428  Biso   1.000  C
  C367     1.0000 0.42950  0.09910  0.16572  Biso   1.000  C
  C368     1.0000 0.32050  0.65090  0.16572  Biso   1.000  C
  C369     1.0000 0.17950  0.40090  0.41572  Biso   1.000  C
  C370     1.0000 0.57050  0.34910  0.41572  Biso   1.000  C
  C371     1.0000 0.57050  0.40090  0.33428  Biso   1.000  C
  C372     1.0000 0.17950  0.34910  0.33428  Biso   1.000  C
  C373     1.0000 0.17950  0.90090  0.91572  Biso   1.000  C
  C374     1.0000 0.57050  0.84910  0.91572  Biso   1.000  C
  C375     1.0000 0.57050  0.90090  0.83428  Biso   1.000  C
  C376     1.0000 0.17950  0.84910  0.83428  Biso   1.000  C
  C377     1.0000 0.67950  0.40090  0.91572  Biso   1.000  C
  C378     1.0000 0.07050  0.34910  0.91572  Biso   1.000  C
  C379     1.0000 0.07050  0.40090  0.83428  Biso   1.000  C
  C380     1.0000 0.67950  0.34910  0.83428  Biso   1.000  C
  C381     1.0000 0.67950  0.90090  0.41572  Biso   1.000  C
  C382     1.0000 0.07050  0.84910  0.41572  Biso   1.000  C
  C383     1.0000 0.07050  0.90090  0.33428  Biso   1.000  C
  C384     1.0000 0.67950  0.84910  0.33428  Biso   1.000  C
  H225     1.0000 0.87880  0.60710  0.57880  Biso   1.000  H
  H226     1.0000 0.87120  0.14290  0.57880  Biso   1.000  H
  H227     1.0000 0.87120  0.60710  0.17120  Biso   1.000  H
  H228     1.0000 0.87880  0.14290  0.17120  Biso   1.000  H
  H229     1.0000 0.87880  0.10710  0.07880  Biso   1.000  H
  H230     1.0000 0.87120  0.64290  0.07880  Biso   1.000  H
  H231     1.0000 0.87120  0.10710  0.67120  Biso   1.000  H
  H232     1.0000 0.87880  0.64290  0.67120  Biso   1.000  H
  H233     1.0000 0.37880  0.60710  0.07880  Biso   1.000  H
  H234     1.0000 0.37120  0.14290  0.07880  Biso   1.000  H
  H235     1.0000 0.37120  0.60710  0.67120  Biso   1.000  H
  H236     1.0000 0.37880  0.14290  0.67120  Biso   1.000  H
  H237     1.0000 0.37880  0.10710  0.57880  Biso   1.000  H
  H238     1.0000 0.37120  0.64290  0.57880  Biso   1.000  H
  H239     1.0000 0.37120  0.10710  0.17120  Biso   1.000  H
  H240     1.0000 0.37880  0.64290  0.17120  Biso   1.000  H
  H241     1.0000 0.12120  0.39290  0.42120  Biso   1.000  H
  H242     1.0000 0.62880  0.35710  0.42120  Biso   1.000  H
  H243     1.0000 0.62880  0.39290  0.32880  Biso   1.000  H
  H244     1.0000 0.12120  0.35710  0.32880  Biso   1.000  H
  H245     1.0000 0.12120  0.89290  0.92120  Biso   1.000  H
  H246     1.0000 0.62880  0.85710  0.92120  Biso   1.000  H
  H247     1.0000 0.62880  0.89290  0.82880  Biso   1.000  H
  H248     1.0000 0.12120  0.85710  0.82880  Biso   1.000  H
  H249     1.0000 0.62120  0.39290  0.92120  Biso   1.000  H
  H250     1.0000 0.12880  0.35710  0.92120  Biso   1.000  H
  H251     1.0000 0.12880  0.39290  0.82880  Biso   1.000  H
  H252     1.0000 0.62120  0.35710  0.82880  Biso   1.000  H
  H253     1.0000 0.62120  0.89290  0.42120  Biso   1.000  H
  H254     1.0000 0.12880  0.85710  0.42120  Biso   1.000  H
  H255     1.0000 0.12880  0.89290  0.32880  Biso   1.000  H
  H256     1.0000 0.62120  0.85710  0.32880  Biso   1.000  H
  Cu33     1.0000 0.37500  0.87500  0.39606  Biso   1.000  Cu
  Cu34     1.0000 0.37500  0.87500  0.35394  Biso   1.000  Cu
  Cu35     1.0000 0.37500  0.37500  0.89606  Biso   1.000  Cu
  Cu36     1.0000 0.37500  0.37500  0.85394  Biso   1.000  Cu
  Cu37     1.0000 0.87500  0.87500  0.89606  Biso   1.000  Cu
  Cu38     1.0000 0.87500  0.87500  0.85394  Biso   1.000  Cu
  Cu39     1.0000 0.87500  0.37500  0.39606  Biso   1.000  Cu
  Cu40     1.0000 0.87500  0.37500  0.35394  Biso   1.000  Cu
  Cu41     1.0000 0.62500  0.12500  0.60394  Biso   1.000  Cu
  Cu42     1.0000 0.12500  0.62500  0.60394  Biso   1.000  Cu
  Cu43     1.0000 0.12500  0.12500  0.14606  Biso   1.000  Cu
  Cu44     1.0000 0.62500  0.62500  0.14606  Biso   1.000  Cu
  Cu45     1.0000 0.62500  0.62500  0.10394  Biso   1.000  Cu
  Cu46     1.0000 0.12500  0.12500  0.10394  Biso   1.000  Cu
  Cu47     1.0000 0.12500  0.62500  0.64606  Biso   1.000  Cu
  Cu48     1.0000 0.62500  0.12500  0.64606  Biso   1.000  Cu
  C385     1.0000 0.88370  0.65261  0.39461  Biso   1.000  C
  C386     1.0000 0.86630  0.09739  0.39461  Biso   1.000  C
  C387     1.0000 0.86630  0.65261  0.35539  Biso   1.000  C
  C388     1.0000 0.88370  0.09739  0.35539  Biso   1.000  C
  C389     1.0000 0.88370  0.15261  0.89461  Biso   1.000  C
  C390     1.0000 0.86630  0.59739  0.89461  Biso   1.000  C
  C391     1.0000 0.86630  0.15261  0.85539  Biso   1.000  C
  C392     1.0000 0.88370  0.59739  0.85539  Biso   1.000  C
  C393     1.0000 0.38370  0.65261  0.89461  Biso   1.000  C
  C394     1.0000 0.36630  0.09739  0.89461  Biso   1.000  C
  C395     1.0000 0.36630  0.65261  0.85539  Biso   1.000  C
  C396     1.0000 0.38370  0.09739  0.85539  Biso   1.000  C
  C397     1.0000 0.38370  0.15261  0.39461  Biso   1.000  C
  C398     1.0000 0.36630  0.59739  0.39461  Biso   1.000  C
  C399     1.0000 0.36630  0.15261  0.35539  Biso   1.000  C
  C400     1.0000 0.38370  0.59739  0.35539  Biso   1.000  C
  C401     1.0000 0.11630  0.34739  0.60539  Biso   1.000  C
  C402     1.0000 0.63370  0.40261  0.60539  Biso   1.000  C
  C403     1.0000 0.63370  0.34739  0.14461  Biso   1.000  C
  C404     1.0000 0.11630  0.40261  0.14461  Biso   1.000  C
  C405     1.0000 0.11630  0.84739  0.10539  Biso   1.000  C
  C406     1.0000 0.63370  0.90261  0.10539  Biso   1.000  C
  C407     1.0000 0.63370  0.84739  0.64461  Biso   1.000  C
  C408     1.0000 0.11630  0.90261  0.64461  Biso   1.000  C
  C409     1.0000 0.61630  0.34739  0.10539  Biso   1.000  C
  C410     1.0000 0.13370  0.40261  0.10539  Biso   1.000  C
  C411     1.0000 0.13370  0.34739  0.64461  Biso   1.000  C
  C412     1.0000 0.61630  0.40261  0.64461  Biso   1.000  C
  C413     1.0000 0.61630  0.84739  0.60539  Biso   1.000  C
  C414     1.0000 0.13370  0.90261  0.60539  Biso   1.000  C
  C415     1.0000 0.13370  0.84739  0.14461  Biso   1.000  C
  C416     1.0000 0.61630  0.90261  0.14461  Biso   1.000  C
  C417     1.0000 0.97110  0.63650  0.39816  Biso   1.000  C
  C418     1.0000 0.77890  0.11350  0.39816  Biso   1.000  C
  C419     1.0000 0.77890  0.63650  0.35184  Biso   1.000  C
  C420     1.0000 0.97110  0.11350  0.35184  Biso   1.000  C
  C421     1.0000 0.97110  0.13650  0.89816  Biso   1.000  C
  C422     1.0000 0.77890  0.61350  0.89816  Biso   1.000  C
  C423     1.0000 0.77890  0.13650  0.85184  Biso   1.000  C
  C424     1.0000 0.97110  0.61350  0.85184  Biso   1.000  C
  C425     1.0000 0.47110  0.63650  0.89816  Biso   1.000  C
  C426     1.0000 0.27890  0.11350  0.89816  Biso   1.000  C
  C427     1.0000 0.27890  0.63650  0.85184  Biso   1.000  C
  C428     1.0000 0.47110  0.11350  0.85184  Biso   1.000  C
  C429     1.0000 0.47110  0.13650  0.39816  Biso   1.000  C
  C430     1.0000 0.27890  0.61350  0.39816  Biso   1.000  C
  C431     1.0000 0.27890  0.13650  0.35184  Biso   1.000  C
  C432     1.0000 0.47110  0.61350  0.35184  Biso   1.000  C
  C433     1.0000 0.02890  0.36350  0.60184  Biso   1.000  C
  C434     1.0000 0.72110  0.38650  0.60184  Biso   1.000  C
  C435     1.0000 0.72110  0.36350  0.14816  Biso   1.000  C
  C436     1.0000 0.02890  0.38650  0.14816  Biso   1.000  C
  C437     1.0000 0.02890  0.86350  0.10184  Biso   1.000  C
  C438     1.0000 0.72110  0.88650  0.10184  Biso   1.000  C
  C439     1.0000 0.72110  0.86350  0.64816  Biso   1.000  C
  C440     1.0000 0.02890  0.88650  0.64816  Biso   1.000  C
  C441     1.0000 0.52890  0.36350  0.10184  Biso   1.000  C
  C442     1.0000 0.22110  0.38650  0.10184  Biso   1.000  C
  C443     1.0000 0.22110  0.36350  0.64816  Biso   1.000  C
  C444     1.0000 0.52890  0.38650  0.64816  Biso   1.000  C
  C445     1.0000 0.52890  0.86350  0.60184  Biso   1.000  C
  C446     1.0000 0.22110  0.88650  0.60184  Biso   1.000  C
  C447     1.0000 0.22110  0.86350  0.14816  Biso   1.000  C
  C448     1.0000 0.52890  0.88650  0.14816  Biso   1.000  C
  H257     1.0000 0.02400  0.64100  0.38930  Biso   1.000  H
  H258     1.0000 0.72600  0.10900  0.38930  Biso   1.000  H
  H259     1.0000 0.72600  0.64100  0.36070  Biso   1.000  H
  H260     1.0000 0.02400  0.10900  0.36070  Biso   1.000  H
  H261     1.0000 0.02400  0.14100  0.88930  Biso   1.000  H
  H262     1.0000 0.72600  0.60900  0.88930  Biso   1.000  H
  H263     1.0000 0.72600  0.14100  0.86070  Biso   1.000  H
  H264     1.0000 0.02400  0.60900  0.86070  Biso   1.000  H
  H265     1.0000 0.52400  0.64100  0.88930  Biso   1.000  H
  H266     1.0000 0.22600  0.10900  0.88930  Biso   1.000  H
  H267     1.0000 0.22600  0.64100  0.86070  Biso   1.000  H
  H268     1.0000 0.52400  0.10900  0.86070  Biso   1.000  H
  H269     1.0000 0.52400  0.14100  0.38930  Biso   1.000  H
  H270     1.0000 0.22600  0.60900  0.38930  Biso   1.000  H
  H271     1.0000 0.22600  0.14100  0.36070  Biso   1.000  H
  H272     1.0000 0.52400  0.60900  0.36070  Biso   1.000  H
  H273     1.0000 0.97600  0.35900  0.61070  Biso   1.000  H
  H274     1.0000 0.77400  0.39100  0.61070  Biso   1.000  H
  H275     1.0000 0.77400  0.35900  0.13930  Biso   1.000  H
  H276     1.0000 0.97600  0.39100  0.13930  Biso   1.000  H
  H277     1.0000 0.97600  0.85900  0.11070  Biso   1.000  H
  H278     1.0000 0.77400  0.89100  0.11070  Biso   1.000  H
  H279     1.0000 0.77400  0.85900  0.63930  Biso   1.000  H
  H280     1.0000 0.97600  0.89100  0.63930  Biso   1.000  H
  H281     1.0000 0.47600  0.35900  0.11070  Biso   1.000  H
  H282     1.0000 0.27400  0.39100  0.11070  Biso   1.000  H
  H283     1.0000 0.27400  0.35900  0.63930  Biso   1.000  H
  H284     1.0000 0.47600  0.39100  0.63930  Biso   1.000  H
  H285     1.0000 0.47600  0.85900  0.61070  Biso   1.000  H
  H286     1.0000 0.27400  0.89100  0.61070  Biso   1.000  H
  H287     1.0000 0.27400  0.85900  0.13930  Biso   1.000  H
  H288     1.0000 0.47600  0.89100  0.13930  Biso   1.000  H
  C449     1.0000 0.97930  0.61350  0.41502  Biso   1.000  C
  C450     1.0000 0.77070  0.13650  0.41502  Biso   1.000  C
  C451     1.0000 0.77070  0.61350  0.33498  Biso   1.000  C
  C452     1.0000 0.97930  0.13650  0.33498  Biso   1.000  C
  C453     1.0000 0.97930  0.11350  0.91502  Biso   1.000  C
  C454     1.0000 0.77070  0.63650  0.91502  Biso   1.000  C
  C455     1.0000 0.77070  0.11350  0.83498  Biso   1.000  C
  C456     1.0000 0.97930  0.63650  0.83498  Biso   1.000  C
  C457     1.0000 0.47930  0.61350  0.91502  Biso   1.000  C
  C458     1.0000 0.27070  0.13650  0.91502  Biso   1.000  C
  C459     1.0000 0.27070  0.61350  0.83498  Biso   1.000  C
  C460     1.0000 0.47930  0.13650  0.83498  Biso   1.000  C
  C461     1.0000 0.47930  0.11350  0.41502  Biso   1.000  C
  C462     1.0000 0.27070  0.63650  0.41502  Biso   1.000  C
  C463     1.0000 0.27070  0.11350  0.33498  Biso   1.000  C
  C464     1.0000 0.47930  0.63650  0.33498  Biso   1.000  C
  C465     1.0000 0.02070  0.38650  0.58498  Biso   1.000  C
  C466     1.0000 0.72930  0.36350  0.58498  Biso   1.000  C
  C467     1.0000 0.72930  0.38650  0.16502  Biso   1.000  C
  C468     1.0000 0.02070  0.36350  0.16502  Biso   1.000  C
  C469     1.0000 0.02070  0.88650  0.08498  Biso   1.000  C
  C470     1.0000 0.72930  0.86350  0.08498  Biso   1.000  C
  C471     1.0000 0.72930  0.88650  0.66502  Biso   1.000  C
  C472     1.0000 0.02070  0.86350  0.66502  Biso   1.000  C
  C473     1.0000 0.52070  0.38650  0.08498  Biso   1.000  C
  C474     1.0000 0.22930  0.36350  0.08498  Biso   1.000  C
  C475     1.0000 0.22930  0.38650  0.66502  Biso   1.000  C
  C476     1.0000 0.52070  0.36350  0.66502  Biso   1.000  C
  C477     1.0000 0.52070  0.88650  0.58498  Biso   1.000  C
  C478     1.0000 0.22930  0.86350  0.58498  Biso   1.000  C
  C479     1.0000 0.22930  0.88650  0.16502  Biso   1.000  C
  C480     1.0000 0.52070  0.86350  0.16502  Biso   1.000  C
  H289     1.0000 0.03770  0.60270  0.41740  Biso   1.000  H
  H290     1.0000 0.71230  0.14730  0.41740  Biso   1.000  H
  H291     1.0000 0.71230  0.60270  0.33260  Biso   1.000  H
  H292     1.0000 0.03770  0.14730  0.33260  Biso   1.000  H
  H293     1.0000 0.03770  0.10270  0.91740  Biso   1.000  H
  H294     1.0000 0.71230  0.64730  0.91740  Biso   1.000  H
  H295     1.0000 0.71230  0.10270  0.83260  Biso   1.000  H
  H296     1.0000 0.03770  0.64730  0.83260  Biso   1.000  H
  H297     1.0000 0.53770  0.60270  0.91740  Biso   1.000  H
  H298     1.0000 0.21230  0.14730  0.91740  Biso   1.000  H
  H299     1.0000 0.21230  0.60270  0.83260  Biso   1.000  H
  H300     1.0000 0.53770  0.14730  0.83260  Biso   1.000  H
  H301     1.0000 0.53770  0.10270  0.41740  Biso   1.000  H
  H302     1.0000 0.21230  0.64730  0.41740  Biso   1.000  H
  H303     1.0000 0.21230  0.10270  0.33260  Biso   1.000  H
  H304     1.0000 0.53770  0.64730  0.33260  Biso   1.000  H
  H305     1.0000 0.96230  0.39730  0.58260  Biso   1.000  H
  H306     1.0000 0.78770  0.35270  0.58260  Biso   1.000  H
  H307     1.0000 0.78770  0.39730  0.16740  Biso   1.000  H
  H308     1.0000 0.96230  0.35270  0.16740  Biso   1.000  H
  H309     1.0000 0.96230  0.89730  0.08260  Biso   1.000  H
  H310     1.0000 0.78770  0.85270  0.08260  Biso   1.000  H
  H311     1.0000 0.78770  0.89730  0.66740  Biso   1.000  H
  H312     1.0000 0.96230  0.85270  0.66740  Biso   1.000  H
  H313     1.0000 0.46230  0.39730  0.08260  Biso   1.000  H
  H314     1.0000 0.28770  0.35270  0.08260  Biso   1.000  H
  H315     1.0000 0.28770  0.39730  0.66740  Biso   1.000  H
  H316     1.0000 0.46230  0.35270  0.66740  Biso   1.000  H
  H317     1.0000 0.46230  0.89730  0.58260  Biso   1.000  H
  H318     1.0000 0.28770  0.85270  0.58260  Biso   1.000  H
  H319     1.0000 0.28770  0.89730  0.16740  Biso   1.000  H
  H320     1.0000 0.46230  0.85270  0.16740  Biso   1.000  H
  C481     1.0000 0.90020  0.60670  0.42834  Biso   1.000  C
  C482     1.0000 0.84980  0.14330  0.42834  Biso   1.000  C
  C483     1.0000 0.84980  0.60670  0.32166  Biso   1.000  C
  C484     1.0000 0.90020  0.14330  0.32166  Biso   1.000  C
  C485     1.0000 0.90020  0.10670  0.92834  Biso   1.000  C
  C486     1.0000 0.84980  0.64330  0.92834  Biso   1.000  C
  C487     1.0000 0.84980  0.10670  0.82166  Biso   1.000  C
  C488     1.0000 0.90020  0.64330  0.82166  Biso   1.000  C
  C489     1.0000 0.40020  0.60670  0.92834  Biso   1.000  C
  C490     1.0000 0.34980  0.14330  0.92834  Biso   1.000  C
  C491     1.0000 0.34980  0.60670  0.82166  Biso   1.000  C
  C492     1.0000 0.40020  0.14330  0.82166  Biso   1.000  C
  C493     1.0000 0.40020  0.10670  0.42834  Biso   1.000  C
  C494     1.0000 0.34980  0.64330  0.42834  Biso   1.000  C
  C495     1.0000 0.34980  0.10670  0.32166  Biso   1.000  C
  C496     1.0000 0.40020  0.64330  0.32166  Biso   1.000  C
  C497     1.0000 0.09980  0.39330  0.57166  Biso   1.000  C
  C498     1.0000 0.65020  0.35670  0.57166  Biso   1.000  C
  C499     1.0000 0.65020  0.39330  0.17834  Biso   1.000  C
  C500     1.0000 0.09980  0.35670  0.17834  Biso   1.000  C
  C501     1.0000 0.09980  0.89330  0.07166  Biso   1.000  C
  C502     1.0000 0.65020  0.85670  0.07166  Biso   1.000  C
  C503     1.0000 0.65020  0.89330  0.67834  Biso   1.000  C
  C504     1.0000 0.09980  0.85670  0.67834  Biso   1.000  C
  C505     1.0000 0.59980  0.39330  0.07166  Biso   1.000  C
  C506     1.0000 0.15020  0.35670  0.07166  Biso   1.000  C
  C507     1.0000 0.15020  0.39330  0.67834  Biso   1.000  C
  C508     1.0000 0.59980  0.35670  0.67834  Biso   1.000  C
  C509     1.0000 0.59980  0.89330  0.57166  Biso   1.000  C
  C510     1.0000 0.15020  0.85670  0.57166  Biso   1.000  C
  C511     1.0000 0.15020  0.89330  0.17834  Biso   1.000  C
  C512     1.0000 0.59980  0.85670  0.17834  Biso   1.000  C
  C513     1.0000 0.81280  0.62280  0.42479  Biso   1.000  C
  C514     1.0000 0.93720  0.12720  0.42479  Biso   1.000  C
  C515     1.0000 0.93720  0.62280  0.32521  Biso   1.000  C
  C516     1.0000 0.81280  0.12720  0.32521  Biso   1.000  C
  C517     1.0000 0.81280  0.12280  0.92479  Biso   1.000  C
  C518     1.0000 0.93720  0.62720  0.92479  Biso   1.000  C
  C519     1.0000 0.93720  0.12280  0.82521  Biso   1.000  C
  C520     1.0000 0.81280  0.62720  0.82521  Biso   1.000  C
  C521     1.0000 0.31280  0.62280  0.92479  Biso   1.000  C
  C522     1.0000 0.43720  0.12720  0.92479  Biso   1.000  C
  C523     1.0000 0.43720  0.62280  0.82521  Biso   1.000  C
  C524     1.0000 0.31280  0.12720  0.82521  Biso   1.000  C
  C525     1.0000 0.31280  0.12280  0.42479  Biso   1.000  C
  C526     1.0000 0.43720  0.62720  0.42479  Biso   1.000  C
  C527     1.0000 0.43720  0.12280  0.32521  Biso   1.000  C
  C528     1.0000 0.31280  0.62720  0.32521  Biso   1.000  C
  C529     1.0000 0.18720  0.37720  0.57521  Biso   1.000  C
  C530     1.0000 0.56280  0.37280  0.57521  Biso   1.000  C
  C531     1.0000 0.56280  0.37720  0.17479  Biso   1.000  C
  C532     1.0000 0.18720  0.37280  0.17479  Biso   1.000  C
  C533     1.0000 0.18720  0.87720  0.07521  Biso   1.000  C
  C534     1.0000 0.56280  0.87280  0.07521  Biso   1.000  C
  C535     1.0000 0.56280  0.87720  0.67479  Biso   1.000  C
  C536     1.0000 0.18720  0.87280  0.67479  Biso   1.000  C
  C537     1.0000 0.68720  0.37720  0.07521  Biso   1.000  C
  C538     1.0000 0.06280  0.37280  0.07521  Biso   1.000  C
  C539     1.0000 0.06280  0.37720  0.67479  Biso   1.000  C
  C540     1.0000 0.68720  0.37280  0.67479  Biso   1.000  C
  C541     1.0000 0.68720  0.87720  0.57521  Biso   1.000  C
  C542     1.0000 0.06280  0.87280  0.57521  Biso   1.000  C
  C543     1.0000 0.06280  0.87720  0.17479  Biso   1.000  C
  C544     1.0000 0.68720  0.87280  0.17479  Biso   1.000  C
  H321     1.0000 0.75990  0.61830  0.43370  Biso   1.000  H
  H322     1.0000 0.99010  0.13170  0.43370  Biso   1.000  H
  H323     1.0000 0.99010  0.61830  0.31630  Biso   1.000  H
  H324     1.0000 0.75990  0.13170  0.31630  Biso   1.000  H
  H325     1.0000 0.75990  0.11830  0.93370  Biso   1.000  H
  H326     1.0000 0.99010  0.63170  0.93370  Biso   1.000  H
  H327     1.0000 0.99010  0.11830  0.81630  Biso   1.000  H
  H328     1.0000 0.75990  0.63170  0.81630  Biso   1.000  H
  H329     1.0000 0.25990  0.61830  0.93370  Biso   1.000  H
  H330     1.0000 0.49010  0.13170  0.93370  Biso   1.000  H
  H331     1.0000 0.49010  0.61830  0.81630  Biso   1.000  H
  H332     1.0000 0.25990  0.13170  0.81630  Biso   1.000  H
  H333     1.0000 0.25990  0.11830  0.43370  Biso   1.000  H
  H334     1.0000 0.49010  0.63170  0.43370  Biso   1.000  H
  H335     1.0000 0.49010  0.11830  0.31630  Biso   1.000  H
  H336     1.0000 0.25990  0.63170  0.31630  Biso   1.000  H
  H337     1.0000 0.24010  0.38170  0.56630  Biso   1.000  H
  H338     1.0000 0.50990  0.36830  0.56630  Biso   1.000  H
  H339     1.0000 0.50990  0.38170  0.18370  Biso   1.000  H
  H340     1.0000 0.24010  0.36830  0.18370  Biso   1.000  H
  H341     1.0000 0.24010  0.88170  0.06630  Biso   1.000  H
  H342     1.0000 0.50990  0.86830  0.06630  Biso   1.000  H
  H343     1.0000 0.50990  0.88170  0.68370  Biso   1.000  H
  H344     1.0000 0.24010  0.86830  0.68370  Biso   1.000  H
  H345     1.0000 0.74010  0.38170  0.06630  Biso   1.000  H
  H346     1.0000 0.00990  0.36830  0.06630  Biso   1.000  H
  H347     1.0000 0.00990  0.38170  0.68370  Biso   1.000  H
  H348     1.0000 0.74010  0.36830  0.68370  Biso   1.000  H
  H349     1.0000 0.74010  0.88170  0.56630  Biso   1.000  H
  H350     1.0000 0.00990  0.86830  0.56630  Biso   1.000  H
  H351     1.0000 0.00990  0.88170  0.18370  Biso   1.000  H
  H352     1.0000 0.74010  0.86830  0.18370  Biso   1.000  H
  C545     1.0000 0.80460  0.64580  0.40793  Biso   1.000  C
  C546     1.0000 0.94540  0.10420  0.40793  Biso   1.000  C
  C547     1.0000 0.94540  0.64580  0.34207  Biso   1.000  C
  C548     1.0000 0.80460  0.10420  0.34207  Biso   1.000  C
  C549     1.0000 0.80460  0.14580  0.90793  Biso   1.000  C
  C550     1.0000 0.94540  0.60420  0.90793  Biso   1.000  C
  C551     1.0000 0.94540  0.14580  0.84207  Biso   1.000  C
  C552     1.0000 0.80460  0.60420  0.84207  Biso   1.000  C
  C553     1.0000 0.30460  0.64580  0.90793  Biso   1.000  C
  C554     1.0000 0.44540  0.10420  0.90793  Biso   1.000  C
  C555     1.0000 0.44540  0.64580  0.84207  Biso   1.000  C
  C556     1.0000 0.30460  0.10420  0.84207  Biso   1.000  C
  C557     1.0000 0.30460  0.14580  0.40793  Biso   1.000  C
  C558     1.0000 0.44540  0.60420  0.40793  Biso   1.000  C
  C559     1.0000 0.44540  0.14580  0.34207  Biso   1.000  C
  C560     1.0000 0.30460  0.60420  0.34207  Biso   1.000  C
  C561     1.0000 0.19540  0.35420  0.59207  Biso   1.000  C
  C562     1.0000 0.55460  0.39580  0.59207  Biso   1.000  C
  C563     1.0000 0.55460  0.35420  0.15793  Biso   1.000  C
  C564     1.0000 0.19540  0.39580  0.15793  Biso   1.000  C
  C565     1.0000 0.19540  0.85420  0.09207  Biso   1.000  C
  C566     1.0000 0.55460  0.89580  0.09207  Biso   1.000  C
  C567     1.0000 0.55460  0.85420  0.65793  Biso   1.000  C
  C568     1.0000 0.19540  0.89580  0.65793  Biso   1.000  C
  C569     1.0000 0.69540  0.35420  0.09207  Biso   1.000  C
  C570     1.0000 0.05460  0.39580  0.09207  Biso   1.000  C
  C571     1.0000 0.05460  0.35420  0.65793  Biso   1.000  C
  C572     1.0000 0.69540  0.39580  0.65793  Biso   1.000  C
  C573     1.0000 0.69540  0.85420  0.59207  Biso   1.000  C
  C574     1.0000 0.05460  0.89580  0.59207  Biso   1.000  C
  C575     1.0000 0.05460  0.85420  0.15793  Biso   1.000  C
  C576     1.0000 0.69540  0.89580  0.15793  Biso   1.000  C
  H353     1.0000 0.74620  0.65660  0.40560  Biso   1.000  H
  H354     1.0000 0.00380  0.09340  0.40560  Biso   1.000  H
  H355     1.0000 0.00380  0.65660  0.34440  Biso   1.000  H
  H356     1.0000 0.74620  0.09340  0.34440  Biso   1.000  H
  H357     1.0000 0.74620  0.15660  0.90560  Biso   1.000  H
  H358     1.0000 0.00380  0.59340  0.90560  Biso   1.000  H
  H359     1.0000 0.00380  0.15660  0.84440  Biso   1.000  H
  H360     1.0000 0.74620  0.59340  0.84440  Biso   1.000  H
  H361     1.0000 0.24620  0.65660  0.90560  Biso   1.000  H
  H362     1.0000 0.50380  0.09340  0.90560  Biso   1.000  H
  H363     1.0000 0.50380  0.65660  0.84440  Biso   1.000  H
  H364     1.0000 0.24620  0.09340  0.84440  Biso   1.000  H
  H365     1.0000 0.24620  0.15660  0.40560  Biso   1.000  H
  H366     1.0000 0.50380  0.59340  0.40560  Biso   1.000  H
  H367     1.0000 0.50380  0.15660  0.34440  Biso   1.000  H
  H368     1.0000 0.24620  0.59340  0.34440  Biso   1.000  H
  H369     1.0000 0.25380  0.34340  0.59440  Biso   1.000  H
  H370     1.0000 0.49620  0.40660  0.59440  Biso   1.000  H
  H371     1.0000 0.49620  0.34340  0.15560  Biso   1.000  H
  H372     1.0000 0.25380  0.40660  0.15560  Biso   1.000  H
  H373     1.0000 0.25380  0.84340  0.09440  Biso   1.000  H
  H374     1.0000 0.49620  0.90660  0.09440  Biso   1.000  H
  H375     1.0000 0.49620  0.84340  0.65560  Biso   1.000  H
  H376     1.0000 0.25380  0.90660  0.65560  Biso   1.000  H
  H377     1.0000 0.75380  0.34340  0.09440  Biso   1.000  H
  H378     1.0000 0.99620  0.40660  0.09440  Biso   1.000  H
  H379     1.0000 0.99620  0.34340  0.65560  Biso   1.000  H
  H380     1.0000 0.75380  0.40660  0.65560  Biso   1.000  H
  H381     1.0000 0.75380  0.84340  0.59440  Biso   1.000  H
  H382     1.0000 0.99620  0.90660  0.59440  Biso   1.000  H
  H383     1.0000 0.99620  0.84340  0.15560  Biso   1.000  H
  H384     1.0000 0.75380  0.90660  0.15560  Biso   1.000  H
  C577     1.0000 0.87500  0.67700  0.37500  Biso   1.000  C
  C578     1.0000 0.87500  0.07300  0.37500  Biso   1.000  C
  C579     1.0000 0.87500  0.17700  0.87500  Biso   1.000  C
  C580     1.0000 0.87500  0.57300  0.87500  Biso   1.000  C
  C581     1.0000 0.37500  0.67700  0.87500  Biso   1.000  C
  C582     1.0000 0.37500  0.07300  0.87500  Biso   1.000  C
  C583     1.0000 0.37500  0.17700  0.37500  Biso   1.000  C
  C584     1.0000 0.37500  0.57300  0.37500  Biso   1.000  C
  C585     1.0000 0.12500  0.32300  0.62500  Biso   1.000  C
  C586     1.0000 0.62500  0.42700  0.62500  Biso   1.000  C
  C587     1.0000 0.62500  0.32300  0.12500  Biso   1.000  C
  C588     1.0000 0.12500  0.42700  0.12500  Biso   1.000  C
  C589     1.0000 0.12500  0.82300  0.12500  Biso   1.000  C
  C590     1.0000 0.62500  0.92700  0.12500  Biso   1.000  C
  C591     1.0000 0.62500  0.82300  0.62500  Biso   1.000  C
  C592     1.0000 0.12500  0.92700  0.62500  Biso   1.000  C
  C593     1.0000 0.91230  0.55390  0.55160  Biso   1.000  C
  C594     1.0000 0.83770  0.19610  0.55160  Biso   1.000  C
  C595     1.0000 0.83770  0.55390  0.19840  Biso   1.000  C
  C596     1.0000 0.91230  0.19610  0.19840  Biso   1.000  C
  C597     1.0000 0.91230  0.05390  0.05160  Biso   1.000  C
  C598     1.0000 0.83770  0.69610  0.05160  Biso   1.000  C
  C599     1.0000 0.83770  0.05390  0.69840  Biso   1.000  C
  C600     1.0000 0.91230  0.69610  0.69840  Biso   1.000  C
  C601     1.0000 0.41230  0.55390  0.05160  Biso   1.000  C
  C602     1.0000 0.33770  0.19610  0.05160  Biso   1.000  C
  C603     1.0000 0.33770  0.55390  0.69840  Biso   1.000  C
  C604     1.0000 0.41230  0.19610  0.69840  Biso   1.000  C
  C605     1.0000 0.41230  0.05390  0.55160  Biso   1.000  C
  C606     1.0000 0.33770  0.69610  0.55160  Biso   1.000  C
  C607     1.0000 0.33770  0.05390  0.19840  Biso   1.000  C
  C608     1.0000 0.41230  0.69610  0.19840  Biso   1.000  C
  C609     1.0000 0.08770  0.44610  0.44840  Biso   1.000  C
  C610     1.0000 0.66230  0.30390  0.44840  Biso   1.000  C
  C611     1.0000 0.66230  0.44610  0.30160  Biso   1.000  C
  C612     1.0000 0.08770  0.30390  0.30160  Biso   1.000  C
  C613     1.0000 0.08770  0.94610  0.94840  Biso   1.000  C
  C614     1.0000 0.66230  0.80390  0.94840  Biso   1.000  C
  C615     1.0000 0.66230  0.94610  0.80160  Biso   1.000  C
  C616     1.0000 0.08770  0.80390  0.80160  Biso   1.000  C
  C617     1.0000 0.58770  0.44610  0.94840  Biso   1.000  C
  C618     1.0000 0.16230  0.30390  0.94840  Biso   1.000  C
  C619     1.0000 0.16230  0.44610  0.80160  Biso   1.000  C
  C620     1.0000 0.58770  0.30390  0.80160  Biso   1.000  C
  C621     1.0000 0.58770  0.94610  0.44840  Biso   1.000  C
  C622     1.0000 0.16230  0.80390  0.44840  Biso   1.000  C
  C623     1.0000 0.16230  0.94610  0.30160  Biso   1.000  C
  C624     1.0000 0.58770  0.80390  0.30160  Biso   1.000  C
  H385     1.0000 0.95420  0.56690  0.55980  Biso   1.000  H
  H386     1.0000 0.79580  0.18310  0.55980  Biso   1.000  H
  H387     1.0000 0.79580  0.56690  0.19020  Biso   1.000  H
  H388     1.0000 0.95420  0.18310  0.19020  Biso   1.000  H
  H389     1.0000 0.95420  0.06690  0.05980  Biso   1.000  H
  H390     1.0000 0.79580  0.68310  0.05980  Biso   1.000  H
  H391     1.0000 0.79580  0.06690  0.69020  Biso   1.000  H
  H392     1.0000 0.95420  0.68310  0.69020  Biso   1.000  H
  H393     1.0000 0.45420  0.56690  0.05980  Biso   1.000  H
  H394     1.0000 0.29580  0.18310  0.05980  Biso   1.000  H
  H395     1.0000 0.29580  0.56690  0.69020  Biso   1.000  H
  H396     1.0000 0.45420  0.18310  0.69020  Biso   1.000  H
  H397     1.0000 0.45420  0.06690  0.55980  Biso   1.000  H
  H398     1.0000 0.29580  0.68310  0.55980  Biso   1.000  H
  H399     1.0000 0.29580  0.06690  0.19020  Biso   1.000  H
  H400     1.0000 0.45420  0.68310  0.19020  Biso   1.000  H
  H401     1.0000 0.04580  0.43310  0.44020  Biso   1.000  H
  H402     1.0000 0.70420  0.31690  0.44020  Biso   1.000  H
  H403     1.0000 0.70420  0.43310  0.30980  Biso   1.000  H
  H404     1.0000 0.04580  0.31690  0.30980  Biso   1.000  H
  H405     1.0000 0.04580  0.93310  0.94020  Biso   1.000  H
  H406     1.0000 0.70420  0.81690  0.94020  Biso   1.000  H
  H407     1.0000 0.70420  0.93310  0.80980  Biso   1.000  H
  H408     1.0000 0.04580  0.81690  0.80980  Biso   1.000  H
  H409     1.0000 0.54580  0.43310  0.94020  Biso   1.000  H
  H410     1.0000 0.20420  0.31690  0.94020  Biso   1.000  H
  H411     1.0000 0.20420  0.43310  0.80980  Biso   1.000  H
  H412     1.0000 0.54580  0.31690  0.80980  Biso   1.000  H
  H413     1.0000 0.54580  0.93310  0.44020  Biso   1.000  H
  H414     1.0000 0.20420  0.81690  0.44020  Biso   1.000  H
  H415     1.0000 0.20420  0.93310  0.30980  Biso   1.000  H
  H416     1.0000 0.54580  0.81690  0.30980  Biso   1.000  H
  O65      1.0000 0.23680  0.52240  0.50960  Biso   1.000  O
  O66      1.0000 0.51320  0.22760  0.50960  Biso   1.000  O
  O67      1.0000 0.51320  0.52240  0.24040  Biso   1.000  O
  O68      1.0000 0.23680  0.22760  0.24040  Biso   1.000  O
  O69      1.0000 0.23680  0.02240  0.00960  Biso   1.000  O
  O70      1.0000 0.51320  0.72760  0.00960  Biso   1.000  O
  O71      1.0000 0.51320  0.02240  0.74040  Biso   1.000  O
  O72      1.0000 0.23680  0.72760  0.74040  Biso   1.000  O
  O73      1.0000 0.73680  0.52240  0.00960  Biso   1.000  O
  O74      1.0000 0.01320  0.22760  0.00960  Biso   1.000  O
  O75      1.0000 0.01320  0.52240  0.74040  Biso   1.000  O
  O76      1.0000 0.73680  0.22760  0.74040  Biso   1.000  O
  O77      1.0000 0.73680  0.02240  0.50960  Biso   1.000  O
  O78      1.0000 0.01320  0.72760  0.50960  Biso   1.000  O
  O79      1.0000 0.01320  0.02240  0.24040  Biso   1.000  O
  O80      1.0000 0.73680  0.72760  0.24040  Biso   1.000  O
  O81      1.0000 0.76320  0.47760  0.49040  Biso   1.000  O
  O82      1.0000 0.98680  0.27240  0.49040  Biso   1.000  O
  O83      1.0000 0.98680  0.47760  0.25960  Biso   1.000  O
  O84      1.0000 0.76320  0.27240  0.25960  Biso   1.000  O
  O85      1.0000 0.76320  0.97760  0.99040  Biso   1.000  O
  O86      1.0000 0.98680  0.77240  0.99040  Biso   1.000  O
  O87      1.0000 0.98680  0.97760  0.75960  Biso   1.000  O
  O88      1.0000 0.76320  0.77240  0.75960  Biso   1.000  O
  O89      1.0000 0.26320  0.47760  0.99040  Biso   1.000  O
  O90      1.0000 0.48680  0.27240  0.99040  Biso   1.000  O
  O91      1.0000 0.48680  0.47760  0.75960  Biso   1.000  O
  O92      1.0000 0.26320  0.27240  0.75960  Biso   1.000  O
  O93      1.0000 0.26320  0.97760  0.49040  Biso   1.000  O
  O94      1.0000 0.48680  0.77240  0.49040  Biso   1.000  O
  O95      1.0000 0.48680  0.97760  0.25960  Biso   1.000  O
  O96      1.0000 0.26320  0.77240  0.25960  Biso   1.000  O
  C625     1.0000 0.91040  0.58220  0.44640  Biso   1.000  C
  C626     1.0000 0.83960  0.16780  0.44640  Biso   1.000  C
  C627     1.0000 0.83960  0.58220  0.30360  Biso   1.000  C
  C628     1.0000 0.91040  0.16780  0.30360  Biso   1.000  C
  C629     1.0000 0.91040  0.08220  0.94640  Biso   1.000  C
  C630     1.0000 0.83960  0.66780  0.94640  Biso   1.000  C
  C631     1.0000 0.83960  0.08220  0.80360  Biso   1.000  C
  C632     1.0000 0.91040  0.66780  0.80360  Biso   1.000  C
  C633     1.0000 0.41040  0.58220  0.94640  Biso   1.000  C
  C634     1.0000 0.33960  0.16780  0.94640  Biso   1.000  C
  C635     1.0000 0.33960  0.58220  0.80360  Biso   1.000  C
  C636     1.0000 0.41040  0.16780  0.80360  Biso   1.000  C
  C637     1.0000 0.41040  0.08220  0.44640  Biso   1.000  C
  C638     1.0000 0.33960  0.66780  0.44640  Biso   1.000  C
  C639     1.0000 0.33960  0.08220  0.30360  Biso   1.000  C
  C640     1.0000 0.41040  0.66780  0.30360  Biso   1.000  C
  C641     1.0000 0.08960  0.41780  0.55360  Biso   1.000  C
  C642     1.0000 0.66040  0.33220  0.55360  Biso   1.000  C
  C643     1.0000 0.66040  0.41780  0.19640  Biso   1.000  C
  C644     1.0000 0.08960  0.33220  0.19640  Biso   1.000  C
  C645     1.0000 0.08960  0.91780  0.05360  Biso   1.000  C
  C646     1.0000 0.66040  0.83220  0.05360  Biso   1.000  C
  C647     1.0000 0.66040  0.91780  0.69640  Biso   1.000  C
  C648     1.0000 0.08960  0.83220  0.69640  Biso   1.000  C
  C649     1.0000 0.58960  0.41780  0.05360  Biso   1.000  C
  C650     1.0000 0.16040  0.33220  0.05360  Biso   1.000  C
  C651     1.0000 0.16040  0.41780  0.69640  Biso   1.000  C
  C652     1.0000 0.58960  0.33220  0.69640  Biso   1.000  C
  C653     1.0000 0.58960  0.91780  0.55360  Biso   1.000  C
  C654     1.0000 0.16040  0.83220  0.55360  Biso   1.000  C
  C655     1.0000 0.16040  0.91780  0.19640  Biso   1.000  C
  C656     1.0000 0.58960  0.83220  0.19640  Biso   1.000  C
  H417     1.0000 0.85350  0.57190  0.45080  Biso   1.000  H
  H418     1.0000 0.89650  0.17810  0.45080  Biso   1.000  H
  H419     1.0000 0.89650  0.57190  0.29920  Biso   1.000  H
  H420     1.0000 0.85350  0.17810  0.29920  Biso   1.000  H
  H421     1.0000 0.85350  0.07190  0.95080  Biso   1.000  H
  H422     1.0000 0.89650  0.67810  0.95080  Biso   1.000  H
  H423     1.0000 0.89650  0.07190  0.79920  Biso   1.000  H
  H424     1.0000 0.85350  0.67810  0.79920  Biso   1.000  H
  H425     1.0000 0.35350  0.57190  0.95080  Biso   1.000  H
  H426     1.0000 0.39650  0.17810  0.95080  Biso   1.000  H
  H427     1.0000 0.39650  0.57190  0.79920  Biso   1.000  H
  H428     1.0000 0.35350  0.17810  0.79920  Biso   1.000  H
  H429     1.0000 0.35350  0.07190  0.45080  Biso   1.000  H
  H430     1.0000 0.39650  0.67810  0.45080  Biso   1.000  H
  H431     1.0000 0.39650  0.07190  0.29920  Biso   1.000  H
  H432     1.0000 0.35350  0.67810  0.29920  Biso   1.000  H
  H433     1.0000 0.14650  0.42810  0.54920  Biso   1.000  H
  H434     1.0000 0.60350  0.32190  0.54920  Biso   1.000  H
  H435     1.0000 0.60350  0.42810  0.20080  Biso   1.000  H
  H436     1.0000 0.14650  0.32190  0.20080  Biso   1.000  H
  H437     1.0000 0.14650  0.92810  0.04920  Biso   1.000  H
  H438     1.0000 0.60350  0.82190  0.04920  Biso   1.000  H
  H439     1.0000 0.60350  0.92810  0.70080  Biso   1.000  H
  H440     1.0000 0.14650  0.82190  0.70080  Biso   1.000  H
  H441     1.0000 0.64650  0.42810  0.04920  Biso   1.000  H
  H442     1.0000 0.10350  0.32190  0.04920  Biso   1.000  H
  H443     1.0000 0.10350  0.42810  0.70080  Biso   1.000  H
  H444     1.0000 0.64650  0.32190  0.70080  Biso   1.000  H
  H445     1.0000 0.64650  0.92810  0.54920  Biso   1.000  H
  H446     1.0000 0.10350  0.82190  0.54920  Biso   1.000  H
  H447     1.0000 0.10350  0.92810  0.20080  Biso   1.000  H
  H448     1.0000 0.64650  0.82190  0.20080  Biso   1.000  H
  C657     1.0000 0.62500  0.62500  0.62500  Biso   1.000  C
  C658     1.0000 0.12500  0.12500  0.62500  Biso   1.000  C
  C659     1.0000 0.12500  0.62500  0.12500  Biso   1.000  C
  C660     1.0000 0.62500  0.12500  0.12500  Biso   1.000  C
  C661     1.0000 0.37500  0.37500  0.37500  Biso   1.000  C
  C662     1.0000 0.37500  0.87500  0.87500  Biso   1.000  C
  C663     1.0000 0.87500  0.37500  0.87500  Biso   1.000  C
  C664     1.0000 0.87500  0.87500  0.37500  Biso   1.000  C
  C665     1.0000 0.82280  0.55290  0.55710  Biso   1.000  C
  C666     1.0000 0.92720  0.19710  0.55710  Biso   1.000  C
  C667     1.0000 0.92720  0.55290  0.19290  Biso   1.000  C
  C668     1.0000 0.82280  0.19710  0.19290  Biso   1.000  C
  C669     1.0000 0.82280  0.05290  0.05710  Biso   1.000  C
  C670     1.0000 0.92720  0.69710  0.05710  Biso   1.000  C
  C671     1.0000 0.92720  0.05290  0.69290  Biso   1.000  C
  C672     1.0000 0.82280  0.69710  0.69290  Biso   1.000  C
  C673     1.0000 0.32280  0.55290  0.05710  Biso   1.000  C
  C674     1.0000 0.42720  0.19710  0.05710  Biso   1.000  C
  C675     1.0000 0.42720  0.55290  0.69290  Biso   1.000  C
  C676     1.0000 0.32280  0.19710  0.69290  Biso   1.000  C
  C677     1.0000 0.32280  0.05290  0.55710  Biso   1.000  C
  C678     1.0000 0.42720  0.69710  0.55710  Biso   1.000  C
  C679     1.0000 0.42720  0.05290  0.19290  Biso   1.000  C
  C680     1.0000 0.32280  0.69710  0.19290  Biso   1.000  C
  C681     1.0000 0.17720  0.44710  0.44290  Biso   1.000  C
  C682     1.0000 0.57280  0.30290  0.44290  Biso   1.000  C
  C683     1.0000 0.57280  0.44710  0.30710  Biso   1.000  C
  C684     1.0000 0.17720  0.30290  0.30710  Biso   1.000  C
  C685     1.0000 0.17720  0.94710  0.94290  Biso   1.000  C
  C686     1.0000 0.57280  0.80290  0.94290  Biso   1.000  C
  C687     1.0000 0.57280  0.94710  0.80710  Biso   1.000  C
  C688     1.0000 0.17720  0.80290  0.80710  Biso   1.000  C
  C689     1.0000 0.67720  0.44710  0.94290  Biso   1.000  C
  C690     1.0000 0.07280  0.30290  0.94290  Biso   1.000  C
  C691     1.0000 0.07280  0.44710  0.80710  Biso   1.000  C
  C692     1.0000 0.67720  0.30290  0.80710  Biso   1.000  C
  C693     1.0000 0.67720  0.94710  0.44290  Biso   1.000  C
  C694     1.0000 0.07280  0.80290  0.44290  Biso   1.000  C
  C695     1.0000 0.07280  0.94710  0.30710  Biso   1.000  C
  C696     1.0000 0.67720  0.80290  0.30710  Biso   1.000  C
  H449     1.0000 0.78110  0.54040  0.54840  Biso   1.000  H
  H450     1.0000 0.96890  0.20960  0.54840  Biso   1.000  H
  H451     1.0000 0.96890  0.54040  0.20160  Biso   1.000  H
  H452     1.0000 0.78110  0.20960  0.20160  Biso   1.000  H
  H453     1.0000 0.78110  0.04040  0.04840  Biso   1.000  H
  H454     1.0000 0.96890  0.70960  0.04840  Biso   1.000  H
  H455     1.0000 0.96890  0.04040  0.70160  Biso   1.000  H
  H456     1.0000 0.78110  0.70960  0.70160  Biso   1.000  H
  H457     1.0000 0.28110  0.54040  0.04840  Biso   1.000  H
  H458     1.0000 0.46890  0.20960  0.04840  Biso   1.000  H
  H459     1.0000 0.46890  0.54040  0.70160  Biso   1.000  H
  H460     1.0000 0.28110  0.20960  0.70160  Biso   1.000  H
  H461     1.0000 0.28110  0.04040  0.54840  Biso   1.000  H
  H462     1.0000 0.46890  0.70960  0.54840  Biso   1.000  H
  H463     1.0000 0.46890  0.04040  0.20160  Biso   1.000  H
  H464     1.0000 0.28110  0.70960  0.20160  Biso   1.000  H
  H465     1.0000 0.21890  0.45960  0.45160  Biso   1.000  H
  H466     1.0000 0.53110  0.29040  0.45160  Biso   1.000  H
  H467     1.0000 0.53110  0.45960  0.29840  Biso   1.000  H
  H468     1.0000 0.21890  0.29040  0.29840  Biso   1.000  H
  H469     1.0000 0.21890  0.95960  0.95160  Biso   1.000  H
  H470     1.0000 0.53110  0.79040  0.95160  Biso   1.000  H
  H471     1.0000 0.53110  0.95960  0.79840  Biso   1.000  H
  H472     1.0000 0.21890  0.79040  0.79840  Biso   1.000  H
  H473     1.0000 0.71890  0.45960  0.95160  Biso   1.000  H
  H474     1.0000 0.03110  0.29040  0.95160  Biso   1.000  H
  H475     1.0000 0.03110  0.45960  0.79840  Biso   1.000  H
  H476     1.0000 0.71890  0.29040  0.79840  Biso   1.000  H
  H477     1.0000 0.71890  0.95960  0.45160  Biso   1.000  H
  H478     1.0000 0.03110  0.79040  0.45160  Biso   1.000  H
  H479     1.0000 0.03110  0.95960  0.29840  Biso   1.000  H
  H480     1.0000 0.71890  0.79040  0.29840  Biso   1.000  H
  C697     1.0000 0.37500  0.87500  0.44410  Biso   1.000  C
  C698     1.0000 0.37500  0.87500  0.30590  Biso   1.000  C
  C699     1.0000 0.37500  0.37500  0.94410  Biso   1.000  C
  C700     1.0000 0.37500  0.37500  0.80590  Biso   1.000  C
  C701     1.0000 0.87500  0.87500  0.94410  Biso   1.000  C
  C702     1.0000 0.87500  0.87500  0.80590  Biso   1.000  C
  C703     1.0000 0.87500  0.37500  0.44410  Biso   1.000  C
  C704     1.0000 0.87500  0.37500  0.30590  Biso   1.000  C
  C705     1.0000 0.62500  0.12500  0.55590  Biso   1.000  C
  C706     1.0000 0.12500  0.62500  0.55590  Biso   1.000  C
  C707     1.0000 0.12500  0.12500  0.19410  Biso   1.000  C
  C708     1.0000 0.62500  0.62500  0.19410  Biso   1.000  C
  C709     1.0000 0.62500  0.62500  0.05590  Biso   1.000  C
  C710     1.0000 0.12500  0.12500  0.05590  Biso   1.000  C
  C711     1.0000 0.12500  0.62500  0.69410  Biso   1.000  C
  C712     1.0000 0.62500  0.12500  0.69410  Biso   1.000  C
  C713     1.0000 0.60200  0.78410  0.37740  Biso   1.000  C
  C714     1.0000 0.14800  0.96590  0.37740  Biso   1.000  C
  C715     1.0000 0.14800  0.78410  0.37260  Biso   1.000  C
  C716     1.0000 0.60200  0.96590  0.37260  Biso   1.000  C
  C717     1.0000 0.60200  0.28410  0.87740  Biso   1.000  C
  C718     1.0000 0.14800  0.46590  0.87740  Biso   1.000  C
  C719     1.0000 0.14800  0.28410  0.87260  Biso   1.000  C
  C720     1.0000 0.60200  0.46590  0.87260  Biso   1.000  C
  C721     1.0000 0.10200  0.78410  0.87740  Biso   1.000  C
  C722     1.0000 0.64800  0.96590  0.87740  Biso   1.000  C
  C723     1.0000 0.64800  0.78410  0.87260  Biso   1.000  C
  C724     1.0000 0.10200  0.96590  0.87260  Biso   1.000  C
  C725     1.0000 0.10200  0.28410  0.37740  Biso   1.000  C
  C726     1.0000 0.64800  0.46590  0.37740  Biso   1.000  C
  C727     1.0000 0.64800  0.28410  0.37260  Biso   1.000  C
  C728     1.0000 0.10200  0.46590  0.37260  Biso   1.000  C
  C729     1.0000 0.39800  0.21590  0.62260  Biso   1.000  C
  C730     1.0000 0.35200  0.53410  0.62260  Biso   1.000  C
  C731     1.0000 0.35200  0.21590  0.12740  Biso   1.000  C
  C732     1.0000 0.39800  0.53410  0.12740  Biso   1.000  C
  C733     1.0000 0.39800  0.71590  0.12260  Biso   1.000  C
  C734     1.0000 0.35200  0.03410  0.12260  Biso   1.000  C
  C735     1.0000 0.35200  0.71590  0.62740  Biso   1.000  C
  C736     1.0000 0.39800  0.03410  0.62740  Biso   1.000  C
  C737     1.0000 0.89800  0.21590  0.12260  Biso   1.000  C
  C738     1.0000 0.85200  0.53410  0.12260  Biso   1.000  C
  C739     1.0000 0.85200  0.21590  0.62740  Biso   1.000  C
  C740     1.0000 0.89800  0.53410  0.62740  Biso   1.000  C
  C741     1.0000 0.89800  0.71590  0.62260  Biso   1.000  C
  C742     1.0000 0.85200  0.03410  0.62260  Biso   1.000  C
  C743     1.0000 0.85200  0.71590  0.12740  Biso   1.000  C
  C744     1.0000 0.89800  0.03410  0.12740  Biso   1.000  C
  C745     1.0000 0.98970  0.57300  0.45710  Biso   1.000  C
  C746     1.0000 0.76030  0.17700  0.45710  Biso   1.000  C
  C747     1.0000 0.76030  0.57300  0.29290  Biso   1.000  C
  C748     1.0000 0.98970  0.17700  0.29290  Biso   1.000  C
  C749     1.0000 0.98970  0.07300  0.95710  Biso   1.000  C
  C750     1.0000 0.76030  0.67700  0.95710  Biso   1.000  C
  C751     1.0000 0.76030  0.07300  0.79290  Biso   1.000  C
  C752     1.0000 0.98970  0.67700  0.79290  Biso   1.000  C
  C753     1.0000 0.48970  0.57300  0.95710  Biso   1.000  C
  C754     1.0000 0.26030  0.17700  0.95710  Biso   1.000  C
  C755     1.0000 0.26030  0.57300  0.79290  Biso   1.000  C
  C756     1.0000 0.48970  0.17700  0.79290  Biso   1.000  C
  C757     1.0000 0.48970  0.07300  0.45710  Biso   1.000  C
  C758     1.0000 0.26030  0.67700  0.45710  Biso   1.000  C
  C759     1.0000 0.26030  0.07300  0.29290  Biso   1.000  C
  C760     1.0000 0.48970  0.67700  0.29290  Biso   1.000  C
  C761     1.0000 0.01030  0.42700  0.54290  Biso   1.000  C
  C762     1.0000 0.73970  0.32300  0.54290  Biso   1.000  C
  C763     1.0000 0.73970  0.42700  0.20710  Biso   1.000  C
  C764     1.0000 0.01030  0.32300  0.20710  Biso   1.000  C
  C765     1.0000 0.01030  0.92700  0.04290  Biso   1.000  C
  C766     1.0000 0.73970  0.82300  0.04290  Biso   1.000  C
  C767     1.0000 0.73970  0.92700  0.70710  Biso   1.000  C
  C768     1.0000 0.01030  0.82300  0.70710  Biso   1.000  C
  C769     1.0000 0.51030  0.42700  0.04290  Biso   1.000  C
  C770     1.0000 0.23970  0.32300  0.04290  Biso   1.000  C
  C771     1.0000 0.23970  0.42700  0.70710  Biso   1.000  C
  C772     1.0000 0.51030  0.32300  0.70710  Biso   1.000  C
  C773     1.0000 0.51030  0.92700  0.54290  Biso   1.000  C
  C774     1.0000 0.23970  0.82300  0.54290  Biso   1.000  C
  C775     1.0000 0.23970  0.92700  0.20710  Biso   1.000  C
  C776     1.0000 0.51030  0.82300  0.20710  Biso   1.000  C
  H481     1.0000 0.04700  0.58360  0.45340  Biso   1.000  H
  H482     1.0000 0.70300  0.16640  0.45340  Biso   1.000  H
  H483     1.0000 0.70300  0.58360  0.29660  Biso   1.000  H
  H484     1.0000 0.04700  0.16640  0.29660  Biso   1.000  H
  H485     1.0000 0.04700  0.08360  0.95340  Biso   1.000  H
  H486     1.0000 0.70300  0.66640  0.95340  Biso   1.000  H
  H487     1.0000 0.70300  0.08360  0.79660  Biso   1.000  H
  H488     1.0000 0.04700  0.66640  0.79660  Biso   1.000  H
  H489     1.0000 0.54700  0.58360  0.95340  Biso   1.000  H
  H490     1.0000 0.20300  0.16640  0.95340  Biso   1.000  H
  H491     1.0000 0.20300  0.58360  0.79660  Biso   1.000  H
  H492     1.0000 0.54700  0.16640  0.79660  Biso   1.000  H
  H493     1.0000 0.54700  0.08360  0.45340  Biso   1.000  H
  H494     1.0000 0.20300  0.66640  0.45340  Biso   1.000  H
  H495     1.0000 0.20300  0.08360  0.29660  Biso   1.000  H
  H496     1.0000 0.54700  0.66640  0.29660  Biso   1.000  H
  H497     1.0000 0.95300  0.41640  0.54660  Biso   1.000  H
  H498     1.0000 0.79700  0.33360  0.54660  Biso   1.000  H
  H499     1.0000 0.79700  0.41640  0.20340  Biso   1.000  H
  H500     1.0000 0.95300  0.33360  0.20340  Biso   1.000  H
  H501     1.0000 0.95300  0.91640  0.04660  Biso   1.000  H
  H502     1.0000 0.79700  0.83360  0.04660  Biso   1.000  H
  H503     1.0000 0.79700  0.91640  0.70340  Biso   1.000  H
  H504     1.0000 0.95300  0.83360  0.70340  Biso   1.000  H
  H505     1.0000 0.45300  0.41640  0.04660  Biso   1.000  H
  H506     1.0000 0.29700  0.33360  0.04660  Biso   1.000  H
  H507     1.0000 0.29700  0.41640  0.70340  Biso   1.000  H
  H508     1.0000 0.45300  0.33360  0.70340  Biso   1.000  H
  H509     1.0000 0.45300  0.91640  0.54660  Biso   1.000  H
  H510     1.0000 0.29700  0.83360  0.54660  Biso   1.000  H
  H511     1.0000 0.29700  0.91640  0.20340  Biso   1.000  H
  H512     1.0000 0.45300  0.83360  0.20340  Biso   1.000  H
  N1       1.0000 0.37500  0.87500  0.46640  Biso   1.000  N
  N2       1.0000 0.37500  0.87500  0.28360  Biso   1.000  N
  N3       1.0000 0.37500  0.37500  0.96640  Biso   1.000  N
  N4       1.0000 0.37500  0.37500  0.78360  Biso   1.000  N
  N5       1.0000 0.87500  0.87500  0.96640  Biso   1.000  N
  N6       1.0000 0.87500  0.87500  0.78360  Biso   1.000  N
  N7       1.0000 0.87500  0.37500  0.46640  Biso   1.000  N
  N8       1.0000 0.87500  0.37500  0.28360  Biso   1.000  N
  N9       1.0000 0.62500  0.12500  0.53360  Biso   1.000  N
  N10      1.0000 0.12500  0.62500  0.53360  Biso   1.000  N
  N11      1.0000 0.12500  0.12500  0.21640  Biso   1.000  N
  N12      1.0000 0.62500  0.62500  0.21640  Biso   1.000  N
  N13      1.0000 0.62500  0.62500  0.03360  Biso   1.000  N
  N14      1.0000 0.12500  0.12500  0.03360  Biso   1.000  N
  N15      1.0000 0.12500  0.62500  0.71640  Biso   1.000  N
  N16      1.0000 0.62500  0.12500  0.71640  Biso   1.000  N
  N17      1.0000 0.33900  0.54200  0.53870  Biso   1.000  N
  N18      1.0000 0.41100  0.20800  0.53870  Biso   1.000  N
  N19      1.0000 0.41100  0.54200  0.21130  Biso   1.000  N
  N20      1.0000 0.33900  0.20800  0.21130  Biso   1.000  N
  N21      1.0000 0.33900  0.04200  0.03870  Biso   1.000  N
  N22      1.0000 0.41100  0.70800  0.03870  Biso   1.000  N
  N23      1.0000 0.41100  0.04200  0.71130  Biso   1.000  N
  N24      1.0000 0.33900  0.70800  0.71130  Biso   1.000  N
  N25      1.0000 0.83900  0.54200  0.03870  Biso   1.000  N
  N26      1.0000 0.91100  0.20800  0.03870  Biso   1.000  N
  N27      1.0000 0.91100  0.54200  0.71130  Biso   1.000  N
  N28      1.0000 0.83900  0.20800  0.71130  Biso   1.000  N
  N29      1.0000 0.83900  0.04200  0.53870  Biso   1.000  N
  N30      1.0000 0.91100  0.70800  0.53870  Biso   1.000  N
  N31      1.0000 0.91100  0.04200  0.21130  Biso   1.000  N
  N32      1.0000 0.83900  0.70800  0.21130  Biso   1.000  N
  N33      1.0000 0.66100  0.45800  0.46130  Biso   1.000  N
  N34      1.0000 0.08900  0.29200  0.46130  Biso   1.000  N
  N35      1.0000 0.08900  0.45800  0.28870  Biso   1.000  N
  N36      1.0000 0.66100  0.29200  0.28870  Biso   1.000  N
  N37      1.0000 0.66100  0.95800  0.96130  Biso   1.000  N
  N38      1.0000 0.08900  0.79200  0.96130  Biso   1.000  N
  N39      1.0000 0.08900  0.95800  0.78870  Biso   1.000  N
  N40      1.0000 0.66100  0.79200  0.78870  Biso   1.000  N
  N41      1.0000 0.16100  0.45800  0.96130  Biso   1.000  N
  N42      1.0000 0.58900  0.29200  0.96130  Biso   1.000  N
  N43      1.0000 0.58900  0.45800  0.78870  Biso   1.000  N
  N44      1.0000 0.16100  0.29200  0.78870  Biso   1.000  N
  N45      1.0000 0.16100  0.95800  0.46130  Biso   1.000  N
  N46      1.0000 0.58900  0.79200  0.46130  Biso   1.000  N
  N47      1.0000 0.58900  0.95800  0.28870  Biso   1.000  N
  N48      1.0000 0.16100  0.79200  0.28870  Biso   1.000  N
  C777     1.0000 0.33700  0.56760  0.55570  Biso   1.000  C
  C778     1.0000 0.41300  0.18240  0.55570  Biso   1.000  C
  C779     1.0000 0.41300  0.56760  0.19430  Biso   1.000  C
  C780     1.0000 0.33700  0.18240  0.19430  Biso   1.000  C
  C781     1.0000 0.33700  0.06760  0.05570  Biso   1.000  C
  C782     1.0000 0.41300  0.68240  0.05570  Biso   1.000  C
  C783     1.0000 0.41300  0.06760  0.69430  Biso   1.000  C
  C784     1.0000 0.33700  0.68240  0.69430  Biso   1.000  C
  C785     1.0000 0.83700  0.56760  0.05570  Biso   1.000  C
  C786     1.0000 0.91300  0.18240  0.05570  Biso   1.000  C
  C787     1.0000 0.91300  0.56760  0.69430  Biso   1.000  C
  C788     1.0000 0.83700  0.18240  0.69430  Biso   1.000  C
  C789     1.0000 0.83700  0.06760  0.55570  Biso   1.000  C
  C790     1.0000 0.91300  0.68240  0.55570  Biso   1.000  C
  C791     1.0000 0.91300  0.06760  0.19430  Biso   1.000  C
  C792     1.0000 0.83700  0.68240  0.19430  Biso   1.000  C
  C793     1.0000 0.66300  0.43240  0.44430  Biso   1.000  C
  C794     1.0000 0.08700  0.31760  0.44430  Biso   1.000  C
  C795     1.0000 0.08700  0.43240  0.30570  Biso   1.000  C
  C796     1.0000 0.66300  0.31760  0.30570  Biso   1.000  C
  C797     1.0000 0.66300  0.93240  0.94430  Biso   1.000  C
  C798     1.0000 0.08700  0.81760  0.94430  Biso   1.000  C
  C799     1.0000 0.08700  0.93240  0.80570  Biso   1.000  C
  C800     1.0000 0.66300  0.81760  0.80570  Biso   1.000  C
  C801     1.0000 0.16300  0.43240  0.94430  Biso   1.000  C
  C802     1.0000 0.58700  0.31760  0.94430  Biso   1.000  C
  C803     1.0000 0.58700  0.43240  0.80570  Biso   1.000  C
  C804     1.0000 0.16300  0.31760  0.80570  Biso   1.000  C
  C805     1.0000 0.16300  0.93240  0.44430  Biso   1.000  C
  C806     1.0000 0.58700  0.81760  0.44430  Biso   1.000  C
  C807     1.0000 0.58700  0.93240  0.30570  Biso   1.000  C
  C808     1.0000 0.16300  0.81760  0.30570  Biso   1.000  C
  C809     1.0000 0.42800  0.53220  0.52730  Biso   1.000  C
  C810     1.0000 0.32200  0.21780  0.52730  Biso   1.000  C
  C811     1.0000 0.32200  0.53220  0.22270  Biso   1.000  C
  C812     1.0000 0.42800  0.21780  0.22270  Biso   1.000  C
  C813     1.0000 0.42800  0.03220  0.02730  Biso   1.000  C
  C814     1.0000 0.32200  0.71780  0.02730  Biso   1.000  C
  C815     1.0000 0.32200  0.03220  0.72270  Biso   1.000  C
  C816     1.0000 0.42800  0.71780  0.72270  Biso   1.000  C
  C817     1.0000 0.92800  0.53220  0.02730  Biso   1.000  C
  C818     1.0000 0.82200  0.21780  0.02730  Biso   1.000  C
  C819     1.0000 0.82200  0.53220  0.72270  Biso   1.000  C
  C820     1.0000 0.92800  0.21780  0.72270  Biso   1.000  C
  C821     1.0000 0.92800  0.03220  0.52730  Biso   1.000  C
  C822     1.0000 0.82200  0.71780  0.52730  Biso   1.000  C
  C823     1.0000 0.82200  0.03220  0.22270  Biso   1.000  C
  C824     1.0000 0.92800  0.71780  0.22270  Biso   1.000  C
  C825     1.0000 0.57200  0.46780  0.47270  Biso   1.000  C
  C826     1.0000 0.17800  0.28220  0.47270  Biso   1.000  C
  C827     1.0000 0.17800  0.46780  0.27730  Biso   1.000  C
  C828     1.0000 0.57200  0.28220  0.27730  Biso   1.000  C
  C829     1.0000 0.57200  0.96780  0.97270  Biso   1.000  C
  C830     1.0000 0.17800  0.78220  0.97270  Biso   1.000  C
  C831     1.0000 0.17800  0.96780  0.77730  Biso   1.000  C
  C832     1.0000 0.57200  0.78220  0.77730  Biso   1.000  C
  C833     1.0000 0.07200  0.46780  0.97270  Biso   1.000  C
  C834     1.0000 0.67800  0.28220  0.97270  Biso   1.000  C
  C835     1.0000 0.67800  0.46780  0.77730  Biso   1.000  C
  C836     1.0000 0.07200  0.28220  0.77730  Biso   1.000  C
  C837     1.0000 0.07200  0.96780  0.47270  Biso   1.000  C
  C838     1.0000 0.67800  0.78220  0.47270  Biso   1.000  C
  C839     1.0000 0.67800  0.96780  0.27730  Biso   1.000  C
  C840     1.0000 0.07200  0.78220  0.27730  Biso   1.000  C
  C841     1.0000 0.95490  0.53370  0.53120  Biso   1.000  C
  C842     1.0000 0.79510  0.21630  0.53120  Biso   1.000  C
  C843     1.0000 0.79510  0.53370  0.21880  Biso   1.000  C
  C844     1.0000 0.95490  0.21630  0.21880  Biso   1.000  C
  C845     1.0000 0.95490  0.03370  0.03120  Biso   1.000  C
  C846     1.0000 0.79510  0.71630  0.03120  Biso   1.000  C
  C847     1.0000 0.79510  0.03370  0.71880  Biso   1.000  C
  C848     1.0000 0.95490  0.71630  0.71880  Biso   1.000  C
  C849     1.0000 0.45490  0.53370  0.03120  Biso   1.000  C
  C850     1.0000 0.29510  0.21630  0.03120  Biso   1.000  C
  C851     1.0000 0.29510  0.53370  0.71880  Biso   1.000  C
  C852     1.0000 0.45490  0.21630  0.71880  Biso   1.000  C
  C853     1.0000 0.45490  0.03370  0.53120  Biso   1.000  C
  C854     1.0000 0.29510  0.71630  0.53120  Biso   1.000  C
  C855     1.0000 0.29510  0.03370  0.21880  Biso   1.000  C
  C856     1.0000 0.45490  0.71630  0.21880  Biso   1.000  C
  C857     1.0000 0.04510  0.46630  0.46880  Biso   1.000  C
  C858     1.0000 0.70490  0.28370  0.46880  Biso   1.000  C
  C859     1.0000 0.70490  0.46630  0.28120  Biso   1.000  C
  C860     1.0000 0.04510  0.28370  0.28120  Biso   1.000  C
  C861     1.0000 0.04510  0.96630  0.96880  Biso   1.000  C
  C862     1.0000 0.70490  0.78370  0.96880  Biso   1.000  C
  C863     1.0000 0.70490  0.96630  0.78120  Biso   1.000  C
  C864     1.0000 0.04510  0.78370  0.78120  Biso   1.000  C
  C865     1.0000 0.54510  0.46630  0.96880  Biso   1.000  C
  C866     1.0000 0.20490  0.28370  0.96880  Biso   1.000  C
  C867     1.0000 0.20490  0.46630  0.78120  Biso   1.000  C
  C868     1.0000 0.54510  0.28370  0.78120  Biso   1.000  C
  C869     1.0000 0.54510  0.96630  0.46880  Biso   1.000  C
  C870     1.0000 0.20490  0.78370  0.46880  Biso   1.000  C
  C871     1.0000 0.20490  0.96630  0.28120  Biso   1.000  C
  C872     1.0000 0.54510  0.78370  0.28120  Biso   1.000  C
  C873     1.0000 0.99500  0.54690  0.47480  Biso   1.000  C
  C874     1.0000 0.75500  0.20310  0.47480  Biso   1.000  C
  C875     1.0000 0.75500  0.54690  0.27520  Biso   1.000  C
  C876     1.0000 0.99500  0.20310  0.27520  Biso   1.000  C
  C877     1.0000 0.99500  0.04690  0.97480  Biso   1.000  C
  C878     1.0000 0.75500  0.70310  0.97480  Biso   1.000  C
  C879     1.0000 0.75500  0.04690  0.77520  Biso   1.000  C
  C880     1.0000 0.99500  0.70310  0.77520  Biso   1.000  C
  C881     1.0000 0.49500  0.54690  0.97480  Biso   1.000  C
  C882     1.0000 0.25500  0.20310  0.97480  Biso   1.000  C
  C883     1.0000 0.25500  0.54690  0.77520  Biso   1.000  C
  C884     1.0000 0.49500  0.20310  0.77520  Biso   1.000  C
  C885     1.0000 0.49500  0.04690  0.47480  Biso   1.000  C
  C886     1.0000 0.25500  0.70310  0.47480  Biso   1.000  C
  C887     1.0000 0.25500  0.04690  0.27520  Biso   1.000  C
  C888     1.0000 0.49500  0.70310  0.27520  Biso   1.000  C
  C889     1.0000 0.00500  0.45310  0.52520  Biso   1.000  C
  C890     1.0000 0.74500  0.29690  0.52520  Biso   1.000  C
  C891     1.0000 0.74500  0.45310  0.22480  Biso   1.000  C
  C892     1.0000 0.00500  0.29690  0.22480  Biso   1.000  C
  C893     1.0000 0.00500  0.95310  0.02520  Biso   1.000  C
  C894     1.0000 0.74500  0.79690  0.02520  Biso   1.000  C
  C895     1.0000 0.74500  0.95310  0.72480  Biso   1.000  C
  C896     1.0000 0.00500  0.79690  0.72480  Biso   1.000  C
  C897     1.0000 0.50500  0.45310  0.02520  Biso   1.000  C
  C898     1.0000 0.24500  0.29690  0.02520  Biso   1.000  C
  C899     1.0000 0.24500  0.45310  0.72480  Biso   1.000  C
  C900     1.0000 0.50500  0.29690  0.72480  Biso   1.000  C
  C901     1.0000 0.50500  0.95310  0.52520  Biso   1.000  C
  C902     1.0000 0.24500  0.79690  0.52520  Biso   1.000  C
  C903     1.0000 0.24500  0.95310  0.22480  Biso   1.000  C
  C904     1.0000 0.50500  0.79690  0.22480  Biso   1.000  C
  O97      1.0000 0.88320  0.51910  0.52094  Biso   1.000  O
  O98      1.0000 0.86680  0.23090  0.52094  Biso   1.000  O
  O99      1.0000 0.86680  0.51910  0.22906  Biso   1.000  O
  O100     1.0000 0.88320  0.23090  0.22906  Biso   1.000  O
  O101     1.0000 0.88320  0.01910  0.02094  Biso   1.000  O
  O102     1.0000 0.86680  0.73090  0.02094  Biso   1.000  O
  O103     1.0000 0.86680  0.01910  0.72906  Biso   1.000  O
  O104     1.0000 0.88320  0.73090  0.72906  Biso   1.000  O
  O105     1.0000 0.38320  0.51910  0.02094  Biso   1.000  O
  O106     1.0000 0.36680  0.23090  0.02094  Biso   1.000  O
  O107     1.0000 0.36680  0.51910  0.72906  Biso   1.000  O
  O108     1.0000 0.38320  0.23090  0.72906  Biso   1.000  O
  O109     1.0000 0.38320  0.01910  0.52094  Biso   1.000  O
  O110     1.0000 0.36680  0.73090  0.52094  Biso   1.000  O
  O111     1.0000 0.36680  0.01910  0.22906  Biso   1.000  O
  O112     1.0000 0.38320  0.73090  0.22906  Biso   1.000  O
  O113     1.0000 0.11680  0.48090  0.47906  Biso   1.000  O
  O114     1.0000 0.63320  0.26910  0.47906  Biso   1.000  O
  O115     1.0000 0.63320  0.48090  0.27094  Biso   1.000  O
  O116     1.0000 0.11680  0.26910  0.27094  Biso   1.000  O
  O117     1.0000 0.11680  0.98090  0.97906  Biso   1.000  O
  O118     1.0000 0.63320  0.76910  0.97906  Biso   1.000  O
  O119     1.0000 0.63320  0.98090  0.77094  Biso   1.000  O
  O120     1.0000 0.11680  0.76910  0.77094  Biso   1.000  O
  O121     1.0000 0.61680  0.48090  0.97906  Biso   1.000  O
  O122     1.0000 0.13320  0.26910  0.97906  Biso   1.000  O
  O123     1.0000 0.13320  0.48090  0.77094  Biso   1.000  O
  O124     1.0000 0.61680  0.26910  0.77094  Biso   1.000  O
  O125     1.0000 0.61680  0.98090  0.47906  Biso   1.000  O
  O126     1.0000 0.13320  0.76910  0.47906  Biso   1.000  O
  O127     1.0000 0.13320  0.98090  0.27094  Biso   1.000  O
  O128     1.0000 0.61680  0.76910  0.27094  Biso   1.000  O
  O129     1.0000 0.91250  0.53000  0.47612  Biso   1.000  O
  O130     1.0000 0.83750  0.22000  0.47612  Biso   1.000  O
  O131     1.0000 0.83750  0.53000  0.27388  Biso   1.000  O
  O132     1.0000 0.91250  0.22000  0.27388  Biso   1.000  O
  O133     1.0000 0.91250  0.03000  0.97612  Biso   1.000  O
  O134     1.0000 0.83750  0.72000  0.97612  Biso   1.000  O
  O135     1.0000 0.83750  0.03000  0.77388  Biso   1.000  O
  O136     1.0000 0.91250  0.72000  0.77388  Biso   1.000  O
  O137     1.0000 0.41250  0.53000  0.97612  Biso   1.000  O
  O138     1.0000 0.33750  0.22000  0.97612  Biso   1.000  O
  O139     1.0000 0.33750  0.53000  0.77388  Biso   1.000  O
  O140     1.0000 0.41250  0.22000  0.77388  Biso   1.000  O
  O141     1.0000 0.41250  0.03000  0.47612  Biso   1.000  O
  O142     1.0000 0.33750  0.72000  0.47612  Biso   1.000  O
  O143     1.0000 0.33750  0.03000  0.27388  Biso   1.000  O
  O144     1.0000 0.41250  0.72000  0.27388  Biso   1.000  O
  O145     1.0000 0.08750  0.47000  0.52388  Biso   1.000  O
  O146     1.0000 0.66250  0.28000  0.52388  Biso   1.000  O
  O147     1.0000 0.66250  0.47000  0.22612  Biso   1.000  O
  O148     1.0000 0.08750  0.28000  0.22612  Biso   1.000  O
  O149     1.0000 0.08750  0.97000  0.02388  Biso   1.000  O
  O150     1.0000 0.66250  0.78000  0.02388  Biso   1.000  O
  O151     1.0000 0.66250  0.97000  0.72612  Biso   1.000  O
  O152     1.0000 0.08750  0.78000  0.72612  Biso   1.000  O
  O153     1.0000 0.58750  0.47000  0.02388  Biso   1.000  O
  O154     1.0000 0.16250  0.28000  0.02388  Biso   1.000  O
  O155     1.0000 0.16250  0.47000  0.72612  Biso   1.000  O
  O156     1.0000 0.58750  0.28000  0.72612  Biso   1.000  O
  O157     1.0000 0.58750  0.97000  0.52388  Biso   1.000  O
  O158     1.0000 0.16250  0.78000  0.52388  Biso   1.000  O
  O159     1.0000 0.16250  0.97000  0.22612  Biso   1.000  O
  O160     1.0000 0.58750  0.78000  0.22612  Biso   1.000  O
  C905     1.0000 0.49400  0.82940  0.37200  Biso   1.000  C
  C906     1.0000 0.25600  0.92060  0.37200  Biso   1.000  C
  C907     1.0000 0.25600  0.82940  0.37800  Biso   1.000  C
  C908     1.0000 0.49400  0.92060  0.37800  Biso   1.000  C
  C909     1.0000 0.49400  0.32940  0.87200  Biso   1.000  C
  C910     1.0000 0.25600  0.42060  0.87200  Biso   1.000  C
  C911     1.0000 0.25600  0.32940  0.87800  Biso   1.000  C
  C912     1.0000 0.49400  0.42060  0.87800  Biso   1.000  C
  C913     1.0000 0.99400  0.82940  0.87200  Biso   1.000  C
  C914     1.0000 0.75600  0.92060  0.87200  Biso   1.000  C
  C915     1.0000 0.75600  0.82940  0.87800  Biso   1.000  C
  C916     1.0000 0.99400  0.92060  0.87800  Biso   1.000  C
  C917     1.0000 0.99400  0.32940  0.37200  Biso   1.000  C
  C918     1.0000 0.75600  0.42060  0.37200  Biso   1.000  C
  C919     1.0000 0.75600  0.32940  0.37800  Biso   1.000  C
  C920     1.0000 0.99400  0.42060  0.37800  Biso   1.000  C
  C921     1.0000 0.50600  0.17060  0.62800  Biso   1.000  C
  C922     1.0000 0.24400  0.57940  0.62800  Biso   1.000  C
  C923     1.0000 0.24400  0.17060  0.12200  Biso   1.000  C
  C924     1.0000 0.50600  0.57940  0.12200  Biso   1.000  C
  C925     1.0000 0.50600  0.67060  0.12800  Biso   1.000  C
  C926     1.0000 0.24400  0.07940  0.12800  Biso   1.000  C
  C927     1.0000 0.24400  0.67060  0.62200  Biso   1.000  C
  C928     1.0000 0.50600  0.07940  0.62200  Biso   1.000  C
  C929     1.0000 0.00600  0.17060  0.12800  Biso   1.000  C
  C930     1.0000 0.74400  0.57940  0.12800  Biso   1.000  C
  C931     1.0000 0.74400  0.17060  0.62200  Biso   1.000  C
  C932     1.0000 0.00600  0.57940  0.62200  Biso   1.000  C
  C933     1.0000 0.00600  0.67060  0.62800  Biso   1.000  C
  C934     1.0000 0.74400  0.07940  0.62800  Biso   1.000  C
  C935     1.0000 0.74400  0.67060  0.12200  Biso   1.000  C
  C936     1.0000 0.00600  0.07940  0.12200  Biso   1.000  C
  O161     1.0000 0.49160  0.84330  0.39130  Biso   1.000  O
  O162     1.0000 0.25840  0.90670  0.39130  Biso   1.000  O
  O163     1.0000 0.25840  0.84330  0.35870  Biso   1.000  O
  O164     1.0000 0.49160  0.90670  0.35870  Biso   1.000  O
  O165     1.0000 0.49160  0.34330  0.89130  Biso   1.000  O
  O166     1.0000 0.25840  0.40670  0.89130  Biso   1.000  O
  O167     1.0000 0.25840  0.34330  0.85870  Biso   1.000  O
  O168     1.0000 0.49160  0.40670  0.85870  Biso   1.000  O
  O169     1.0000 0.99160  0.84330  0.89130  Biso   1.000  O
  O170     1.0000 0.75840  0.90670  0.89130  Biso   1.000  O
  O171     1.0000 0.75840  0.84330  0.85870  Biso   1.000  O
  O172     1.0000 0.99160  0.90670  0.85870  Biso   1.000  O
  O173     1.0000 0.99160  0.34330  0.39130  Biso   1.000  O
  O174     1.0000 0.75840  0.40670  0.39130  Biso   1.000  O
  O175     1.0000 0.75840  0.34330  0.35870  Biso   1.000  O
  O176     1.0000 0.99160  0.40670  0.35870  Biso   1.000  O
  O177     1.0000 0.50840  0.15670  0.60870  Biso   1.000  O
  O178     1.0000 0.24160  0.59330  0.60870  Biso   1.000  O
  O179     1.0000 0.24160  0.15670  0.14130  Biso   1.000  O
  O180     1.0000 0.50840  0.59330  0.14130  Biso   1.000  O
  O181     1.0000 0.50840  0.65670  0.10870  Biso   1.000  O
  O182     1.0000 0.24160  0.09330  0.10870  Biso   1.000  O
  O183     1.0000 0.24160  0.65670  0.64130  Biso   1.000  O
  O184     1.0000 0.50840  0.09330  0.64130  Biso   1.000  O
  O185     1.0000 0.00840  0.15670  0.10870  Biso   1.000  O
  O186     1.0000 0.74160  0.59330  0.10870  Biso   1.000  O
  O187     1.0000 0.74160  0.15670  0.64130  Biso   1.000  O
  O188     1.0000 0.00840  0.59330  0.64130  Biso   1.000  O
  O189     1.0000 0.00840  0.65670  0.60870  Biso   1.000  O
  O190     1.0000 0.74160  0.09330  0.60870  Biso   1.000  O
  O191     1.0000 0.74160  0.65670  0.14130  Biso   1.000  O
  O192     1.0000 0.00840  0.09330  0.14130  Biso   1.000  O
  O193     1.0000 0.45600  0.83790  0.35720  Biso   1.000  O
  O194     1.0000 0.29400  0.91210  0.35720  Biso   1.000  O
  O195     1.0000 0.29400  0.83790  0.39280  Biso   1.000  O
  O196     1.0000 0.45600  0.91210  0.39280  Biso   1.000  O
  O197     1.0000 0.45600  0.33790  0.85720  Biso   1.000  O
  O198     1.0000 0.29400  0.41210  0.85720  Biso   1.000  O
  O199     1.0000 0.29400  0.33790  0.89280  Biso   1.000  O
  O200     1.0000 0.45600  0.41210  0.89280  Biso   1.000  O
  O201     1.0000 0.95600  0.83790  0.85720  Biso   1.000  O
  O202     1.0000 0.79400  0.91210  0.85720  Biso   1.000  O
  O203     1.0000 0.79400  0.83790  0.89280  Biso   1.000  O
  O204     1.0000 0.95600  0.91210  0.89280  Biso   1.000  O
  O205     1.0000 0.95600  0.33790  0.35720  Biso   1.000  O
  O206     1.0000 0.79400  0.41210  0.35720  Biso   1.000  O
  O207     1.0000 0.79400  0.33790  0.39280  Biso   1.000  O
  O208     1.0000 0.95600  0.41210  0.39280  Biso   1.000  O
  O209     1.0000 0.54400  0.16210  0.64280  Biso   1.000  O
  O210     1.0000 0.20600  0.58790  0.64280  Biso   1.000  O
  O211     1.0000 0.20600  0.16210  0.10720  Biso   1.000  O
  O212     1.0000 0.54400  0.58790  0.10720  Biso   1.000  O
  O213     1.0000 0.54400  0.66210  0.14280  Biso   1.000  O
  O214     1.0000 0.20600  0.08790  0.14280  Biso   1.000  O
  O215     1.0000 0.20600  0.66210  0.60720  Biso   1.000  O
  O216     1.0000 0.54400  0.08790  0.60720  Biso   1.000  O
  O217     1.0000 0.04400  0.16210  0.14280  Biso   1.000  O
  O218     1.0000 0.70600  0.58790  0.14280  Biso   1.000  O
  O219     1.0000 0.70600  0.16210  0.60720  Biso   1.000  O
  O220     1.0000 0.04400  0.58790  0.60720  Biso   1.000  O
  O221     1.0000 0.04400  0.66210  0.64280  Biso   1.000  O
  O222     1.0000 0.70600  0.08790  0.64280  Biso   1.000  O
  O223     1.0000 0.70600  0.66210  0.10720  Biso   1.000  O
  O224     1.0000 0.04400  0.08790  0.10720  Biso   1.000  O
  C937     1.0000 0.28600  0.87610  0.48070  Biso   1.000  C
  C938     1.0000 0.46400  0.87390  0.48070  Biso   1.000  C
  C939     1.0000 0.46400  0.87610  0.26930  Biso   1.000  C
  C940     1.0000 0.28600  0.87390  0.26930  Biso   1.000  C
  C941     1.0000 0.28600  0.37610  0.98070  Biso   1.000  C
  C942     1.0000 0.46400  0.37390  0.98070  Biso   1.000  C
  C943     1.0000 0.46400  0.37610  0.76930  Biso   1.000  C
  C944     1.0000 0.28600  0.37390  0.76930  Biso   1.000  C
  C945     1.0000 0.78600  0.87610  0.98070  Biso   1.000  C
  C946     1.0000 0.96400  0.87390  0.98070  Biso   1.000  C
  C947     1.0000 0.96400  0.87610  0.76930  Biso   1.000  C
  C948     1.0000 0.78600  0.87390  0.76930  Biso   1.000  C
  C949     1.0000 0.78600  0.37610  0.48070  Biso   1.000  C
  C950     1.0000 0.96400  0.37390  0.48070  Biso   1.000  C
  C951     1.0000 0.96400  0.37610  0.26930  Biso   1.000  C
  C952     1.0000 0.78600  0.37390  0.26930  Biso   1.000  C
  C953     1.0000 0.71400  0.12390  0.51930  Biso   1.000  C
  C954     1.0000 0.03600  0.62610  0.51930  Biso   1.000  C
  C955     1.0000 0.03600  0.12390  0.23070  Biso   1.000  C
  C956     1.0000 0.71400  0.62610  0.23070  Biso   1.000  C
  C957     1.0000 0.71400  0.62390  0.01930  Biso   1.000  C
  C958     1.0000 0.03600  0.12610  0.01930  Biso   1.000  C
  C959     1.0000 0.03600  0.62390  0.73070  Biso   1.000  C
  C960     1.0000 0.71400  0.12610  0.73070  Biso   1.000  C
  C961     1.0000 0.21400  0.12390  0.01930  Biso   1.000  C
  C962     1.0000 0.53600  0.62610  0.01930  Biso   1.000  C
  C963     1.0000 0.53600  0.12390  0.73070  Biso   1.000  C
  C964     1.0000 0.21400  0.62610  0.73070  Biso   1.000  C
  C965     1.0000 0.21400  0.62390  0.51930  Biso   1.000  C
  C966     1.0000 0.53600  0.12610  0.51930  Biso   1.000  C
  C967     1.0000 0.53600  0.62390  0.23070  Biso   1.000  C
  C968     1.0000 0.21400  0.12610  0.23070  Biso   1.000  C
  O225     1.0000 0.32690  0.87550  0.43050  Biso   1.000  O
  O226     1.0000 0.42310  0.87450  0.43050  Biso   1.000  O
  O227     1.0000 0.42310  0.87550  0.31950  Biso   1.000  O
  O228     1.0000 0.32690  0.87450  0.31950  Biso   1.000  O
  O229     1.0000 0.32690  0.37550  0.93050  Biso   1.000  O
  O230     1.0000 0.42310  0.37450  0.93050  Biso   1.000  O
  O231     1.0000 0.42310  0.37550  0.81950  Biso   1.000  O
  O232     1.0000 0.32690  0.37450  0.81950  Biso   1.000  O
  O233     1.0000 0.82690  0.87550  0.93050  Biso   1.000  O
  O234     1.0000 0.92310  0.87450  0.93050  Biso   1.000  O
  O235     1.0000 0.92310  0.87550  0.81950  Biso   1.000  O
  O236     1.0000 0.82690  0.87450  0.81950  Biso   1.000  O
  O237     1.0000 0.82690  0.37550  0.43050  Biso   1.000  O
  O238     1.0000 0.92310  0.37450  0.43050  Biso   1.000  O
  O239     1.0000 0.92310  0.37550  0.31950  Biso   1.000  O
  O240     1.0000 0.82690  0.37450  0.31950  Biso   1.000  O
  O241     1.0000 0.67310  0.12450  0.56950  Biso   1.000  O
  O242     1.0000 0.07690  0.62550  0.56950  Biso   1.000  O
  O243     1.0000 0.07690  0.12450  0.18050  Biso   1.000  O
  O244     1.0000 0.67310  0.62550  0.18050  Biso   1.000  O
  O245     1.0000 0.67310  0.62450  0.06950  Biso   1.000  O
  O246     1.0000 0.07690  0.12550  0.06950  Biso   1.000  O
  O247     1.0000 0.07690  0.62450  0.68050  Biso   1.000  O
  O248     1.0000 0.67310  0.12550  0.68050  Biso   1.000  O
  O249     1.0000 0.17310  0.12450  0.06950  Biso   1.000  O
  O250     1.0000 0.57690  0.62550  0.06950  Biso   1.000  O
  O251     1.0000 0.57690  0.12450  0.68050  Biso   1.000  O
  O252     1.0000 0.17310  0.62550  0.68050  Biso   1.000  O
  O253     1.0000 0.17310  0.62450  0.56950  Biso   1.000  O
  O254     1.0000 0.57690  0.12550  0.56950  Biso   1.000  O
  O255     1.0000 0.57690  0.62450  0.18050  Biso   1.000  O
  O256     1.0000 0.17310  0.12550  0.18050  Biso   1.000  O
  C969     1.0000 0.25400  0.53590  0.52690  Biso   1.000  C
  C970     1.0000 0.49600  0.21410  0.52690  Biso   1.000  C
  C971     1.0000 0.49600  0.53590  0.22310  Biso   1.000  C
  C972     1.0000 0.25400  0.21410  0.22310  Biso   1.000  C
  C973     1.0000 0.25400  0.03590  0.02690  Biso   1.000  C
  C974     1.0000 0.49600  0.71410  0.02690  Biso   1.000  C
  C975     1.0000 0.49600  0.03590  0.72310  Biso   1.000  C
  C976     1.0000 0.25400  0.71410  0.72310  Biso   1.000  C
  C977     1.0000 0.75400  0.53590  0.02690  Biso   1.000  C
  C978     1.0000 0.99600  0.21410  0.02690  Biso   1.000  C
  C979     1.0000 0.99600  0.53590  0.72310  Biso   1.000  C
  C980     1.0000 0.75400  0.21410  0.72310  Biso   1.000  C
  C981     1.0000 0.75400  0.03590  0.52690  Biso   1.000  C
  C982     1.0000 0.99600  0.71410  0.52690  Biso   1.000  C
  C983     1.0000 0.99600  0.03590  0.22310  Biso   1.000  C
  C984     1.0000 0.75400  0.71410  0.22310  Biso   1.000  C
  C985     1.0000 0.74600  0.46410  0.47310  Biso   1.000  C
  C986     1.0000 0.00400  0.28590  0.47310  Biso   1.000  C
  C987     1.0000 0.00400  0.46410  0.27690  Biso   1.000  C
  C988     1.0000 0.74600  0.28590  0.27690  Biso   1.000  C
  C989     1.0000 0.74600  0.96410  0.97310  Biso   1.000  C
  C990     1.0000 0.00400  0.78590  0.97310  Biso   1.000  C
  C991     1.0000 0.00400  0.96410  0.77690  Biso   1.000  C
  C992     1.0000 0.74600  0.78590  0.77690  Biso   1.000  C
  C993     1.0000 0.24600  0.46410  0.97310  Biso   1.000  C
  C994     1.0000 0.50400  0.28590  0.97310  Biso   1.000  C
  C995     1.0000 0.50400  0.46410  0.77690  Biso   1.000  C
  C996     1.0000 0.24600  0.28590  0.77690  Biso   1.000  C
  C997     1.0000 0.24600  0.96410  0.47310  Biso   1.000  C
  C998     1.0000 0.50400  0.78590  0.47310  Biso   1.000  C
  C999     1.0000 0.50400  0.96410  0.27690  Biso   1.000  C
  C1000    1.0000 0.24600  0.78590  0.27690  Biso   1.000  C
  C1001    1.0000 0.55100  0.79930  0.36650  Biso   1.000  C
  C1002    1.0000 0.19900  0.95070  0.36650  Biso   1.000  C
  C1003    1.0000 0.19900  0.79930  0.38350  Biso   1.000  C
  C1004    1.0000 0.55100  0.95070  0.38350  Biso   1.000  C
  C1005    1.0000 0.55100  0.29930  0.86650  Biso   1.000  C
  C1006    1.0000 0.19900  0.45070  0.86650  Biso   1.000  C
  C1007    1.0000 0.19900  0.29930  0.88350  Biso   1.000  C
  C1008    1.0000 0.55100  0.45070  0.88350  Biso   1.000  C
  C1009    1.0000 0.05100  0.79930  0.86650  Biso   1.000  C
  C1010    1.0000 0.69900  0.95070  0.86650  Biso   1.000  C
  C1011    1.0000 0.69900  0.79930  0.88350  Biso   1.000  C
  C1012    1.0000 0.05100  0.95070  0.88350  Biso   1.000  C
  C1013    1.0000 0.05100  0.29930  0.36650  Biso   1.000  C
  C1014    1.0000 0.69900  0.45070  0.36650  Biso   1.000  C
  C1015    1.0000 0.69900  0.29930  0.38350  Biso   1.000  C
  C1016    1.0000 0.05100  0.45070  0.38350  Biso   1.000  C
  C1017    1.0000 0.44900  0.20070  0.63350  Biso   1.000  C
  C1018    1.0000 0.30100  0.54930  0.63350  Biso   1.000  C
  C1019    1.0000 0.30100  0.20070  0.11650  Biso   1.000  C
  C1020    1.0000 0.44900  0.54930  0.11650  Biso   1.000  C
  C1021    1.0000 0.44900  0.70070  0.13350  Biso   1.000  C
  C1022    1.0000 0.30100  0.04930  0.13350  Biso   1.000  C
  C1023    1.0000 0.30100  0.70070  0.61650  Biso   1.000  C
  C1024    1.0000 0.44900  0.04930  0.61650  Biso   1.000  C
  C1025    1.0000 0.94900  0.20070  0.13350  Biso   1.000  C
  C1026    1.0000 0.80100  0.54930  0.13350  Biso   1.000  C
  C1027    1.0000 0.80100  0.20070  0.61650  Biso   1.000  C
  C1028    1.0000 0.94900  0.54930  0.61650  Biso   1.000  C
  C1029    1.0000 0.94900  0.70070  0.63350  Biso   1.000  C
  C1030    1.0000 0.80100  0.04930  0.63350  Biso   1.000  C
  C1031    1.0000 0.80100  0.70070  0.11650  Biso   1.000  C
  C1032    1.0000 0.94900  0.04930  0.11650  Biso   1.000  C
  C1033    1.0000 0.68200  0.44270  0.38960  Biso   1.000  C
  C1034    1.0000 0.06800  0.30730  0.38960  Biso   1.000  C
  C1035    1.0000 0.06800  0.44270  0.36040  Biso   1.000  C
  C1036    1.0000 0.68200  0.30730  0.36040  Biso   1.000  C
  C1037    1.0000 0.68200  0.94270  0.88960  Biso   1.000  C
  C1038    1.0000 0.06800  0.80730  0.88960  Biso   1.000  C
  C1039    1.0000 0.06800  0.94270  0.86040  Biso   1.000  C
  C1040    1.0000 0.68200  0.80730  0.86040  Biso   1.000  C
  C1041    1.0000 0.18200  0.44270  0.88960  Biso   1.000  C
  C1042    1.0000 0.56800  0.30730  0.88960  Biso   1.000  C
  C1043    1.0000 0.56800  0.44270  0.86040  Biso   1.000  C
  C1044    1.0000 0.18200  0.30730  0.86040  Biso   1.000  C
  C1045    1.0000 0.18200  0.94270  0.38960  Biso   1.000  C
  C1046    1.0000 0.56800  0.80730  0.38960  Biso   1.000  C
  C1047    1.0000 0.56800  0.94270  0.36040  Biso   1.000  C
  C1048    1.0000 0.18200  0.80730  0.36040  Biso   1.000  C
  C1049    1.0000 0.31800  0.55730  0.61040  Biso   1.000  C
  C1050    1.0000 0.43200  0.19270  0.61040  Biso   1.000  C
  C1051    1.0000 0.43200  0.55730  0.13960  Biso   1.000  C
  C1052    1.0000 0.31800  0.19270  0.13960  Biso   1.000  C
  C1053    1.0000 0.31800  0.05730  0.11040  Biso   1.000  C
  C1054    1.0000 0.43200  0.69270  0.11040  Biso   1.000  C
  C1055    1.0000 0.43200  0.05730  0.63960  Biso   1.000  C
  C1056    1.0000 0.31800  0.69270  0.63960  Biso   1.000  C
  C1057    1.0000 0.81800  0.55730  0.11040  Biso   1.000  C
  C1058    1.0000 0.93200  0.19270  0.11040  Biso   1.000  C
  C1059    1.0000 0.93200  0.55730  0.63960  Biso   1.000  C
  C1060    1.0000 0.81800  0.19270  0.63960  Biso   1.000  C
  C1061    1.0000 0.81800  0.05730  0.61040  Biso   1.000  C
  C1062    1.0000 0.93200  0.69270  0.61040  Biso   1.000  C
  C1063    1.0000 0.93200  0.05730  0.13960  Biso   1.000  C
  C1064    1.0000 0.81800  0.69270  0.13960  Biso   1.000  C
