data_image0
_cell_length_a       26.537
_cell_length_b       29.791
_cell_length_c       45.448
_cell_angle_alpha    90
_cell_angle_beta     95.146
_cell_angle_gamma    90

_symmetry_space_group_name_H-M    "P 1"
_symmetry_int_tables_number       1

loop_
  _symmetry_equiv_pos_as_xyz
  'x, y, z'

loop_
  _atom_site_label
  _atom_site_occupancy
  _atom_site_fract_x
  _atom_site_fract_y
  _atom_site_fract_z
  _atom_site_thermal_displace_type
  _atom_site_B_iso_or_equiv
  _atom_site_type_symbol
  Cu1      1.0000 0.30943  0.78315  0.68550  Biso   1.000  Cu
  Cu2      1.0000 0.69057  0.78315  0.81450  Biso   1.000  Cu
  Cu3      1.0000 0.80943  0.28315  0.68550  Biso   1.000  Cu
  Cu4      1.0000 0.19057  0.28315  0.81450  Biso   1.000  Cu
  Cu5      1.0000 0.69057  0.21685  0.31450  Biso   1.000  Cu
  Cu6      1.0000 0.30943  0.21685  0.18550  Biso   1.000  Cu
  Cu7      1.0000 0.19057  0.71685  0.31450  Biso   1.000  Cu
  Cu8      1.0000 0.80943  0.71685  0.18550  Biso   1.000  Cu
  Cu9      1.0000 0.38838  0.72668  0.69457  Biso   1.000  Cu
  Cu10     1.0000 0.61162  0.72668  0.80543  Biso   1.000  Cu
  Cu11     1.0000 0.88838  0.22668  0.69457  Biso   1.000  Cu
  Cu12     1.0000 0.11162  0.22668  0.80543  Biso   1.000  Cu
  Cu13     1.0000 0.61162  0.27332  0.30543  Biso   1.000  Cu
  Cu14     1.0000 0.38838  0.27332  0.19457  Biso   1.000  Cu
  Cu15     1.0000 0.11162  0.77332  0.30543  Biso   1.000  Cu
  Cu16     1.0000 0.88838  0.77332  0.19457  Biso   1.000  Cu
  C1       1.0000 0.29010  0.67520  0.62528  Biso   1.000  C
  C2       1.0000 0.70990  0.67520  0.87472  Biso   1.000  C
  C3       1.0000 0.79010  0.17520  0.62528  Biso   1.000  C
  C4       1.0000 0.20990  0.17520  0.87472  Biso   1.000  C
  C5       1.0000 0.70990  0.32480  0.37472  Biso   1.000  C
  C6       1.0000 0.29010  0.32480  0.12528  Biso   1.000  C
  C7       1.0000 0.20990  0.82480  0.37472  Biso   1.000  C
  C8       1.0000 0.79010  0.82480  0.12528  Biso   1.000  C
  C9       1.0000 0.24390  0.68650  0.61020  Biso   1.000  C
  C10      1.0000 0.75610  0.68650  0.88980  Biso   1.000  C
  C11      1.0000 0.74390  0.18650  0.61020  Biso   1.000  C
  C12      1.0000 0.25610  0.18650  0.88980  Biso   1.000  C
  C13      1.0000 0.75610  0.31350  0.38980  Biso   1.000  C
  C14      1.0000 0.24390  0.31350  0.11020  Biso   1.000  C
  C15      1.0000 0.25610  0.81350  0.38980  Biso   1.000  C
  C16      1.0000 0.74390  0.81350  0.11020  Biso   1.000  C
  H1       1.0000 0.22610  0.71130  0.61610  Biso   1.000  H
  H2       1.0000 0.77390  0.71130  0.88390  Biso   1.000  H
  H3       1.0000 0.72610  0.21130  0.61610  Biso   1.000  H
  H4       1.0000 0.27390  0.21130  0.88390  Biso   1.000  H
  H5       1.0000 0.77390  0.28870  0.38390  Biso   1.000  H
  H6       1.0000 0.22610  0.28870  0.11610  Biso   1.000  H
  H7       1.0000 0.27390  0.78870  0.38390  Biso   1.000  H
  H8       1.0000 0.72610  0.78870  0.11610  Biso   1.000  H
  C17      1.0000 0.22430  0.66060  0.58640  Biso   1.000  C
  C18      1.0000 0.77570  0.66060  0.91360  Biso   1.000  C
  C19      1.0000 0.72430  0.16060  0.58640  Biso   1.000  C
  C20      1.0000 0.27570  0.16060  0.91360  Biso   1.000  C
  C21      1.0000 0.77570  0.33940  0.41360  Biso   1.000  C
  C22      1.0000 0.22430  0.33940  0.08640  Biso   1.000  C
  C23      1.0000 0.27570  0.83940  0.41360  Biso   1.000  C
  C24      1.0000 0.72430  0.83940  0.08640  Biso   1.000  C
  H9       1.0000 0.19340  0.66810  0.57640  Biso   1.000  H
  H10      1.0000 0.80660  0.66810  0.92360  Biso   1.000  H
  H11      1.0000 0.69340  0.16810  0.57640  Biso   1.000  H
  H12      1.0000 0.30660  0.16810  0.92360  Biso   1.000  H
  H13      1.0000 0.80660  0.33190  0.42360  Biso   1.000  H
  H14      1.0000 0.19340  0.33190  0.07640  Biso   1.000  H
  H15      1.0000 0.30660  0.83190  0.42360  Biso   1.000  H
  H16      1.0000 0.69340  0.83190  0.07640  Biso   1.000  H
  C25      1.0000 0.25090  0.62340  0.57770  Biso   1.000  C
  C26      1.0000 0.74910  0.62340  0.92230  Biso   1.000  C
  C27      1.0000 0.75090  0.12340  0.57770  Biso   1.000  C
  C28      1.0000 0.24910  0.12340  0.92230  Biso   1.000  C
  C29      1.0000 0.74910  0.37660  0.42230  Biso   1.000  C
  C30      1.0000 0.25090  0.37660  0.07770  Biso   1.000  C
  C31      1.0000 0.24910  0.87660  0.42230  Biso   1.000  C
  C32      1.0000 0.75090  0.87660  0.07770  Biso   1.000  C
  C33      1.0000 0.29710  0.61210  0.59280  Biso   1.000  C
  C34      1.0000 0.70290  0.61210  0.90720  Biso   1.000  C
  C35      1.0000 0.79710  0.11210  0.59280  Biso   1.000  C
  C36      1.0000 0.20290  0.11210  0.90720  Biso   1.000  C
  C37      1.0000 0.70290  0.38790  0.40720  Biso   1.000  C
  C38      1.0000 0.29710  0.38790  0.09280  Biso   1.000  C
  C39      1.0000 0.20290  0.88790  0.40720  Biso   1.000  C
  C40      1.0000 0.79710  0.88790  0.09280  Biso   1.000  C
  H17      1.0000 0.31490  0.58730  0.58690  Biso   1.000  H
  H18      1.0000 0.68510  0.58730  0.91310  Biso   1.000  H
  H19      1.0000 0.81490  0.08730  0.58690  Biso   1.000  H
  H20      1.0000 0.18510  0.08730  0.91310  Biso   1.000  H
  H21      1.0000 0.68510  0.41270  0.41310  Biso   1.000  H
  H22      1.0000 0.31490  0.41270  0.08690  Biso   1.000  H
  H23      1.0000 0.18510  0.91270  0.41310  Biso   1.000  H
  H24      1.0000 0.81490  0.91270  0.08690  Biso   1.000  H
  C41      1.0000 0.31670  0.63800  0.61650  Biso   1.000  C
  C42      1.0000 0.68330  0.63800  0.88350  Biso   1.000  C
  C43      1.0000 0.81670  0.13800  0.61650  Biso   1.000  C
  C44      1.0000 0.18330  0.13800  0.88350  Biso   1.000  C
  C45      1.0000 0.68330  0.36200  0.38350  Biso   1.000  C
  C46      1.0000 0.31670  0.36200  0.11650  Biso   1.000  C
  C47      1.0000 0.18330  0.86200  0.38350  Biso   1.000  C
  C48      1.0000 0.81670  0.86200  0.11650  Biso   1.000  C
  H25      1.0000 0.34760  0.63050  0.62660  Biso   1.000  H
  H26      1.0000 0.65240  0.63050  0.87340  Biso   1.000  H
  H27      1.0000 0.84760  0.13050  0.62660  Biso   1.000  H
  H28      1.0000 0.15240  0.13050  0.87340  Biso   1.000  H
  H29      1.0000 0.65240  0.36950  0.37340  Biso   1.000  H
  H30      1.0000 0.34760  0.36950  0.12660  Biso   1.000  H
  H31      1.0000 0.15240  0.86950  0.37340  Biso   1.000  H
  H32      1.0000 0.84760  0.86950  0.12660  Biso   1.000  H
  O1       1.0000 0.28300  0.73570  0.65800  Biso   1.000  O
  O2       1.0000 0.71700  0.73570  0.84200  Biso   1.000  O
  O3       1.0000 0.78300  0.23570  0.65800  Biso   1.000  O
  O4       1.0000 0.21700  0.23570  0.84200  Biso   1.000  O
  O5       1.0000 0.71700  0.26430  0.34200  Biso   1.000  O
  O6       1.0000 0.28300  0.26430  0.15800  Biso   1.000  O
  O7       1.0000 0.21700  0.76430  0.34200  Biso   1.000  O
  O8       1.0000 0.78300  0.76430  0.15800  Biso   1.000  O
  C49      1.0000 0.13710  0.49930  0.46246  Biso   1.000  C
  C50      1.0000 0.86290  0.49930  0.03754  Biso   1.000  C
  C51      1.0000 0.63710  0.99930  0.46246  Biso   1.000  C
  C52      1.0000 0.36290  0.99930  0.03754  Biso   1.000  C
  C53      1.0000 0.86290  0.50070  0.53754  Biso   1.000  C
  C54      1.0000 0.13710  0.50070  0.96246  Biso   1.000  C
  C55      1.0000 0.36290  0.00070  0.53754  Biso   1.000  C
  C56      1.0000 0.63710  0.00070  0.96246  Biso   1.000  C
  C57      1.0000 0.11770  0.54020  0.47090  Biso   1.000  C
  C58      1.0000 0.88230  0.54020  0.02910  Biso   1.000  C
  C59      1.0000 0.61770  0.04020  0.47090  Biso   1.000  C
  C60      1.0000 0.38230  0.04020  0.02910  Biso   1.000  C
  C61      1.0000 0.88230  0.45980  0.52910  Biso   1.000  C
  C62      1.0000 0.11770  0.45980  0.97090  Biso   1.000  C
  C63      1.0000 0.38230  0.95980  0.52910  Biso   1.000  C
  C64      1.0000 0.61770  0.95980  0.97090  Biso   1.000  C
  H33      1.0000 0.08730  0.55080  0.46170  Biso   1.000  H
  H34      1.0000 0.91270  0.55080  0.03830  Biso   1.000  H
  H35      1.0000 0.58730  0.05080  0.46170  Biso   1.000  H
  H36      1.0000 0.41270  0.05080  0.03830  Biso   1.000  H
  H37      1.0000 0.91270  0.44920  0.53830  Biso   1.000  H
  H38      1.0000 0.08730  0.44920  0.96170  Biso   1.000  H
  H39      1.0000 0.41270  0.94920  0.53830  Biso   1.000  H
  H40      1.0000 0.58730  0.94920  0.96170  Biso   1.000  H
  C65      1.0000 0.14370  0.56530  0.49310  Biso   1.000  C
  C66      1.0000 0.85630  0.56530  0.00690  Biso   1.000  C
  C67      1.0000 0.64370  0.06530  0.49310  Biso   1.000  C
  C68      1.0000 0.35630  0.06530  0.00690  Biso   1.000  C
  C69      1.0000 0.85630  0.43470  0.50690  Biso   1.000  C
  C70      1.0000 0.14370  0.43470  0.99310  Biso   1.000  C
  C71      1.0000 0.35630  0.93470  0.50690  Biso   1.000  C
  C72      1.0000 0.64370  0.93470  0.99310  Biso   1.000  C
  H41      1.0000 0.13070  0.59270  0.49880  Biso   1.000  H
  H42      1.0000 0.86930  0.59270  0.00120  Biso   1.000  H
  H43      1.0000 0.63070  0.09270  0.49880  Biso   1.000  H
  H44      1.0000 0.36930  0.09270  0.00120  Biso   1.000  H
  H45      1.0000 0.86930  0.40730  0.50120  Biso   1.000  H
  H46      1.0000 0.13070  0.40730  0.99880  Biso   1.000  H
  H47      1.0000 0.36930  0.90730  0.50120  Biso   1.000  H
  H48      1.0000 0.63070  0.90730  0.99880  Biso   1.000  H
  C73      1.0000 0.18910  0.54950  0.50693  Biso   1.000  C
  C74      1.0000 0.81090  0.54950  0.99307  Biso   1.000  C
  C75      1.0000 0.68910  0.04950  0.50693  Biso   1.000  C
  C76      1.0000 0.31090  0.04950  0.99307  Biso   1.000  C
  C77      1.0000 0.81090  0.45050  0.49307  Biso   1.000  C
  C78      1.0000 0.18910  0.45050  0.00693  Biso   1.000  C
  C79      1.0000 0.31090  0.95050  0.49307  Biso   1.000  C
  C80      1.0000 0.68910  0.95050  0.00693  Biso   1.000  C
  C81      1.0000 0.20860  0.50870  0.49850  Biso   1.000  C
  C82      1.0000 0.79140  0.50870  0.00150  Biso   1.000  C
  C83      1.0000 0.70860  0.00870  0.49850  Biso   1.000  C
  C84      1.0000 0.29140  0.00870  0.00150  Biso   1.000  C
  C85      1.0000 0.79140  0.49130  0.50150  Biso   1.000  C
  C86      1.0000 0.20860  0.49130  0.99850  Biso   1.000  C
  C87      1.0000 0.29140  0.99130  0.50150  Biso   1.000  C
  C88      1.0000 0.70860  0.99130  0.99850  Biso   1.000  C
  H49      1.0000 0.23900  0.49810  0.50770  Biso   1.000  H
  H50      1.0000 0.76100  0.49810  0.99230  Biso   1.000  H
  H51      1.0000 0.73900  0.99810  0.50770  Biso   1.000  H
  H52      1.0000 0.26100  0.99810  0.99230  Biso   1.000  H
  H53      1.0000 0.76100  0.50190  0.49230  Biso   1.000  H
  H54      1.0000 0.23900  0.50190  0.00770  Biso   1.000  H
  H55      1.0000 0.26100  0.00190  0.49230  Biso   1.000  H
  H56      1.0000 0.73900  0.00190  0.00770  Biso   1.000  H
  C89      1.0000 0.18260  0.48360  0.47620  Biso   1.000  C
  C90      1.0000 0.81740  0.48360  0.02380  Biso   1.000  C
  C91      1.0000 0.68260  0.98360  0.47620  Biso   1.000  C
  C92      1.0000 0.31740  0.98360  0.02380  Biso   1.000  C
  C93      1.0000 0.81740  0.51640  0.52380  Biso   1.000  C
  C94      1.0000 0.18260  0.51640  0.97620  Biso   1.000  C
  C95      1.0000 0.31740  0.01640  0.52380  Biso   1.000  C
  C96      1.0000 0.68260  0.01640  0.97620  Biso   1.000  C
  H57      1.0000 0.19560  0.45620  0.47060  Biso   1.000  H
  H58      1.0000 0.80440  0.45620  0.02940  Biso   1.000  H
  H59      1.0000 0.69560  0.95620  0.47060  Biso   1.000  H
  H60      1.0000 0.30440  0.95620  0.02940  Biso   1.000  H
  H61      1.0000 0.80440  0.54380  0.52940  Biso   1.000  H
  H62      1.0000 0.19560  0.54380  0.97060  Biso   1.000  H
  H63      1.0000 0.30440  0.04380  0.52940  Biso   1.000  H
  H64      1.0000 0.69560  0.04380  0.97060  Biso   1.000  H
  O9       1.0000 0.35570  0.69160  0.66090  Biso   1.000  O
  O10      1.0000 0.64430  0.69160  0.83910  Biso   1.000  O
  O11      1.0000 0.85570  0.19160  0.66090  Biso   1.000  O
  O12      1.0000 0.14430  0.19160  0.83910  Biso   1.000  O
  O13      1.0000 0.64430  0.30840  0.33910  Biso   1.000  O
  O14      1.0000 0.35570  0.30840  0.16090  Biso   1.000  O
  O15      1.0000 0.14430  0.80840  0.33910  Biso   1.000  O
  O16      1.0000 0.85570  0.80840  0.16090  Biso   1.000  O
  C97      1.0000 0.90980  0.31240  0.62336  Biso   1.000  C
  C98      1.0000 0.09020  0.31240  0.87664  Biso   1.000  C
  C99      1.0000 0.40980  0.81240  0.62336  Biso   1.000  C
  C100     1.0000 0.59020  0.81240  0.87664  Biso   1.000  C
  C101     1.0000 0.09020  0.68760  0.37664  Biso   1.000  C
  C102     1.0000 0.90980  0.68760  0.12336  Biso   1.000  C
  C103     1.0000 0.59020  0.18760  0.37664  Biso   1.000  C
  C104     1.0000 0.40980  0.18760  0.12336  Biso   1.000  C
  C105     1.0000 0.96130  0.30760  0.62080  Biso   1.000  C
  C106     1.0000 0.03870  0.30760  0.87920  Biso   1.000  C
  C107     1.0000 0.46130  0.80760  0.62080  Biso   1.000  C
  C108     1.0000 0.53870  0.80760  0.87920  Biso   1.000  C
  C109     1.0000 0.03870  0.69240  0.37920  Biso   1.000  C
  C110     1.0000 0.96130  0.69240  0.12080  Biso   1.000  C
  C111     1.0000 0.53870  0.19240  0.37920  Biso   1.000  C
  C112     1.0000 0.46130  0.19240  0.12080  Biso   1.000  C
  H65      1.0000 0.98160  0.29270  0.63550  Biso   1.000  H
  H66      1.0000 0.01840  0.29270  0.86450  Biso   1.000  H
  H67      1.0000 0.48160  0.79270  0.63550  Biso   1.000  H
  H68      1.0000 0.51840  0.79270  0.86450  Biso   1.000  H
  H69      1.0000 0.01840  0.70730  0.36450  Biso   1.000  H
  H70      1.0000 0.98160  0.70730  0.13550  Biso   1.000  H
  H71      1.0000 0.51840  0.20730  0.36450  Biso   1.000  H
  H72      1.0000 0.48160  0.20730  0.13550  Biso   1.000  H
  C113     1.0000 0.98260  0.32510  0.59640  Biso   1.000  C
  C114     1.0000 0.01740  0.32510  0.90360  Biso   1.000  C
  C115     1.0000 0.48260  0.82510  0.59640  Biso   1.000  C
  C116     1.0000 0.51740  0.82510  0.90360  Biso   1.000  C
  C117     1.0000 0.01740  0.67490  0.40360  Biso   1.000  C
  C118     1.0000 0.98260  0.67490  0.09640  Biso   1.000  C
  C119     1.0000 0.51740  0.17490  0.40360  Biso   1.000  C
  C120     1.0000 0.48260  0.17490  0.09640  Biso   1.000  C
  H73      1.0000 0.01710  0.32180  0.59470  Biso   1.000  H
  H74      1.0000 0.98290  0.32180  0.90530  Biso   1.000  H
  H75      1.0000 0.51710  0.82180  0.59470  Biso   1.000  H
  H76      1.0000 0.48290  0.82180  0.90530  Biso   1.000  H
  H77      1.0000 0.98290  0.67820  0.40530  Biso   1.000  H
  H78      1.0000 0.01710  0.67820  0.09470  Biso   1.000  H
  H79      1.0000 0.48290  0.17820  0.40530  Biso   1.000  H
  H80      1.0000 0.51710  0.17820  0.09470  Biso   1.000  H
  C121     1.0000 0.95240  0.34740  0.57460  Biso   1.000  C
  C122     1.0000 0.04760  0.34740  0.92540  Biso   1.000  C
  C123     1.0000 0.45240  0.84740  0.57460  Biso   1.000  C
  C124     1.0000 0.54760  0.84740  0.92540  Biso   1.000  C
  C125     1.0000 0.04760  0.65260  0.42540  Biso   1.000  C
  C126     1.0000 0.95240  0.65260  0.07460  Biso   1.000  C
  C127     1.0000 0.54760  0.15260  0.42540  Biso   1.000  C
  C128     1.0000 0.45240  0.15260  0.07460  Biso   1.000  C
  C129     1.0000 0.90080  0.35220  0.57710  Biso   1.000  C
  C130     1.0000 0.09920  0.35220  0.92290  Biso   1.000  C
  C131     1.0000 0.40080  0.85220  0.57710  Biso   1.000  C
  C132     1.0000 0.59920  0.85220  0.92290  Biso   1.000  C
  C133     1.0000 0.09920  0.64780  0.42290  Biso   1.000  C
  C134     1.0000 0.90080  0.64780  0.07710  Biso   1.000  C
  C135     1.0000 0.59920  0.14780  0.42290  Biso   1.000  C
  C136     1.0000 0.40080  0.14780  0.07710  Biso   1.000  C
  H81      1.0000 0.88060  0.36720  0.56240  Biso   1.000  H
  H82      1.0000 0.11940  0.36720  0.93760  Biso   1.000  H
  H83      1.0000 0.38060  0.86720  0.56240  Biso   1.000  H
  H84      1.0000 0.61940  0.86720  0.93760  Biso   1.000  H
  H85      1.0000 0.11940  0.63280  0.43760  Biso   1.000  H
  H86      1.0000 0.88060  0.63280  0.06240  Biso   1.000  H
  H87      1.0000 0.61940  0.13280  0.43760  Biso   1.000  H
  H88      1.0000 0.38060  0.13280  0.06240  Biso   1.000  H
  C137     1.0000 0.87960  0.33470  0.60150  Biso   1.000  C
  C138     1.0000 0.12040  0.33470  0.89850  Biso   1.000  C
  C139     1.0000 0.37960  0.83470  0.60150  Biso   1.000  C
  C140     1.0000 0.62040  0.83470  0.89850  Biso   1.000  C
  C141     1.0000 0.12040  0.66530  0.39850  Biso   1.000  C
  C142     1.0000 0.87960  0.66530  0.10150  Biso   1.000  C
  C143     1.0000 0.62040  0.16530  0.39850  Biso   1.000  C
  C144     1.0000 0.37960  0.16530  0.10150  Biso   1.000  C
  H89      1.0000 0.84510  0.33800  0.60320  Biso   1.000  H
  H90      1.0000 0.15490  0.33800  0.89680  Biso   1.000  H
  H91      1.0000 0.34510  0.83800  0.60320  Biso   1.000  H
  H92      1.0000 0.65490  0.83800  0.89680  Biso   1.000  H
  H93      1.0000 0.15490  0.66200  0.39680  Biso   1.000  H
  H94      1.0000 0.84510  0.66200  0.10320  Biso   1.000  H
  H95      1.0000 0.65490  0.16200  0.39680  Biso   1.000  H
  H96      1.0000 0.34510  0.16200  0.10320  Biso   1.000  H
  O17      1.0000 0.91650  0.26770  0.66490  Biso   1.000  O
  O18      1.0000 0.08350  0.26770  0.83510  Biso   1.000  O
  O19      1.0000 0.41650  0.76770  0.66490  Biso   1.000  O
  O20      1.0000 0.58350  0.76770  0.83510  Biso   1.000  O
  O21      1.0000 0.08350  0.73230  0.33510  Biso   1.000  O
  O22      1.0000 0.91650  0.73230  0.16490  Biso   1.000  O
  O23      1.0000 0.58350  0.23230  0.33510  Biso   1.000  O
  O24      1.0000 0.41650  0.23230  0.16490  Biso   1.000  O
  C145     1.0000 0.07420  0.44110  0.46072  Biso   1.000  C
  C146     1.0000 0.92580  0.44110  0.03928  Biso   1.000  C
  C147     1.0000 0.57420  0.94110  0.46072  Biso   1.000  C
  C148     1.0000 0.42580  0.94110  0.03928  Biso   1.000  C
  C149     1.0000 0.92580  0.55890  0.53928  Biso   1.000  C
  C150     1.0000 0.07420  0.55890  0.96072  Biso   1.000  C
  C151     1.0000 0.42580  0.05890  0.53928  Biso   1.000  C
  C152     1.0000 0.57420  0.05890  0.96072  Biso   1.000  C
  C153     1.0000 0.09610  0.40380  0.47510  Biso   1.000  C
  C154     1.0000 0.90390  0.40380  0.02490  Biso   1.000  C
  C155     1.0000 0.59610  0.90380  0.47510  Biso   1.000  C
  C156     1.0000 0.40390  0.90380  0.02490  Biso   1.000  C
  C157     1.0000 0.90390  0.59620  0.52490  Biso   1.000  C
  C158     1.0000 0.09610  0.59620  0.97510  Biso   1.000  C
  C159     1.0000 0.40390  0.09620  0.52490  Biso   1.000  C
  C160     1.0000 0.59610  0.09620  0.97510  Biso   1.000  C
  H97      1.0000 0.12730  0.39330  0.47020  Biso   1.000  H
  H98      1.0000 0.87270  0.39330  0.02980  Biso   1.000  H
  H99      1.0000 0.62730  0.89330  0.47020  Biso   1.000  H
  H100     1.0000 0.37270  0.89330  0.02980  Biso   1.000  H
  H101     1.0000 0.87270  0.60670  0.52980  Biso   1.000  H
  H102     1.0000 0.12730  0.60670  0.97020  Biso   1.000  H
  H103     1.0000 0.37270  0.10670  0.52980  Biso   1.000  H
  H104     1.0000 0.62730  0.10670  0.97020  Biso   1.000  H
  C161     1.0000 0.07140  0.38210  0.49680  Biso   1.000  C
  C162     1.0000 0.92860  0.38210  0.00320  Biso   1.000  C
  C163     1.0000 0.57140  0.88210  0.49680  Biso   1.000  C
  C164     1.0000 0.42860  0.88210  0.00320  Biso   1.000  C
  C165     1.0000 0.92860  0.61790  0.50320  Biso   1.000  C
  C166     1.0000 0.07140  0.61790  0.99680  Biso   1.000  C
  C167     1.0000 0.42860  0.11790  0.50320  Biso   1.000  C
  C168     1.0000 0.57140  0.11790  0.99680  Biso   1.000  C
  H105     1.0000 0.08610  0.35720  0.50640  Biso   1.000  H
  H106     1.0000 0.91390  0.35720  0.99360  Biso   1.000  H
  H107     1.0000 0.58610  0.85720  0.50640  Biso   1.000  H
  H108     1.0000 0.41390  0.85720  0.99360  Biso   1.000  H
  H109     1.0000 0.91390  0.64280  0.49360  Biso   1.000  H
  H110     1.0000 0.08610  0.64280  0.00640  Biso   1.000  H
  H111     1.0000 0.41390  0.14280  0.49360  Biso   1.000  H
  H112     1.0000 0.58610  0.14280  0.00640  Biso   1.000  H
  C169     1.0000 0.02480  0.39780  0.50410  Biso   1.000  C
  C170     1.0000 0.97520  0.39780  0.99590  Biso   1.000  C
  C171     1.0000 0.52480  0.89780  0.50410  Biso   1.000  C
  C172     1.0000 0.47520  0.89780  0.99590  Biso   1.000  C
  C173     1.0000 0.97520  0.60220  0.49590  Biso   1.000  C
  C174     1.0000 0.02480  0.60220  0.00410  Biso   1.000  C
  C175     1.0000 0.47520  0.10220  0.49590  Biso   1.000  C
  C176     1.0000 0.52480  0.10220  0.00410  Biso   1.000  C
  C177     1.0000 0.00290  0.43510  0.48970  Biso   1.000  C
  C178     1.0000 0.99710  0.43510  0.01030  Biso   1.000  C
  C179     1.0000 0.50290  0.93510  0.48970  Biso   1.000  C
  C180     1.0000 0.49710  0.93510  0.01030  Biso   1.000  C
  C181     1.0000 0.99710  0.56490  0.51030  Biso   1.000  C
  C182     1.0000 0.00290  0.56490  0.98970  Biso   1.000  C
  C183     1.0000 0.49710  0.06490  0.51030  Biso   1.000  C
  C184     1.0000 0.50290  0.06490  0.98970  Biso   1.000  C
  H113     1.0000 0.97170  0.44560  0.49460  Biso   1.000  H
  H114     1.0000 0.02830  0.44560  0.00540  Biso   1.000  H
  H115     1.0000 0.47170  0.94560  0.49460  Biso   1.000  H
  H116     1.0000 0.52830  0.94560  0.00540  Biso   1.000  H
  H117     1.0000 0.02830  0.55440  0.50540  Biso   1.000  H
  H118     1.0000 0.97170  0.55440  0.99460  Biso   1.000  H
  H119     1.0000 0.52830  0.05440  0.50540  Biso   1.000  H
  H120     1.0000 0.47170  0.05440  0.99460  Biso   1.000  H
  C185     1.0000 0.02760  0.45670  0.46800  Biso   1.000  C
  C186     1.0000 0.97240  0.45670  0.03200  Biso   1.000  C
  C187     1.0000 0.52760  0.95670  0.46800  Biso   1.000  C
  C188     1.0000 0.47240  0.95670  0.03200  Biso   1.000  C
  C189     1.0000 0.97240  0.54330  0.53200  Biso   1.000  C
  C190     1.0000 0.02760  0.54330  0.96800  Biso   1.000  C
  C191     1.0000 0.47240  0.04330  0.53200  Biso   1.000  C
  C192     1.0000 0.52760  0.04330  0.96800  Biso   1.000  C
  H121     1.0000 0.01290  0.48170  0.45840  Biso   1.000  H
  H122     1.0000 0.98710  0.48170  0.04160  Biso   1.000  H
  H123     1.0000 0.51290  0.98170  0.45840  Biso   1.000  H
  H124     1.0000 0.48710  0.98170  0.04160  Biso   1.000  H
  H125     1.0000 0.98710  0.51830  0.54160  Biso   1.000  H
  H126     1.0000 0.01290  0.51830  0.95840  Biso   1.000  H
  H127     1.0000 0.48710  0.01830  0.54160  Biso   1.000  H
  H128     1.0000 0.51290  0.01830  0.95840  Biso   1.000  H
  O25      1.0000 0.83970  0.30900  0.65270  Biso   1.000  O
  O26      1.0000 0.16030  0.30900  0.84730  Biso   1.000  O
  O27      1.0000 0.33970  0.80900  0.65270  Biso   1.000  O
  O28      1.0000 0.66030  0.80900  0.84730  Biso   1.000  O
  O29      1.0000 0.16030  0.69100  0.34730  Biso   1.000  O
  O30      1.0000 0.83970  0.69100  0.15270  Biso   1.000  O
  O31      1.0000 0.66030  0.19100  0.34730  Biso   1.000  O
  O32      1.0000 0.33970  0.19100  0.15270  Biso   1.000  O
  C193     1.0000 0.91310  0.66480  0.25497  Biso   1.000  C
  C194     1.0000 0.08690  0.66480  0.24503  Biso   1.000  C
  C195     1.0000 0.41310  0.16480  0.25497  Biso   1.000  C
  C196     1.0000 0.58690  0.16480  0.24503  Biso   1.000  C
  C197     1.0000 0.08690  0.33520  0.74503  Biso   1.000  C
  C198     1.0000 0.91310  0.33520  0.75497  Biso   1.000  C
  C199     1.0000 0.58690  0.83520  0.74503  Biso   1.000  C
  C200     1.0000 0.41310  0.83520  0.75497  Biso   1.000  C
  C201     1.0000 0.89180  0.62330  0.26030  Biso   1.000  C
  C202     1.0000 0.10820  0.62330  0.23970  Biso   1.000  C
  C203     1.0000 0.39180  0.12330  0.26030  Biso   1.000  C
  C204     1.0000 0.60820  0.12330  0.23970  Biso   1.000  C
  C205     1.0000 0.10820  0.37670  0.73970  Biso   1.000  C
  C206     1.0000 0.89180  0.37670  0.76030  Biso   1.000  C
  C207     1.0000 0.60820  0.87670  0.73970  Biso   1.000  C
  C208     1.0000 0.39180  0.87670  0.76030  Biso   1.000  C
  H129     1.0000 0.86390  0.61320  0.24830  Biso   1.000  H
  H130     1.0000 0.13610  0.61320  0.25170  Biso   1.000  H
  H131     1.0000 0.36390  0.11320  0.24830  Biso   1.000  H
  H132     1.0000 0.63610  0.11320  0.25170  Biso   1.000  H
  H133     1.0000 0.13610  0.38680  0.75170  Biso   1.000  H
  H134     1.0000 0.86390  0.38680  0.74830  Biso   1.000  H
  H135     1.0000 0.63610  0.88680  0.75170  Biso   1.000  H
  H136     1.0000 0.36390  0.88680  0.74830  Biso   1.000  H
  C209     1.0000 0.91230  0.59690  0.28360  Biso   1.000  C
  C210     1.0000 0.08770  0.59690  0.21640  Biso   1.000  C
  C211     1.0000 0.41230  0.09690  0.28360  Biso   1.000  C
  C212     1.0000 0.58770  0.09690  0.21640  Biso   1.000  C
  C213     1.0000 0.08770  0.40310  0.71640  Biso   1.000  C
  C214     1.0000 0.91230  0.40310  0.78360  Biso   1.000  C
  C215     1.0000 0.58770  0.90310  0.71640  Biso   1.000  C
  C216     1.0000 0.41230  0.90310  0.78360  Biso   1.000  C
  H137     1.0000 0.89800  0.56910  0.28720  Biso   1.000  H
  H138     1.0000 0.10200  0.56910  0.21280  Biso   1.000  H
  H139     1.0000 0.39800  0.06910  0.28720  Biso   1.000  H
  H140     1.0000 0.60200  0.06910  0.21280  Biso   1.000  H
  H141     1.0000 0.10200  0.43090  0.71280  Biso   1.000  H
  H142     1.0000 0.89800  0.43090  0.78720  Biso   1.000  H
  H143     1.0000 0.60200  0.93090  0.71280  Biso   1.000  H
  H144     1.0000 0.39800  0.93090  0.78720  Biso   1.000  H
  C217     1.0000 0.95400  0.61200  0.30157  Biso   1.000  C
  C218     1.0000 0.04600  0.61200  0.19843  Biso   1.000  C
  C219     1.0000 0.45400  0.11200  0.30157  Biso   1.000  C
  C220     1.0000 0.54600  0.11200  0.19843  Biso   1.000  C
  C221     1.0000 0.04600  0.38800  0.69843  Biso   1.000  C
  C222     1.0000 0.95400  0.38800  0.80157  Biso   1.000  C
  C223     1.0000 0.54600  0.88800  0.69843  Biso   1.000  C
  C224     1.0000 0.45400  0.88800  0.80157  Biso   1.000  C
  C225     1.0000 0.97530  0.65350  0.29620  Biso   1.000  C
  C226     1.0000 0.02470  0.65350  0.20380  Biso   1.000  C
  C227     1.0000 0.47530  0.15350  0.29620  Biso   1.000  C
  C228     1.0000 0.52470  0.15350  0.20380  Biso   1.000  C
  C229     1.0000 0.02470  0.34650  0.70380  Biso   1.000  C
  C230     1.0000 0.97530  0.34650  0.79620  Biso   1.000  C
  C231     1.0000 0.52470  0.84650  0.70380  Biso   1.000  C
  C232     1.0000 0.47530  0.84650  0.79620  Biso   1.000  C
  H145     1.0000 0.00320  0.66360  0.30830  Biso   1.000  H
  H146     1.0000 0.99680  0.66360  0.19170  Biso   1.000  H
  H147     1.0000 0.50320  0.16360  0.30830  Biso   1.000  H
  H148     1.0000 0.49680  0.16360  0.19170  Biso   1.000  H
  H149     1.0000 0.99680  0.33640  0.69170  Biso   1.000  H
  H150     1.0000 0.00320  0.33640  0.80830  Biso   1.000  H
  H151     1.0000 0.49680  0.83640  0.69170  Biso   1.000  H
  H152     1.0000 0.50320  0.83640  0.80830  Biso   1.000  H
  C233     1.0000 0.95480  0.67990  0.27290  Biso   1.000  C
  C234     1.0000 0.04520  0.67990  0.22710  Biso   1.000  C
  C235     1.0000 0.45480  0.17990  0.27290  Biso   1.000  C
  C236     1.0000 0.54520  0.17990  0.22710  Biso   1.000  C
  C237     1.0000 0.04520  0.32010  0.72710  Biso   1.000  C
  C238     1.0000 0.95480  0.32010  0.77290  Biso   1.000  C
  C239     1.0000 0.54520  0.82010  0.72710  Biso   1.000  C
  C240     1.0000 0.45480  0.82010  0.77290  Biso   1.000  C
  H153     1.0000 0.96910  0.70770  0.26940  Biso   1.000  H
  H154     1.0000 0.03090  0.70770  0.23060  Biso   1.000  H
  H155     1.0000 0.46910  0.20770  0.26940  Biso   1.000  H
  H156     1.0000 0.53090  0.20770  0.23060  Biso   1.000  H
  H157     1.0000 0.03090  0.29230  0.73060  Biso   1.000  H
  H158     1.0000 0.96910  0.29230  0.76940  Biso   1.000  H
  H159     1.0000 0.53090  0.79230  0.73060  Biso   1.000  H
  H160     1.0000 0.46910  0.79230  0.76940  Biso   1.000  H
  O33      1.0000 0.84840  0.67810  0.21290  Biso   1.000  O
  O34      1.0000 0.15160  0.67810  0.28710  Biso   1.000  O
  O35      1.0000 0.34840  0.17810  0.21290  Biso   1.000  O
  O36      1.0000 0.65160  0.17810  0.28710  Biso   1.000  O
  O37      1.0000 0.15160  0.32190  0.78710  Biso   1.000  O
  O38      1.0000 0.84840  0.32190  0.71290  Biso   1.000  O
  O39      1.0000 0.65160  0.82190  0.78710  Biso   1.000  O
  O40      1.0000 0.34840  0.82190  0.71290  Biso   1.000  O
  C241     1.0000 0.28500  0.30480  0.25731  Biso   1.000  C
  C242     1.0000 0.71500  0.30480  0.24269  Biso   1.000  C
  C243     1.0000 0.78500  0.80480  0.25731  Biso   1.000  C
  C244     1.0000 0.21500  0.80480  0.24269  Biso   1.000  C
  C245     1.0000 0.71500  0.69520  0.74269  Biso   1.000  C
  C246     1.0000 0.28500  0.69520  0.75731  Biso   1.000  C
  C247     1.0000 0.21500  0.19520  0.74269  Biso   1.000  C
  C248     1.0000 0.78500  0.19520  0.75731  Biso   1.000  C
  C249     1.0000 0.30210  0.34620  0.26810  Biso   1.000  C
  C250     1.0000 0.69790  0.34620  0.23190  Biso   1.000  C
  C251     1.0000 0.80210  0.84620  0.26810  Biso   1.000  C
  C252     1.0000 0.19790  0.84620  0.23190  Biso   1.000  C
  C253     1.0000 0.69790  0.65380  0.73190  Biso   1.000  C
  C254     1.0000 0.30210  0.65380  0.76810  Biso   1.000  C
  C255     1.0000 0.19790  0.15380  0.73190  Biso   1.000  C
  C256     1.0000 0.80210  0.15380  0.76810  Biso   1.000  C
  H161     1.0000 0.32560  0.36230  0.25830  Biso   1.000  H
  H162     1.0000 0.67440  0.36230  0.24170  Biso   1.000  H
  H163     1.0000 0.82560  0.86230  0.25830  Biso   1.000  H
  H164     1.0000 0.17440  0.86230  0.24170  Biso   1.000  H
  H165     1.0000 0.67440  0.63770  0.74170  Biso   1.000  H
  H166     1.0000 0.32560  0.63770  0.75830  Biso   1.000  H
  H167     1.0000 0.17440  0.13770  0.74170  Biso   1.000  H
  H168     1.0000 0.82560  0.13770  0.75830  Biso   1.000  H
  C257     1.0000 0.28410  0.36370  0.29350  Biso   1.000  C
  C258     1.0000 0.71590  0.36370  0.20650  Biso   1.000  C
  C259     1.0000 0.78410  0.86370  0.29350  Biso   1.000  C
  C260     1.0000 0.21590  0.86370  0.20650  Biso   1.000  C
  C261     1.0000 0.71590  0.63630  0.70650  Biso   1.000  C
  C262     1.0000 0.28410  0.63630  0.79350  Biso   1.000  C
  C263     1.0000 0.21590  0.13630  0.70650  Biso   1.000  C
  C264     1.0000 0.78410  0.13630  0.79350  Biso   1.000  C
  H169     1.0000 0.29560  0.39150  0.30070  Biso   1.000  H
  H170     1.0000 0.70440  0.39150  0.19930  Biso   1.000  H
  H171     1.0000 0.79560  0.89150  0.30070  Biso   1.000  H
  H172     1.0000 0.20440  0.89150  0.19930  Biso   1.000  H
  H173     1.0000 0.70440  0.60850  0.69930  Biso   1.000  H
  H174     1.0000 0.29560  0.60850  0.80070  Biso   1.000  H
  H175     1.0000 0.20440  0.10850  0.69930  Biso   1.000  H
  H176     1.0000 0.79560  0.10850  0.80070  Biso   1.000  H
  C265     1.0000 0.24900  0.33970  0.30813  Biso   1.000  C
  C266     1.0000 0.75100  0.33970  0.19187  Biso   1.000  C
  C267     1.0000 0.74900  0.83970  0.30813  Biso   1.000  C
  C268     1.0000 0.25100  0.83970  0.19187  Biso   1.000  C
  C269     1.0000 0.75100  0.66030  0.69187  Biso   1.000  C
  C270     1.0000 0.24900  0.66030  0.80813  Biso   1.000  C
  C271     1.0000 0.25100  0.16030  0.69187  Biso   1.000  C
  C272     1.0000 0.74900  0.16030  0.80813  Biso   1.000  C
  C273     1.0000 0.23190  0.29830  0.29740  Biso   1.000  C
  C274     1.0000 0.76810  0.29830  0.20260  Biso   1.000  C
  C275     1.0000 0.73190  0.79830  0.29740  Biso   1.000  C
  C276     1.0000 0.26810  0.79830  0.20260  Biso   1.000  C
  C277     1.0000 0.76810  0.70170  0.70260  Biso   1.000  C
  C278     1.0000 0.23190  0.70170  0.79740  Biso   1.000  C
  C279     1.0000 0.26810  0.20170  0.70260  Biso   1.000  C
  C280     1.0000 0.73190  0.20170  0.79740  Biso   1.000  C
  H177     1.0000 0.20850  0.28220  0.30720  Biso   1.000  H
  H178     1.0000 0.79150  0.28220  0.19280  Biso   1.000  H
  H179     1.0000 0.70850  0.78220  0.30720  Biso   1.000  H
  H180     1.0000 0.29150  0.78220  0.19280  Biso   1.000  H
  H181     1.0000 0.79150  0.71780  0.69280  Biso   1.000  H
  H182     1.0000 0.20850  0.71780  0.80720  Biso   1.000  H
  H183     1.0000 0.29150  0.21780  0.69280  Biso   1.000  H
  H184     1.0000 0.70850  0.21780  0.80720  Biso   1.000  H
  C281     1.0000 0.24990  0.28080  0.27200  Biso   1.000  C
  C282     1.0000 0.75010  0.28080  0.22800  Biso   1.000  C
  C283     1.0000 0.74990  0.78080  0.27200  Biso   1.000  C
  C284     1.0000 0.25010  0.78080  0.22800  Biso   1.000  C
  C285     1.0000 0.75010  0.71920  0.72800  Biso   1.000  C
  C286     1.0000 0.24990  0.71920  0.77200  Biso   1.000  C
  C287     1.0000 0.25010  0.21920  0.72800  Biso   1.000  C
  C288     1.0000 0.74990  0.21920  0.77200  Biso   1.000  C
  H185     1.0000 0.23850  0.25300  0.26480  Biso   1.000  H
  H186     1.0000 0.76150  0.25300  0.23520  Biso   1.000  H
  H187     1.0000 0.73850  0.75300  0.26480  Biso   1.000  H
  H188     1.0000 0.26150  0.75300  0.23520  Biso   1.000  H
  H189     1.0000 0.76150  0.74700  0.73520  Biso   1.000  H
  H190     1.0000 0.23850  0.74700  0.76480  Biso   1.000  H
  H191     1.0000 0.26150  0.24700  0.73520  Biso   1.000  H
  H192     1.0000 0.73850  0.24700  0.76480  Biso   1.000  H
  O41      1.0000 0.90900  0.73060  0.22530  Biso   1.000  O
  O42      1.0000 0.09100  0.73060  0.27470  Biso   1.000  O
  O43      1.0000 0.40900  0.23060  0.22530  Biso   1.000  O
  O44      1.0000 0.59100  0.23060  0.27470  Biso   1.000  O
  O45      1.0000 0.09100  0.26940  0.77470  Biso   1.000  O
  O46      1.0000 0.90900  0.26940  0.72530  Biso   1.000  O
  O47      1.0000 0.59100  0.76940  0.77470  Biso   1.000  O
  O48      1.0000 0.40900  0.76940  0.72530  Biso   1.000  O
  C289     1.0000 0.13830  0.43990  0.42031  Biso   1.000  C
  C290     1.0000 0.86170  0.43990  0.07969  Biso   1.000  C
  C291     1.0000 0.63830  0.93990  0.42031  Biso   1.000  C
  C292     1.0000 0.36170  0.93990  0.07969  Biso   1.000  C
  C293     1.0000 0.86170  0.56010  0.57969  Biso   1.000  C
  C294     1.0000 0.13830  0.56010  0.92031  Biso   1.000  C
  C295     1.0000 0.36170  0.06010  0.57969  Biso   1.000  C
  C296     1.0000 0.63830  0.06010  0.92031  Biso   1.000  C
  C297     1.0000 0.18170  0.45830  0.41030  Biso   1.000  C
  C298     1.0000 0.81830  0.45830  0.08970  Biso   1.000  C
  C299     1.0000 0.68170  0.95830  0.41030  Biso   1.000  C
  C300     1.0000 0.31830  0.95830  0.08970  Biso   1.000  C
  C301     1.0000 0.81830  0.54170  0.58970  Biso   1.000  C
  C302     1.0000 0.18170  0.54170  0.91030  Biso   1.000  C
  C303     1.0000 0.31830  0.04170  0.58970  Biso   1.000  C
  C304     1.0000 0.68170  0.04170  0.91030  Biso   1.000  C
  H193     1.0000 0.19380  0.48580  0.41760  Biso   1.000  H
  H194     1.0000 0.80620  0.48580  0.08240  Biso   1.000  H
  H195     1.0000 0.69380  0.98580  0.41760  Biso   1.000  H
  H196     1.0000 0.30620  0.98580  0.08240  Biso   1.000  H
  H197     1.0000 0.80620  0.51420  0.58240  Biso   1.000  H
  H198     1.0000 0.19380  0.51420  0.91760  Biso   1.000  H
  H199     1.0000 0.30620  0.01420  0.58240  Biso   1.000  H
  H200     1.0000 0.69380  0.01420  0.91760  Biso   1.000  H
  C305     1.0000 0.20700  0.43570  0.38920  Biso   1.000  C
  C306     1.0000 0.79300  0.43570  0.11080  Biso   1.000  C
  C307     1.0000 0.70700  0.93570  0.38920  Biso   1.000  C
  C308     1.0000 0.29300  0.93570  0.11080  Biso   1.000  C
  C309     1.0000 0.79300  0.56430  0.61080  Biso   1.000  C
  C310     1.0000 0.20700  0.56430  0.88920  Biso   1.000  C
  C311     1.0000 0.29300  0.06430  0.61080  Biso   1.000  C
  C312     1.0000 0.70700  0.06430  0.88920  Biso   1.000  C
  H201     1.0000 0.23600  0.44800  0.38250  Biso   1.000  H
  H202     1.0000 0.76400  0.44800  0.11750  Biso   1.000  H
  H203     1.0000 0.73600  0.94800  0.38250  Biso   1.000  H
  H204     1.0000 0.26400  0.94800  0.11750  Biso   1.000  H
  H205     1.0000 0.76400  0.55200  0.61750  Biso   1.000  H
  H206     1.0000 0.23600  0.55200  0.88250  Biso   1.000  H
  H207     1.0000 0.26400  0.05200  0.61750  Biso   1.000  H
  H208     1.0000 0.73600  0.05200  0.88250  Biso   1.000  H
  C313     1.0000 0.18880  0.39460  0.37830  Biso   1.000  C
  C314     1.0000 0.81120  0.39460  0.12170  Biso   1.000  C
  C315     1.0000 0.68880  0.89460  0.37830  Biso   1.000  C
  C316     1.0000 0.31120  0.89460  0.12170  Biso   1.000  C
  C317     1.0000 0.81120  0.60540  0.62170  Biso   1.000  C
  C318     1.0000 0.18880  0.60540  0.87830  Biso   1.000  C
  C319     1.0000 0.31120  0.10540  0.62170  Biso   1.000  C
  C320     1.0000 0.68880  0.10540  0.87830  Biso   1.000  C
  C321     1.0000 0.14540  0.37620  0.38830  Biso   1.000  C
  C322     1.0000 0.85460  0.37620  0.11170  Biso   1.000  C
  C323     1.0000 0.64540  0.87620  0.38830  Biso   1.000  C
  C324     1.0000 0.35460  0.87620  0.11170  Biso   1.000  C
  C325     1.0000 0.85460  0.62380  0.61170  Biso   1.000  C
  C326     1.0000 0.14540  0.62380  0.88830  Biso   1.000  C
  C327     1.0000 0.35460  0.12380  0.61170  Biso   1.000  C
  C328     1.0000 0.64540  0.12380  0.88830  Biso   1.000  C
  H209     1.0000 0.13330  0.34870  0.38100  Biso   1.000  H
  H210     1.0000 0.86670  0.34870  0.11900  Biso   1.000  H
  H211     1.0000 0.63330  0.84870  0.38100  Biso   1.000  H
  H212     1.0000 0.36670  0.84870  0.11900  Biso   1.000  H
  H213     1.0000 0.86670  0.65130  0.61900  Biso   1.000  H
  H214     1.0000 0.13330  0.65130  0.88100  Biso   1.000  H
  H215     1.0000 0.36670  0.15130  0.61900  Biso   1.000  H
  H216     1.0000 0.63330  0.15130  0.88100  Biso   1.000  H
  C329     1.0000 0.12010  0.39890  0.40940  Biso   1.000  C
  C330     1.0000 0.87990  0.39890  0.09060  Biso   1.000  C
  C331     1.0000 0.62010  0.89890  0.40940  Biso   1.000  C
  C332     1.0000 0.37990  0.89890  0.09060  Biso   1.000  C
  C333     1.0000 0.87990  0.60110  0.59060  Biso   1.000  C
  C334     1.0000 0.12010  0.60110  0.90940  Biso   1.000  C
  C335     1.0000 0.37990  0.10110  0.59060  Biso   1.000  C
  C336     1.0000 0.62010  0.10110  0.90940  Biso   1.000  C
  H217     1.0000 0.09110  0.38650  0.41610  Biso   1.000  H
  H218     1.0000 0.90890  0.38650  0.08390  Biso   1.000  H
  H219     1.0000 0.59110  0.88650  0.41610  Biso   1.000  H
  H220     1.0000 0.40890  0.88650  0.08390  Biso   1.000  H
  H221     1.0000 0.90890  0.61350  0.58390  Biso   1.000  H
  H222     1.0000 0.09110  0.61350  0.91610  Biso   1.000  H
  H223     1.0000 0.40890  0.11350  0.58390  Biso   1.000  H
  H224     1.0000 0.59110  0.11350  0.91610  Biso   1.000  H
  O49      1.0000 0.28550  0.24830  0.21920  Biso   1.000  O
  O50      1.0000 0.71450  0.24830  0.28080  Biso   1.000  O
  O51      1.0000 0.78550  0.74830  0.21920  Biso   1.000  O
  O52      1.0000 0.21450  0.74830  0.28080  Biso   1.000  O
  O53      1.0000 0.71450  0.75170  0.78080  Biso   1.000  O
  O54      1.0000 0.28550  0.75170  0.71920  Biso   1.000  O
  O55      1.0000 0.21450  0.25170  0.78080  Biso   1.000  O
  O56      1.0000 0.78550  0.25170  0.71920  Biso   1.000  O
  C337     1.0000 0.07400  0.49440  0.41567  Biso   1.000  C
  C338     1.0000 0.92600  0.49440  0.08433  Biso   1.000  C
  C339     1.0000 0.57400  0.99440  0.41567  Biso   1.000  C
  C340     1.0000 0.42600  0.99440  0.08433  Biso   1.000  C
  C341     1.0000 0.92600  0.50560  0.58433  Biso   1.000  C
  C342     1.0000 0.07400  0.50560  0.91567  Biso   1.000  C
  C343     1.0000 0.42600  0.00560  0.58433  Biso   1.000  C
  C344     1.0000 0.57400  0.00560  0.91567  Biso   1.000  C
  C345     1.0000 0.09270  0.53470  0.40570  Biso   1.000  C
  C346     1.0000 0.90730  0.53470  0.09430  Biso   1.000  C
  C347     1.0000 0.59270  0.03470  0.40570  Biso   1.000  C
  C348     1.0000 0.40730  0.03470  0.09430  Biso   1.000  C
  C349     1.0000 0.90730  0.46530  0.59430  Biso   1.000  C
  C350     1.0000 0.09270  0.46530  0.90570  Biso   1.000  C
  C351     1.0000 0.40730  0.96530  0.59430  Biso   1.000  C
  C352     1.0000 0.59270  0.96530  0.90570  Biso   1.000  C
  H225     1.0000 0.12280  0.54650  0.41460  Biso   1.000  H
  H226     1.0000 0.87720  0.54650  0.08540  Biso   1.000  H
  H227     1.0000 0.62280  0.04650  0.41460  Biso   1.000  H
  H228     1.0000 0.37720  0.04650  0.08540  Biso   1.000  H
  H229     1.0000 0.87720  0.45350  0.58540  Biso   1.000  H
  H230     1.0000 0.12280  0.45350  0.91460  Biso   1.000  H
  H231     1.0000 0.37720  0.95350  0.58540  Biso   1.000  H
  H232     1.0000 0.62280  0.95350  0.91460  Biso   1.000  H
  C353     1.0000 0.06650  0.55740  0.38240  Biso   1.000  C
  C354     1.0000 0.93350  0.55740  0.11760  Biso   1.000  C
  C355     1.0000 0.56650  0.05740  0.38240  Biso   1.000  C
  C356     1.0000 0.43350  0.05740  0.11760  Biso   1.000  C
  C357     1.0000 0.93350  0.44260  0.61760  Biso   1.000  C
  C358     1.0000 0.06650  0.44260  0.88240  Biso   1.000  C
  C359     1.0000 0.43350  0.94260  0.61760  Biso   1.000  C
  C360     1.0000 0.56650  0.94260  0.88240  Biso   1.000  C
  H233     1.0000 0.07900  0.58440  0.37570  Biso   1.000  H
  H234     1.0000 0.92100  0.58440  0.12430  Biso   1.000  H
  H235     1.0000 0.57900  0.08440  0.37570  Biso   1.000  H
  H236     1.0000 0.42100  0.08440  0.12430  Biso   1.000  H
  H237     1.0000 0.92100  0.41560  0.62430  Biso   1.000  H
  H238     1.0000 0.07900  0.41560  0.87570  Biso   1.000  H
  H239     1.0000 0.42100  0.91560  0.62430  Biso   1.000  H
  H240     1.0000 0.57900  0.91560  0.87570  Biso   1.000  H
  C361     1.0000 0.02160  0.53980  0.36901  Biso   1.000  C
  C362     1.0000 0.97840  0.53980  0.13099  Biso   1.000  C
  C363     1.0000 0.52160  0.03980  0.36901  Biso   1.000  C
  C364     1.0000 0.47840  0.03980  0.13099  Biso   1.000  C
  C365     1.0000 0.97840  0.46020  0.63099  Biso   1.000  C
  C366     1.0000 0.02160  0.46020  0.86901  Biso   1.000  C
  C367     1.0000 0.47840  0.96020  0.63099  Biso   1.000  C
  C368     1.0000 0.52160  0.96020  0.86901  Biso   1.000  C
  C369     1.0000 0.00290  0.49950  0.37900  Biso   1.000  C
  C370     1.0000 0.99710  0.49950  0.12100  Biso   1.000  C
  C371     1.0000 0.50290  0.99950  0.37900  Biso   1.000  C
  C372     1.0000 0.49710  0.99950  0.12100  Biso   1.000  C
  C373     1.0000 0.99710  0.50050  0.62100  Biso   1.000  C
  C374     1.0000 0.00290  0.50050  0.87900  Biso   1.000  C
  C375     1.0000 0.49710  0.00050  0.62100  Biso   1.000  C
  C376     1.0000 0.50290  0.00050  0.87900  Biso   1.000  C
  H241     1.0000 0.97290  0.48780  0.37010  Biso   1.000  H
  H242     1.0000 0.02710  0.48780  0.12990  Biso   1.000  H
  H243     1.0000 0.47290  0.98780  0.37010  Biso   1.000  H
  H244     1.0000 0.52710  0.98780  0.12990  Biso   1.000  H
  H245     1.0000 0.02710  0.51220  0.62990  Biso   1.000  H
  H246     1.0000 0.97290  0.51220  0.87010  Biso   1.000  H
  H247     1.0000 0.52710  0.01220  0.62990  Biso   1.000  H
  H248     1.0000 0.47290  0.01220  0.87010  Biso   1.000  H
  C377     1.0000 0.02910  0.47690  0.40230  Biso   1.000  C
  C378     1.0000 0.97090  0.47690  0.09770  Biso   1.000  C
  C379     1.0000 0.52910  0.97690  0.40230  Biso   1.000  C
  C380     1.0000 0.47090  0.97690  0.09770  Biso   1.000  C
  C381     1.0000 0.97090  0.52310  0.59770  Biso   1.000  C
  C382     1.0000 0.02910  0.52310  0.90230  Biso   1.000  C
  C383     1.0000 0.47090  0.02310  0.59770  Biso   1.000  C
  C384     1.0000 0.52910  0.02310  0.90230  Biso   1.000  C
  H249     1.0000 0.01660  0.44990  0.40900  Biso   1.000  H
  H250     1.0000 0.98340  0.44990  0.09100  Biso   1.000  H
  H251     1.0000 0.51660  0.94990  0.40900  Biso   1.000  H
  H252     1.0000 0.48340  0.94990  0.09100  Biso   1.000  H
  H253     1.0000 0.98340  0.55010  0.59100  Biso   1.000  H
  H254     1.0000 0.01660  0.55010  0.90900  Biso   1.000  H
  H255     1.0000 0.48340  0.05010  0.59100  Biso   1.000  H
  H256     1.0000 0.51660  0.05010  0.90900  Biso   1.000  H
  C385     1.0000 0.10500  0.46860  0.43970  Biso   1.000  C
  C386     1.0000 0.89500  0.46860  0.06030  Biso   1.000  C
  C387     1.0000 0.60500  0.96860  0.43970  Biso   1.000  C
  C388     1.0000 0.39500  0.96860  0.06030  Biso   1.000  C
  C389     1.0000 0.89500  0.53140  0.56030  Biso   1.000  C
  C390     1.0000 0.10500  0.53140  0.93970  Biso   1.000  C
  C391     1.0000 0.39500  0.03140  0.56030  Biso   1.000  C
  C392     1.0000 0.60500  0.03140  0.93970  Biso   1.000  C
  C393     1.0000 0.31020  0.70410  0.65000  Biso   1.000  C
  C394     1.0000 0.68980  0.70410  0.85000  Biso   1.000  C
  C395     1.0000 0.81020  0.20410  0.65000  Biso   1.000  C
  C396     1.0000 0.18980  0.20410  0.85000  Biso   1.000  C
  C397     1.0000 0.68980  0.29590  0.35000  Biso   1.000  C
  C398     1.0000 0.31020  0.29590  0.15000  Biso   1.000  C
  C399     1.0000 0.18980  0.79590  0.35000  Biso   1.000  C
  C400     1.0000 0.81020  0.79590  0.15000  Biso   1.000  C
  C401     1.0000 0.88560  0.29510  0.65000  Biso   1.000  C
  C402     1.0000 0.11440  0.29510  0.85000  Biso   1.000  C
  C403     1.0000 0.38560  0.79510  0.65000  Biso   1.000  C
  C404     1.0000 0.61440  0.79510  0.85000  Biso   1.000  C
  C405     1.0000 0.11440  0.70490  0.35000  Biso   1.000  C
  C406     1.0000 0.88560  0.70490  0.15000  Biso   1.000  C
  C407     1.0000 0.61440  0.20490  0.35000  Biso   1.000  C
  C408     1.0000 0.38560  0.20490  0.15000  Biso   1.000  C
  C409     1.0000 0.88860  0.69270  0.22940  Biso   1.000  C
  C410     1.0000 0.11140  0.69270  0.27060  Biso   1.000  C
  C411     1.0000 0.38860  0.19270  0.22940  Biso   1.000  C
  C412     1.0000 0.61140  0.19270  0.27060  Biso   1.000  C
  C413     1.0000 0.11140  0.30730  0.77060  Biso   1.000  C
  C414     1.0000 0.88860  0.30730  0.72940  Biso   1.000  C
  C415     1.0000 0.61140  0.80730  0.77060  Biso   1.000  C
  C416     1.0000 0.38860  0.80730  0.72940  Biso   1.000  C
  C417     1.0000 0.30690  0.28400  0.23110  Biso   1.000  C
  C418     1.0000 0.69310  0.28400  0.26890  Biso   1.000  C
  C419     1.0000 0.80690  0.78400  0.23110  Biso   1.000  C
  C420     1.0000 0.19310  0.78400  0.26890  Biso   1.000  C
  C421     1.0000 0.69310  0.71600  0.76890  Biso   1.000  C
  C422     1.0000 0.30690  0.71600  0.73110  Biso   1.000  C
  C423     1.0000 0.19310  0.21600  0.76890  Biso   1.000  C
  C424     1.0000 0.80690  0.21600  0.73110  Biso   1.000  C
  C425     1.0000 0.20980  0.57720  0.53080  Biso   1.000  C
  C426     1.0000 0.79020  0.57720  0.96920  Biso   1.000  C
  C427     1.0000 0.70980  0.07720  0.53080  Biso   1.000  C
  C428     1.0000 0.29020  0.07720  0.96920  Biso   1.000  C
  C429     1.0000 0.79020  0.42280  0.46920  Biso   1.000  C
  C430     1.0000 0.20980  0.42280  0.03080  Biso   1.000  C
  C431     1.0000 0.29020  0.92280  0.46920  Biso   1.000  C
  C432     1.0000 0.70980  0.92280  0.03080  Biso   1.000  C
  C433     1.0000 0.22800  0.59700  0.55210  Biso   1.000  C
  C434     1.0000 0.77200  0.59700  0.94790  Biso   1.000  C
  C435     1.0000 0.72800  0.09700  0.55210  Biso   1.000  C
  C436     1.0000 0.27200  0.09700  0.94790  Biso   1.000  C
  C437     1.0000 0.77200  0.40300  0.44790  Biso   1.000  C
  C438     1.0000 0.22800  0.40300  0.05210  Biso   1.000  C
  C439     1.0000 0.27200  0.90300  0.44790  Biso   1.000  C
  C440     1.0000 0.72800  0.90300  0.05210  Biso   1.000  C
  C441     1.0000 0.99600  0.38170  0.52780  Biso   1.000  C
  C442     1.0000 0.00400  0.38170  0.97220  Biso   1.000  C
  C443     1.0000 0.49600  0.88170  0.52780  Biso   1.000  C
  C444     1.0000 0.50400  0.88170  0.97220  Biso   1.000  C
  C445     1.0000 0.00400  0.61830  0.47220  Biso   1.000  C
  C446     1.0000 0.99600  0.61830  0.02780  Biso   1.000  C
  C447     1.0000 0.50400  0.11830  0.47220  Biso   1.000  C
  C448     1.0000 0.49600  0.11830  0.02780  Biso   1.000  C
  C449     1.0000 0.97660  0.36610  0.54920  Biso   1.000  C
  C450     1.0000 0.02340  0.36610  0.95080  Biso   1.000  C
  C451     1.0000 0.47660  0.86610  0.54920  Biso   1.000  C
  C452     1.0000 0.52340  0.86610  0.95080  Biso   1.000  C
  C453     1.0000 0.02340  0.63390  0.45080  Biso   1.000  C
  C454     1.0000 0.97660  0.63390  0.04920  Biso   1.000  C
  C455     1.0000 0.52340  0.13390  0.45080  Biso   1.000  C
  C456     1.0000 0.47660  0.13390  0.04920  Biso   1.000  C
  C457     1.0000 0.23250  0.35480  0.33560  Biso   1.000  C
  C458     1.0000 0.76750  0.35480  0.16440  Biso   1.000  C
  C459     1.0000 0.73250  0.85480  0.33560  Biso   1.000  C
  C460     1.0000 0.26750  0.85480  0.16440  Biso   1.000  C
  C461     1.0000 0.76750  0.64520  0.66440  Biso   1.000  C
  C462     1.0000 0.23250  0.64520  0.83560  Biso   1.000  C
  C463     1.0000 0.26750  0.14520  0.66440  Biso   1.000  C
  C464     1.0000 0.73250  0.14520  0.83560  Biso   1.000  C
  C465     1.0000 0.20900  0.37530  0.35310  Biso   1.000  C
  C466     1.0000 0.79100  0.37530  0.14690  Biso   1.000  C
  C467     1.0000 0.70900  0.87530  0.35310  Biso   1.000  C
  C468     1.0000 0.29100  0.87530  0.14690  Biso   1.000  C
  C469     1.0000 0.79100  0.62470  0.64690  Biso   1.000  C
  C470     1.0000 0.20900  0.62470  0.85310  Biso   1.000  C
  C471     1.0000 0.29100  0.12470  0.64690  Biso   1.000  C
  C472     1.0000 0.70900  0.12470  0.85310  Biso   1.000  C
  C473     1.0000 0.99260  0.56220  0.34450  Biso   1.000  C
  C474     1.0000 0.00740  0.56220  0.15550  Biso   1.000  C
  C475     1.0000 0.49260  0.06220  0.34450  Biso   1.000  C
  C476     1.0000 0.50740  0.06220  0.15550  Biso   1.000  C
  C477     1.0000 0.00740  0.43780  0.65550  Biso   1.000  C
  C478     1.0000 0.99260  0.43780  0.84450  Biso   1.000  C
  C479     1.0000 0.50740  0.93780  0.65550  Biso   1.000  C
  C480     1.0000 0.49260  0.93780  0.84450  Biso   1.000  C
  C481     1.0000 0.97360  0.58520  0.32460  Biso   1.000  C
  C482     1.0000 0.02640  0.58520  0.17540  Biso   1.000  C
  C483     1.0000 0.47360  0.08520  0.32460  Biso   1.000  C
  C484     1.0000 0.52640  0.08520  0.17540  Biso   1.000  C
  C485     1.0000 0.02640  0.41480  0.67540  Biso   1.000  C
  C486     1.0000 0.97360  0.41480  0.82460  Biso   1.000  C
  C487     1.0000 0.52640  0.91480  0.67540  Biso   1.000  C
  C488     1.0000 0.47360  0.91480  0.82460  Biso   1.000  C
  O57      1.0000 0.34610  0.30310  0.22210  Biso   1.000  O
  O58      1.0000 0.65390  0.30310  0.27790  Biso   1.000  O
  O59      1.0000 0.84610  0.80310  0.22210  Biso   1.000  O
  O60      1.0000 0.15390  0.80310  0.27790  Biso   1.000  O
  O61      1.0000 0.65390  0.69690  0.77790  Biso   1.000  O
  O62      1.0000 0.34610  0.69690  0.72210  Biso   1.000  O
  O63      1.0000 0.15390  0.19690  0.77790  Biso   1.000  O
  O64      1.0000 0.84610  0.19690  0.72210  Biso   1.000  O
  O65      1.0000 0.45920  0.68840  0.69975  Biso   1.000  O
  O66      1.0000 0.54080  0.68840  0.80025  Biso   1.000  O
  O67      1.0000 0.95920  0.18840  0.69975  Biso   1.000  O
  O68      1.0000 0.04080  0.18840  0.80025  Biso   1.000  O
  O69      1.0000 0.54080  0.31160  0.30025  Biso   1.000  O
  O70      1.0000 0.45920  0.31160  0.19975  Biso   1.000  O
  O71      1.0000 0.04080  0.81160  0.30025  Biso   1.000  O
  O72      1.0000 0.95920  0.81160  0.19975  Biso   1.000  O
  O73      1.0000 0.24730  0.82880  0.67860  Biso   1.000  O
  O74      1.0000 0.75270  0.82880  0.82140  Biso   1.000  O
  O75      1.0000 0.74730  0.32880  0.67860  Biso   1.000  O
  O76      1.0000 0.25270  0.32880  0.82140  Biso   1.000  O
  O77      1.0000 0.75270  0.17120  0.32140  Biso   1.000  O
  O78      1.0000 0.24730  0.17120  0.17860  Biso   1.000  O
  O79      1.0000 0.25270  0.67120  0.32140  Biso   1.000  O
  O80      1.0000 0.74730  0.67120  0.17860  Biso   1.000  O
