data_image0
_cell_length_a       46.542
_cell_length_b       46.542
_cell_length_c       46.542
_cell_angle_alpha    90
_cell_angle_beta     90
_cell_angle_gamma    90

_symmetry_space_group_name_H-M    "P 1"
_symmetry_int_tables_number       1

loop_
  _symmetry_equiv_pos_as_xyz
  'x, y, z'

loop_
  _atom_site_label
  _atom_site_occupancy
  _atom_site_fract_x
  _atom_site_fract_y
  _atom_site_fract_z
  _atom_site_thermal_displace_type
  _atom_site_B_iso_or_equiv
  _atom_site_type_symbol
  Cu1      1.0000 0.11792  0.00000  0.11792  Biso   1.000  Cu
  Cu2      1.0000 0.88208  0.00000  0.11792  Biso   1.000  Cu
  Cu3      1.0000 0.88208  0.00000  0.88208  Biso   1.000  Cu
  Cu4      1.0000 0.11792  0.00000  0.88208  Biso   1.000  Cu
  Cu5      1.0000 0.11792  0.11792  0.00000  Biso   1.000  Cu
  Cu6      1.0000 0.11792  0.88208  0.00000  Biso   1.000  Cu
  Cu7      1.0000 0.88208  0.88208  0.00000  Biso   1.000  Cu
  Cu8      1.0000 0.88208  0.11792  0.00000  Biso   1.000  Cu
  Cu9      1.0000 0.00000  0.11792  0.11792  Biso   1.000  Cu
  Cu10     1.0000 0.00000  0.11792  0.88208  Biso   1.000  Cu
  Cu11     1.0000 0.00000  0.88208  0.88208  Biso   1.000  Cu
  Cu12     1.0000 0.00000  0.88208  0.11792  Biso   1.000  Cu
  Cu13     1.0000 0.61792  0.50000  0.11792  Biso   1.000  Cu
  Cu14     1.0000 0.38208  0.50000  0.11792  Biso   1.000  Cu
  Cu15     1.0000 0.38208  0.50000  0.88208  Biso   1.000  Cu
  Cu16     1.0000 0.61792  0.50000  0.88208  Biso   1.000  Cu
  Cu17     1.0000 0.61792  0.61792  0.00000  Biso   1.000  Cu
  Cu18     1.0000 0.61792  0.38208  0.00000  Biso   1.000  Cu
  Cu19     1.0000 0.38208  0.38208  0.00000  Biso   1.000  Cu
  Cu20     1.0000 0.38208  0.61792  0.00000  Biso   1.000  Cu
  Cu21     1.0000 0.50000  0.61792  0.11792  Biso   1.000  Cu
  Cu22     1.0000 0.50000  0.61792  0.88208  Biso   1.000  Cu
  Cu23     1.0000 0.50000  0.38208  0.88208  Biso   1.000  Cu
  Cu24     1.0000 0.50000  0.38208  0.11792  Biso   1.000  Cu
  Cu25     1.0000 0.61792  0.00000  0.61792  Biso   1.000  Cu
  Cu26     1.0000 0.38208  0.00000  0.61792  Biso   1.000  Cu
  Cu27     1.0000 0.38208  0.00000  0.38208  Biso   1.000  Cu
  Cu28     1.0000 0.61792  0.00000  0.38208  Biso   1.000  Cu
  Cu29     1.0000 0.61792  0.11792  0.50000  Biso   1.000  Cu
  Cu30     1.0000 0.61792  0.88208  0.50000  Biso   1.000  Cu
  Cu31     1.0000 0.38208  0.88208  0.50000  Biso   1.000  Cu
  Cu32     1.0000 0.38208  0.11792  0.50000  Biso   1.000  Cu
  Cu33     1.0000 0.50000  0.11792  0.61792  Biso   1.000  Cu
  Cu34     1.0000 0.50000  0.11792  0.38208  Biso   1.000  Cu
  Cu35     1.0000 0.50000  0.88208  0.38208  Biso   1.000  Cu
  Cu36     1.0000 0.50000  0.88208  0.61792  Biso   1.000  Cu
  Cu37     1.0000 0.11792  0.50000  0.61792  Biso   1.000  Cu
  Cu38     1.0000 0.88208  0.50000  0.61792  Biso   1.000  Cu
  Cu39     1.0000 0.88208  0.50000  0.38208  Biso   1.000  Cu
  Cu40     1.0000 0.11792  0.50000  0.38208  Biso   1.000  Cu
  Cu41     1.0000 0.11792  0.61792  0.50000  Biso   1.000  Cu
  Cu42     1.0000 0.11792  0.38208  0.50000  Biso   1.000  Cu
  Cu43     1.0000 0.88208  0.38208  0.50000  Biso   1.000  Cu
  Cu44     1.0000 0.88208  0.61792  0.50000  Biso   1.000  Cu
  Cu45     1.0000 0.00000  0.61792  0.61792  Biso   1.000  Cu
  Cu46     1.0000 0.00000  0.61792  0.38208  Biso   1.000  Cu
  Cu47     1.0000 0.00000  0.38208  0.38208  Biso   1.000  Cu
  Cu48     1.0000 0.00000  0.38208  0.61792  Biso   1.000  Cu
  Cu49     1.0000 0.15639  0.00000  0.15639  Biso   1.000  Cu
  Cu50     1.0000 0.84361  0.00000  0.15639  Biso   1.000  Cu
  Cu51     1.0000 0.84361  0.00000  0.84361  Biso   1.000  Cu
  Cu52     1.0000 0.15639  0.00000  0.84361  Biso   1.000  Cu
  Cu53     1.0000 0.15639  0.15639  0.00000  Biso   1.000  Cu
  Cu54     1.0000 0.15639  0.84361  0.00000  Biso   1.000  Cu
  Cu55     1.0000 0.84361  0.84361  0.00000  Biso   1.000  Cu
  Cu56     1.0000 0.84361  0.15639  0.00000  Biso   1.000  Cu
  Cu57     1.0000 0.00000  0.15639  0.15639  Biso   1.000  Cu
  Cu58     1.0000 0.00000  0.15639  0.84361  Biso   1.000  Cu
  Cu59     1.0000 0.00000  0.84361  0.84361  Biso   1.000  Cu
  Cu60     1.0000 0.00000  0.84361  0.15639  Biso   1.000  Cu
  Cu61     1.0000 0.65639  0.50000  0.15639  Biso   1.000  Cu
  Cu62     1.0000 0.34361  0.50000  0.15639  Biso   1.000  Cu
  Cu63     1.0000 0.34361  0.50000  0.84361  Biso   1.000  Cu
  Cu64     1.0000 0.65639  0.50000  0.84361  Biso   1.000  Cu
  Cu65     1.0000 0.65639  0.65639  0.00000  Biso   1.000  Cu
  Cu66     1.0000 0.65639  0.34361  0.00000  Biso   1.000  Cu
  Cu67     1.0000 0.34361  0.34361  0.00000  Biso   1.000  Cu
  Cu68     1.0000 0.34361  0.65639  0.00000  Biso   1.000  Cu
  Cu69     1.0000 0.50000  0.65639  0.15639  Biso   1.000  Cu
  Cu70     1.0000 0.50000  0.65639  0.84361  Biso   1.000  Cu
  Cu71     1.0000 0.50000  0.34361  0.84361  Biso   1.000  Cu
  Cu72     1.0000 0.50000  0.34361  0.15639  Biso   1.000  Cu
  Cu73     1.0000 0.65639  0.00000  0.65639  Biso   1.000  Cu
  Cu74     1.0000 0.34361  0.00000  0.65639  Biso   1.000  Cu
  Cu75     1.0000 0.34361  0.00000  0.34361  Biso   1.000  Cu
  Cu76     1.0000 0.65639  0.00000  0.34361  Biso   1.000  Cu
  Cu77     1.0000 0.65639  0.15639  0.50000  Biso   1.000  Cu
  Cu78     1.0000 0.65639  0.84361  0.50000  Biso   1.000  Cu
  Cu79     1.0000 0.34361  0.84361  0.50000  Biso   1.000  Cu
  Cu80     1.0000 0.34361  0.15639  0.50000  Biso   1.000  Cu
  Cu81     1.0000 0.50000  0.15639  0.65639  Biso   1.000  Cu
  Cu82     1.0000 0.50000  0.15639  0.34361  Biso   1.000  Cu
  Cu83     1.0000 0.50000  0.84361  0.34361  Biso   1.000  Cu
  Cu84     1.0000 0.50000  0.84361  0.65639  Biso   1.000  Cu
  Cu85     1.0000 0.15639  0.50000  0.65639  Biso   1.000  Cu
  Cu86     1.0000 0.84361  0.50000  0.65639  Biso   1.000  Cu
  Cu87     1.0000 0.84361  0.50000  0.34361  Biso   1.000  Cu
  Cu88     1.0000 0.15639  0.50000  0.34361  Biso   1.000  Cu
  Cu89     1.0000 0.15639  0.65639  0.50000  Biso   1.000  Cu
  Cu90     1.0000 0.15639  0.34361  0.50000  Biso   1.000  Cu
  Cu91     1.0000 0.84361  0.34361  0.50000  Biso   1.000  Cu
  Cu92     1.0000 0.84361  0.65639  0.50000  Biso   1.000  Cu
  Cu93     1.0000 0.00000  0.65639  0.65639  Biso   1.000  Cu
  Cu94     1.0000 0.00000  0.65639  0.34361  Biso   1.000  Cu
  Cu95     1.0000 0.00000  0.34361  0.34361  Biso   1.000  Cu
  Cu96     1.0000 0.00000  0.34361  0.65639  Biso   1.000  Cu
  C1       1.0000 0.11001  0.03194  0.16314  Biso   1.000  C
  C2       1.0000 0.88999  0.96806  0.16314  Biso   1.000  C
  C3       1.0000 0.88999  0.03194  0.83686  Biso   1.000  C
  C4       1.0000 0.11001  0.96806  0.83686  Biso   1.000  C
  C5       1.0000 0.16314  0.11001  0.03194  Biso   1.000  C
  C6       1.0000 0.16314  0.88999  0.96806  Biso   1.000  C
  C7       1.0000 0.83686  0.88999  0.03194  Biso   1.000  C
  C8       1.0000 0.83686  0.11001  0.96806  Biso   1.000  C
  C9       1.0000 0.03194  0.16314  0.11001  Biso   1.000  C
  C10      1.0000 0.96806  0.16314  0.88999  Biso   1.000  C
  C11      1.0000 0.03194  0.83686  0.88999  Biso   1.000  C
  C12      1.0000 0.96806  0.83686  0.11001  Biso   1.000  C
  C13      1.0000 0.03194  0.11001  0.83686  Biso   1.000  C
  C14      1.0000 0.96806  0.88999  0.83686  Biso   1.000  C
  C15      1.0000 0.03194  0.88999  0.16314  Biso   1.000  C
  C16      1.0000 0.96806  0.11001  0.16314  Biso   1.000  C
  C17      1.0000 0.11001  0.16314  0.96806  Biso   1.000  C
  C18      1.0000 0.88999  0.16314  0.03194  Biso   1.000  C
  C19      1.0000 0.88999  0.83686  0.96806  Biso   1.000  C
  C20      1.0000 0.11001  0.83686  0.03194  Biso   1.000  C
  C21      1.0000 0.16314  0.03194  0.88999  Biso   1.000  C
  C22      1.0000 0.16314  0.96806  0.11001  Biso   1.000  C
  C23      1.0000 0.83686  0.03194  0.11001  Biso   1.000  C
  C24      1.0000 0.83686  0.96806  0.88999  Biso   1.000  C
  C25      1.0000 0.61001  0.53194  0.16314  Biso   1.000  C
  C26      1.0000 0.38999  0.46806  0.16314  Biso   1.000  C
  C27      1.0000 0.38999  0.53194  0.83686  Biso   1.000  C
  C28      1.0000 0.61001  0.46806  0.83686  Biso   1.000  C
  C29      1.0000 0.66314  0.61001  0.03194  Biso   1.000  C
  C30      1.0000 0.66314  0.38999  0.96806  Biso   1.000  C
  C31      1.0000 0.33686  0.38999  0.03194  Biso   1.000  C
  C32      1.0000 0.33686  0.61001  0.96806  Biso   1.000  C
  C33      1.0000 0.53194  0.66314  0.11001  Biso   1.000  C
  C34      1.0000 0.46806  0.66314  0.88999  Biso   1.000  C
  C35      1.0000 0.53194  0.33686  0.88999  Biso   1.000  C
  C36      1.0000 0.46806  0.33686  0.11001  Biso   1.000  C
  C37      1.0000 0.53194  0.61001  0.83686  Biso   1.000  C
  C38      1.0000 0.46806  0.38999  0.83686  Biso   1.000  C
  C39      1.0000 0.53194  0.38999  0.16314  Biso   1.000  C
  C40      1.0000 0.46806  0.61001  0.16314  Biso   1.000  C
  C41      1.0000 0.61001  0.66314  0.96806  Biso   1.000  C
  C42      1.0000 0.38999  0.66314  0.03194  Biso   1.000  C
  C43      1.0000 0.38999  0.33686  0.96806  Biso   1.000  C
  C44      1.0000 0.61001  0.33686  0.03194  Biso   1.000  C
  C45      1.0000 0.66314  0.53194  0.88999  Biso   1.000  C
  C46      1.0000 0.66314  0.46806  0.11001  Biso   1.000  C
  C47      1.0000 0.33686  0.53194  0.11001  Biso   1.000  C
  C48      1.0000 0.33686  0.46806  0.88999  Biso   1.000  C
  C49      1.0000 0.61001  0.03194  0.66314  Biso   1.000  C
  C50      1.0000 0.38999  0.96806  0.66314  Biso   1.000  C
  C51      1.0000 0.38999  0.03194  0.33686  Biso   1.000  C
  C52      1.0000 0.61001  0.96806  0.33686  Biso   1.000  C
  C53      1.0000 0.66314  0.11001  0.53194  Biso   1.000  C
  C54      1.0000 0.66314  0.88999  0.46806  Biso   1.000  C
  C55      1.0000 0.33686  0.88999  0.53194  Biso   1.000  C
  C56      1.0000 0.33686  0.11001  0.46806  Biso   1.000  C
  C57      1.0000 0.53194  0.16314  0.61001  Biso   1.000  C
  C58      1.0000 0.46806  0.16314  0.38999  Biso   1.000  C
  C59      1.0000 0.53194  0.83686  0.38999  Biso   1.000  C
  C60      1.0000 0.46806  0.83686  0.61001  Biso   1.000  C
  C61      1.0000 0.53194  0.11001  0.33686  Biso   1.000  C
  C62      1.0000 0.46806  0.88999  0.33686  Biso   1.000  C
  C63      1.0000 0.53194  0.88999  0.66314  Biso   1.000  C
  C64      1.0000 0.46806  0.11001  0.66314  Biso   1.000  C
  C65      1.0000 0.61001  0.16314  0.46806  Biso   1.000  C
  C66      1.0000 0.38999  0.16314  0.53194  Biso   1.000  C
  C67      1.0000 0.38999  0.83686  0.46806  Biso   1.000  C
  C68      1.0000 0.61001  0.83686  0.53194  Biso   1.000  C
  C69      1.0000 0.66314  0.03194  0.38999  Biso   1.000  C
  C70      1.0000 0.66314  0.96806  0.61001  Biso   1.000  C
  C71      1.0000 0.33686  0.03194  0.61001  Biso   1.000  C
  C72      1.0000 0.33686  0.96806  0.38999  Biso   1.000  C
  C73      1.0000 0.11001  0.53194  0.66314  Biso   1.000  C
  C74      1.0000 0.88999  0.46806  0.66314  Biso   1.000  C
  C75      1.0000 0.88999  0.53194  0.33686  Biso   1.000  C
  C76      1.0000 0.11001  0.46806  0.33686  Biso   1.000  C
  C77      1.0000 0.16314  0.61001  0.53194  Biso   1.000  C
  C78      1.0000 0.16314  0.38999  0.46806  Biso   1.000  C
  C79      1.0000 0.83686  0.38999  0.53194  Biso   1.000  C
  C80      1.0000 0.83686  0.61001  0.46806  Biso   1.000  C
  C81      1.0000 0.03194  0.66314  0.61001  Biso   1.000  C
  C82      1.0000 0.96806  0.66314  0.38999  Biso   1.000  C
  C83      1.0000 0.03194  0.33686  0.38999  Biso   1.000  C
  C84      1.0000 0.96806  0.33686  0.61001  Biso   1.000  C
  C85      1.0000 0.03194  0.61001  0.33686  Biso   1.000  C
  C86      1.0000 0.96806  0.38999  0.33686  Biso   1.000  C
  C87      1.0000 0.03194  0.38999  0.66314  Biso   1.000  C
  C88      1.0000 0.96806  0.61001  0.66314  Biso   1.000  C
  C89      1.0000 0.11001  0.66314  0.46806  Biso   1.000  C
  C90      1.0000 0.88999  0.66314  0.53194  Biso   1.000  C
  C91      1.0000 0.88999  0.33686  0.46806  Biso   1.000  C
  C92      1.0000 0.11001  0.33686  0.53194  Biso   1.000  C
  C93      1.0000 0.16314  0.53194  0.38999  Biso   1.000  C
  C94      1.0000 0.16314  0.46806  0.61001  Biso   1.000  C
  C95      1.0000 0.83686  0.53194  0.61001  Biso   1.000  C
  C96      1.0000 0.83686  0.46806  0.38999  Biso   1.000  C
  C97      1.0000 0.88999  0.96806  0.83686  Biso   1.000  C
  C98      1.0000 0.11001  0.03194  0.83686  Biso   1.000  C
  C99      1.0000 0.11001  0.96806  0.16314  Biso   1.000  C
  C100     1.0000 0.88999  0.03194  0.16314  Biso   1.000  C
  C101     1.0000 0.83686  0.88999  0.96806  Biso   1.000  C
  C102     1.0000 0.83686  0.11001  0.03194  Biso   1.000  C
  C103     1.0000 0.16314  0.11001  0.96806  Biso   1.000  C
  C104     1.0000 0.16314  0.88999  0.03194  Biso   1.000  C
  C105     1.0000 0.96806  0.83686  0.88999  Biso   1.000  C
  C106     1.0000 0.03194  0.83686  0.11001  Biso   1.000  C
  C107     1.0000 0.96806  0.16314  0.11001  Biso   1.000  C
  C108     1.0000 0.03194  0.16314  0.88999  Biso   1.000  C
  C109     1.0000 0.96806  0.88999  0.16314  Biso   1.000  C
  C110     1.0000 0.03194  0.11001  0.16314  Biso   1.000  C
  C111     1.0000 0.96806  0.11001  0.83686  Biso   1.000  C
  C112     1.0000 0.03194  0.88999  0.83686  Biso   1.000  C
  C113     1.0000 0.88999  0.83686  0.03194  Biso   1.000  C
  C114     1.0000 0.11001  0.83686  0.96806  Biso   1.000  C
  C115     1.0000 0.11001  0.16314  0.03194  Biso   1.000  C
  C116     1.0000 0.88999  0.16314  0.96806  Biso   1.000  C
  C117     1.0000 0.83686  0.96806  0.11001  Biso   1.000  C
  C118     1.0000 0.83686  0.03194  0.88999  Biso   1.000  C
  C119     1.0000 0.16314  0.96806  0.88999  Biso   1.000  C
  C120     1.0000 0.16314  0.03194  0.11001  Biso   1.000  C
  C121     1.0000 0.38999  0.46806  0.83686  Biso   1.000  C
  C122     1.0000 0.61001  0.53194  0.83686  Biso   1.000  C
  C123     1.0000 0.61001  0.46806  0.16314  Biso   1.000  C
  C124     1.0000 0.38999  0.53194  0.16314  Biso   1.000  C
  C125     1.0000 0.33686  0.38999  0.96806  Biso   1.000  C
  C126     1.0000 0.33686  0.61001  0.03194  Biso   1.000  C
  C127     1.0000 0.66314  0.61001  0.96806  Biso   1.000  C
  C128     1.0000 0.66314  0.38999  0.03194  Biso   1.000  C
  C129     1.0000 0.46806  0.33686  0.88999  Biso   1.000  C
  C130     1.0000 0.53194  0.33686  0.11001  Biso   1.000  C
  C131     1.0000 0.46806  0.66314  0.11001  Biso   1.000  C
  C132     1.0000 0.53194  0.66314  0.88999  Biso   1.000  C
  C133     1.0000 0.46806  0.38999  0.16314  Biso   1.000  C
  C134     1.0000 0.53194  0.61001  0.16314  Biso   1.000  C
  C135     1.0000 0.46806  0.61001  0.83686  Biso   1.000  C
  C136     1.0000 0.53194  0.38999  0.83686  Biso   1.000  C
  C137     1.0000 0.38999  0.33686  0.03194  Biso   1.000  C
  C138     1.0000 0.61001  0.33686  0.96806  Biso   1.000  C
  C139     1.0000 0.61001  0.66314  0.03194  Biso   1.000  C
  C140     1.0000 0.38999  0.66314  0.96806  Biso   1.000  C
  C141     1.0000 0.33686  0.46806  0.11001  Biso   1.000  C
  C142     1.0000 0.33686  0.53194  0.88999  Biso   1.000  C
  C143     1.0000 0.66314  0.46806  0.88999  Biso   1.000  C
  C144     1.0000 0.66314  0.53194  0.11001  Biso   1.000  C
  C145     1.0000 0.38999  0.96806  0.33686  Biso   1.000  C
  C146     1.0000 0.61001  0.03194  0.33686  Biso   1.000  C
  C147     1.0000 0.61001  0.96806  0.66314  Biso   1.000  C
  C148     1.0000 0.38999  0.03194  0.66314  Biso   1.000  C
  C149     1.0000 0.33686  0.88999  0.46806  Biso   1.000  C
  C150     1.0000 0.33686  0.11001  0.53194  Biso   1.000  C
  C151     1.0000 0.66314  0.11001  0.46806  Biso   1.000  C
  C152     1.0000 0.66314  0.88999  0.53194  Biso   1.000  C
  C153     1.0000 0.46806  0.83686  0.38999  Biso   1.000  C
  C154     1.0000 0.53194  0.83686  0.61001  Biso   1.000  C
  C155     1.0000 0.46806  0.16314  0.61001  Biso   1.000  C
  C156     1.0000 0.53194  0.16314  0.38999  Biso   1.000  C
  C157     1.0000 0.46806  0.88999  0.66314  Biso   1.000  C
  C158     1.0000 0.53194  0.11001  0.66314  Biso   1.000  C
  C159     1.0000 0.46806  0.11001  0.33686  Biso   1.000  C
  C160     1.0000 0.53194  0.88999  0.33686  Biso   1.000  C
  C161     1.0000 0.38999  0.83686  0.53194  Biso   1.000  C
  C162     1.0000 0.61001  0.83686  0.46806  Biso   1.000  C
  C163     1.0000 0.61001  0.16314  0.53194  Biso   1.000  C
  C164     1.0000 0.38999  0.16314  0.46806  Biso   1.000  C
  C165     1.0000 0.33686  0.96806  0.61001  Biso   1.000  C
  C166     1.0000 0.33686  0.03194  0.38999  Biso   1.000  C
  C167     1.0000 0.66314  0.96806  0.38999  Biso   1.000  C
  C168     1.0000 0.66314  0.03194  0.61001  Biso   1.000  C
  C169     1.0000 0.88999  0.46806  0.33686  Biso   1.000  C
  C170     1.0000 0.11001  0.53194  0.33686  Biso   1.000  C
  C171     1.0000 0.11001  0.46806  0.66314  Biso   1.000  C
  C172     1.0000 0.88999  0.53194  0.66314  Biso   1.000  C
  C173     1.0000 0.83686  0.38999  0.46806  Biso   1.000  C
  C174     1.0000 0.83686  0.61001  0.53194  Biso   1.000  C
  C175     1.0000 0.16314  0.61001  0.46806  Biso   1.000  C
  C176     1.0000 0.16314  0.38999  0.53194  Biso   1.000  C
  C177     1.0000 0.96806  0.33686  0.38999  Biso   1.000  C
  C178     1.0000 0.03194  0.33686  0.61001  Biso   1.000  C
  C179     1.0000 0.96806  0.66314  0.61001  Biso   1.000  C
  C180     1.0000 0.03194  0.66314  0.38999  Biso   1.000  C
  C181     1.0000 0.96806  0.38999  0.66314  Biso   1.000  C
  C182     1.0000 0.03194  0.61001  0.66314  Biso   1.000  C
  C183     1.0000 0.96806  0.61001  0.33686  Biso   1.000  C
  C184     1.0000 0.03194  0.38999  0.33686  Biso   1.000  C
  C185     1.0000 0.88999  0.33686  0.53194  Biso   1.000  C
  C186     1.0000 0.11001  0.33686  0.46806  Biso   1.000  C
  C187     1.0000 0.11001  0.66314  0.53194  Biso   1.000  C
  C188     1.0000 0.88999  0.66314  0.46806  Biso   1.000  C
  C189     1.0000 0.83686  0.46806  0.61001  Biso   1.000  C
  C190     1.0000 0.83686  0.53194  0.38999  Biso   1.000  C
  C191     1.0000 0.16314  0.46806  0.38999  Biso   1.000  C
  C192     1.0000 0.16314  0.53194  0.61001  Biso   1.000  C
  C193     1.0000 0.07112  0.07112  0.16199  Biso   1.000  C
  C194     1.0000 0.92888  0.92888  0.16199  Biso   1.000  C
  C195     1.0000 0.92888  0.07112  0.83801  Biso   1.000  C
  C196     1.0000 0.07112  0.92888  0.83801  Biso   1.000  C
  C197     1.0000 0.16199  0.07112  0.07112  Biso   1.000  C
  C198     1.0000 0.16199  0.92888  0.92888  Biso   1.000  C
  C199     1.0000 0.83801  0.92888  0.07112  Biso   1.000  C
  C200     1.0000 0.83801  0.07112  0.92888  Biso   1.000  C
  C201     1.0000 0.07112  0.16199  0.07112  Biso   1.000  C
  C202     1.0000 0.92888  0.16199  0.92888  Biso   1.000  C
  C203     1.0000 0.07112  0.83801  0.92888  Biso   1.000  C
  C204     1.0000 0.92888  0.83801  0.07112  Biso   1.000  C
  C205     1.0000 0.07112  0.07112  0.83801  Biso   1.000  C
  C206     1.0000 0.92888  0.92888  0.83801  Biso   1.000  C
  C207     1.0000 0.07112  0.92888  0.16199  Biso   1.000  C
  C208     1.0000 0.92888  0.07112  0.16199  Biso   1.000  C
  C209     1.0000 0.07112  0.16199  0.92888  Biso   1.000  C
  C210     1.0000 0.92888  0.16199  0.07112  Biso   1.000  C
  C211     1.0000 0.92888  0.83801  0.92888  Biso   1.000  C
  C212     1.0000 0.07112  0.83801  0.07112  Biso   1.000  C
  C213     1.0000 0.16199  0.07112  0.92888  Biso   1.000  C
  C214     1.0000 0.16199  0.92888  0.07112  Biso   1.000  C
  C215     1.0000 0.83801  0.07112  0.07112  Biso   1.000  C
  C216     1.0000 0.83801  0.92888  0.92888  Biso   1.000  C
  C217     1.0000 0.57112  0.57112  0.16199  Biso   1.000  C
  C218     1.0000 0.42888  0.42888  0.16199  Biso   1.000  C
  C219     1.0000 0.42888  0.57112  0.83801  Biso   1.000  C
  C220     1.0000 0.57112  0.42888  0.83801  Biso   1.000  C
  C221     1.0000 0.66199  0.57112  0.07112  Biso   1.000  C
  C222     1.0000 0.66199  0.42888  0.92888  Biso   1.000  C
  C223     1.0000 0.33801  0.42888  0.07112  Biso   1.000  C
  C224     1.0000 0.33801  0.57112  0.92888  Biso   1.000  C
  C225     1.0000 0.57112  0.66199  0.07112  Biso   1.000  C
  C226     1.0000 0.42888  0.66199  0.92888  Biso   1.000  C
  C227     1.0000 0.57112  0.33801  0.92888  Biso   1.000  C
  C228     1.0000 0.42888  0.33801  0.07112  Biso   1.000  C
  C229     1.0000 0.57112  0.57112  0.83801  Biso   1.000  C
  C230     1.0000 0.42888  0.42888  0.83801  Biso   1.000  C
  C231     1.0000 0.57112  0.42888  0.16199  Biso   1.000  C
  C232     1.0000 0.42888  0.57112  0.16199  Biso   1.000  C
  C233     1.0000 0.57112  0.66199  0.92888  Biso   1.000  C
  C234     1.0000 0.42888  0.66199  0.07112  Biso   1.000  C
  C235     1.0000 0.42888  0.33801  0.92888  Biso   1.000  C
  C236     1.0000 0.57112  0.33801  0.07112  Biso   1.000  C
  C237     1.0000 0.66199  0.57112  0.92888  Biso   1.000  C
  C238     1.0000 0.66199  0.42888  0.07112  Biso   1.000  C
  C239     1.0000 0.33801  0.57112  0.07112  Biso   1.000  C
  C240     1.0000 0.33801  0.42888  0.92888  Biso   1.000  C
  C241     1.0000 0.57112  0.07112  0.66199  Biso   1.000  C
  C242     1.0000 0.42888  0.92888  0.66199  Biso   1.000  C
  C243     1.0000 0.42888  0.07112  0.33801  Biso   1.000  C
  C244     1.0000 0.57112  0.92888  0.33801  Biso   1.000  C
  C245     1.0000 0.66199  0.07112  0.57112  Biso   1.000  C
  C246     1.0000 0.66199  0.92888  0.42888  Biso   1.000  C
  C247     1.0000 0.33801  0.92888  0.57112  Biso   1.000  C
  C248     1.0000 0.33801  0.07112  0.42888  Biso   1.000  C
  C249     1.0000 0.57112  0.16199  0.57112  Biso   1.000  C
  C250     1.0000 0.42888  0.16199  0.42888  Biso   1.000  C
  C251     1.0000 0.57112  0.83801  0.42888  Biso   1.000  C
  C252     1.0000 0.42888  0.83801  0.57112  Biso   1.000  C
  C253     1.0000 0.57112  0.07112  0.33801  Biso   1.000  C
  C254     1.0000 0.42888  0.92888  0.33801  Biso   1.000  C
  C255     1.0000 0.57112  0.92888  0.66199  Biso   1.000  C
  C256     1.0000 0.42888  0.07112  0.66199  Biso   1.000  C
  C257     1.0000 0.57112  0.16199  0.42888  Biso   1.000  C
  C258     1.0000 0.42888  0.16199  0.57112  Biso   1.000  C
  C259     1.0000 0.42888  0.83801  0.42888  Biso   1.000  C
  C260     1.0000 0.57112  0.83801  0.57112  Biso   1.000  C
  C261     1.0000 0.66199  0.07112  0.42888  Biso   1.000  C
  C262     1.0000 0.66199  0.92888  0.57112  Biso   1.000  C
  C263     1.0000 0.33801  0.07112  0.57112  Biso   1.000  C
  C264     1.0000 0.33801  0.92888  0.42888  Biso   1.000  C
  C265     1.0000 0.07112  0.57112  0.66199  Biso   1.000  C
  C266     1.0000 0.92888  0.42888  0.66199  Biso   1.000  C
  C267     1.0000 0.92888  0.57112  0.33801  Biso   1.000  C
  C268     1.0000 0.07112  0.42888  0.33801  Biso   1.000  C
  C269     1.0000 0.16199  0.57112  0.57112  Biso   1.000  C
  C270     1.0000 0.16199  0.42888  0.42888  Biso   1.000  C
  C271     1.0000 0.83801  0.42888  0.57112  Biso   1.000  C
  C272     1.0000 0.83801  0.57112  0.42888  Biso   1.000  C
  C273     1.0000 0.07112  0.66199  0.57112  Biso   1.000  C
  C274     1.0000 0.92888  0.66199  0.42888  Biso   1.000  C
  C275     1.0000 0.07112  0.33801  0.42888  Biso   1.000  C
  C276     1.0000 0.92888  0.33801  0.57112  Biso   1.000  C
  C277     1.0000 0.07112  0.57112  0.33801  Biso   1.000  C
  C278     1.0000 0.92888  0.42888  0.33801  Biso   1.000  C
  C279     1.0000 0.07112  0.42888  0.66199  Biso   1.000  C
  C280     1.0000 0.92888  0.57112  0.66199  Biso   1.000  C
  C281     1.0000 0.07112  0.66199  0.42888  Biso   1.000  C
  C282     1.0000 0.92888  0.66199  0.57112  Biso   1.000  C
  C283     1.0000 0.92888  0.33801  0.42888  Biso   1.000  C
  C284     1.0000 0.07112  0.33801  0.57112  Biso   1.000  C
  C285     1.0000 0.16199  0.57112  0.42888  Biso   1.000  C
  C286     1.0000 0.16199  0.42888  0.57112  Biso   1.000  C
  C287     1.0000 0.83801  0.57112  0.57112  Biso   1.000  C
  C288     1.0000 0.83801  0.42888  0.42888  Biso   1.000  C
  C289     1.0000 0.09755  0.05754  0.17524  Biso   1.000  C
  C290     1.0000 0.90245  0.94246  0.17524  Biso   1.000  C
  C291     1.0000 0.90245  0.05754  0.82476  Biso   1.000  C
  C292     1.0000 0.09755  0.94246  0.82476  Biso   1.000  C
  C293     1.0000 0.17524  0.09755  0.05754  Biso   1.000  C
  C294     1.0000 0.17524  0.90245  0.94246  Biso   1.000  C
  C295     1.0000 0.82476  0.90245  0.05754  Biso   1.000  C
  C296     1.0000 0.82476  0.09755  0.94246  Biso   1.000  C
  C297     1.0000 0.05754  0.17524  0.09755  Biso   1.000  C
  C298     1.0000 0.94246  0.17524  0.90245  Biso   1.000  C
  C299     1.0000 0.05754  0.82476  0.90245  Biso   1.000  C
  C300     1.0000 0.94246  0.82476  0.09755  Biso   1.000  C
  C301     1.0000 0.05754  0.09755  0.82476  Biso   1.000  C
  C302     1.0000 0.94246  0.90245  0.82476  Biso   1.000  C
  C303     1.0000 0.05754  0.90245  0.17524  Biso   1.000  C
  C304     1.0000 0.94246  0.09755  0.17524  Biso   1.000  C
  C305     1.0000 0.09755  0.17524  0.94246  Biso   1.000  C
  C306     1.0000 0.90245  0.17524  0.05754  Biso   1.000  C
  C307     1.0000 0.90245  0.82476  0.94246  Biso   1.000  C
  C308     1.0000 0.09755  0.82476  0.05754  Biso   1.000  C
  C309     1.0000 0.17524  0.05754  0.90245  Biso   1.000  C
  C310     1.0000 0.17524  0.94246  0.09755  Biso   1.000  C
  C311     1.0000 0.82476  0.05754  0.09755  Biso   1.000  C
  C312     1.0000 0.82476  0.94246  0.90245  Biso   1.000  C
  C313     1.0000 0.59755  0.55754  0.17524  Biso   1.000  C
  C314     1.0000 0.40245  0.44246  0.17524  Biso   1.000  C
  C315     1.0000 0.40245  0.55754  0.82476  Biso   1.000  C
  C316     1.0000 0.59755  0.44246  0.82476  Biso   1.000  C
  C317     1.0000 0.67524  0.59755  0.05754  Biso   1.000  C
  C318     1.0000 0.67524  0.40245  0.94246  Biso   1.000  C
  C319     1.0000 0.32476  0.40245  0.05754  Biso   1.000  C
  C320     1.0000 0.32476  0.59755  0.94246  Biso   1.000  C
  C321     1.0000 0.55754  0.67524  0.09755  Biso   1.000  C
  C322     1.0000 0.44246  0.67524  0.90245  Biso   1.000  C
  C323     1.0000 0.55754  0.32476  0.90245  Biso   1.000  C
  C324     1.0000 0.44246  0.32476  0.09755  Biso   1.000  C
  C325     1.0000 0.55754  0.59755  0.82476  Biso   1.000  C
  C326     1.0000 0.44246  0.40245  0.82476  Biso   1.000  C
  C327     1.0000 0.55754  0.40245  0.17524  Biso   1.000  C
  C328     1.0000 0.44246  0.59755  0.17524  Biso   1.000  C
  C329     1.0000 0.59755  0.67524  0.94246  Biso   1.000  C
  C330     1.0000 0.40245  0.67524  0.05754  Biso   1.000  C
  C331     1.0000 0.40245  0.32476  0.94246  Biso   1.000  C
  C332     1.0000 0.59755  0.32476  0.05754  Biso   1.000  C
  C333     1.0000 0.67524  0.55754  0.90245  Biso   1.000  C
  C334     1.0000 0.67524  0.44246  0.09755  Biso   1.000  C
  C335     1.0000 0.32476  0.55754  0.09755  Biso   1.000  C
  C336     1.0000 0.32476  0.44246  0.90245  Biso   1.000  C
  C337     1.0000 0.59755  0.05754  0.67524  Biso   1.000  C
  C338     1.0000 0.40245  0.94246  0.67524  Biso   1.000  C
  C339     1.0000 0.40245  0.05754  0.32476  Biso   1.000  C
  C340     1.0000 0.59755  0.94246  0.32476  Biso   1.000  C
  C341     1.0000 0.67524  0.09755  0.55754  Biso   1.000  C
  C342     1.0000 0.67524  0.90245  0.44246  Biso   1.000  C
  C343     1.0000 0.32476  0.90245  0.55754  Biso   1.000  C
  C344     1.0000 0.32476  0.09755  0.44246  Biso   1.000  C
  C345     1.0000 0.55754  0.17524  0.59755  Biso   1.000  C
  C346     1.0000 0.44246  0.17524  0.40245  Biso   1.000  C
  C347     1.0000 0.55754  0.82476  0.40245  Biso   1.000  C
  C348     1.0000 0.44246  0.82476  0.59755  Biso   1.000  C
  C349     1.0000 0.55754  0.09755  0.32476  Biso   1.000  C
  C350     1.0000 0.44246  0.90245  0.32476  Biso   1.000  C
  C351     1.0000 0.55754  0.90245  0.67524  Biso   1.000  C
  C352     1.0000 0.44246  0.09755  0.67524  Biso   1.000  C
  C353     1.0000 0.59755  0.17524  0.44246  Biso   1.000  C
  C354     1.0000 0.40245  0.17524  0.55754  Biso   1.000  C
  C355     1.0000 0.40245  0.82476  0.44246  Biso   1.000  C
  C356     1.0000 0.59755  0.82476  0.55754  Biso   1.000  C
  C357     1.0000 0.67524  0.05754  0.40245  Biso   1.000  C
  C358     1.0000 0.67524  0.94246  0.59755  Biso   1.000  C
  C359     1.0000 0.32476  0.05754  0.59755  Biso   1.000  C
  C360     1.0000 0.32476  0.94246  0.40245  Biso   1.000  C
  C361     1.0000 0.09755  0.55754  0.67524  Biso   1.000  C
  C362     1.0000 0.90245  0.44246  0.67524  Biso   1.000  C
  C363     1.0000 0.90245  0.55754  0.32476  Biso   1.000  C
  C364     1.0000 0.09755  0.44246  0.32476  Biso   1.000  C
  C365     1.0000 0.17524  0.59755  0.55754  Biso   1.000  C
  C366     1.0000 0.17524  0.40245  0.44246  Biso   1.000  C
  C367     1.0000 0.82476  0.40245  0.55754  Biso   1.000  C
  C368     1.0000 0.82476  0.59755  0.44246  Biso   1.000  C
  C369     1.0000 0.05754  0.67524  0.59755  Biso   1.000  C
  C370     1.0000 0.94246  0.67524  0.40245  Biso   1.000  C
  C371     1.0000 0.05754  0.32476  0.40245  Biso   1.000  C
  C372     1.0000 0.94246  0.32476  0.59755  Biso   1.000  C
  C373     1.0000 0.05754  0.59755  0.32476  Biso   1.000  C
  C374     1.0000 0.94246  0.40245  0.32476  Biso   1.000  C
  C375     1.0000 0.05754  0.40245  0.67524  Biso   1.000  C
  C376     1.0000 0.94246  0.59755  0.67524  Biso   1.000  C
  C377     1.0000 0.09755  0.67524  0.44246  Biso   1.000  C
  C378     1.0000 0.90245  0.67524  0.55754  Biso   1.000  C
  C379     1.0000 0.90245  0.32476  0.44246  Biso   1.000  C
  C380     1.0000 0.09755  0.32476  0.55754  Biso   1.000  C
  C381     1.0000 0.17524  0.55754  0.40245  Biso   1.000  C
  C382     1.0000 0.17524  0.44246  0.59755  Biso   1.000  C
  C383     1.0000 0.82476  0.55754  0.59755  Biso   1.000  C
  C384     1.0000 0.82476  0.44246  0.40245  Biso   1.000  C
  C385     1.0000 0.90245  0.94246  0.82476  Biso   1.000  C
  C386     1.0000 0.09755  0.05754  0.82476  Biso   1.000  C
  C387     1.0000 0.09755  0.94246  0.17524  Biso   1.000  C
  C388     1.0000 0.90245  0.05754  0.17524  Biso   1.000  C
  C389     1.0000 0.82476  0.90245  0.94246  Biso   1.000  C
  C390     1.0000 0.82476  0.09755  0.05754  Biso   1.000  C
  C391     1.0000 0.17524  0.09755  0.94246  Biso   1.000  C
  C392     1.0000 0.17524  0.90245  0.05754  Biso   1.000  C
  C393     1.0000 0.94246  0.82476  0.90245  Biso   1.000  C
  C394     1.0000 0.05754  0.82476  0.09755  Biso   1.000  C
  C395     1.0000 0.94246  0.17524  0.09755  Biso   1.000  C
  C396     1.0000 0.05754  0.17524  0.90245  Biso   1.000  C
  C397     1.0000 0.94246  0.90245  0.17524  Biso   1.000  C
  C398     1.0000 0.05754  0.09755  0.17524  Biso   1.000  C
  C399     1.0000 0.94246  0.09755  0.82476  Biso   1.000  C
  C400     1.0000 0.05754  0.90245  0.82476  Biso   1.000  C
  C401     1.0000 0.90245  0.82476  0.05754  Biso   1.000  C
  C402     1.0000 0.09755  0.82476  0.94246  Biso   1.000  C
  C403     1.0000 0.09755  0.17524  0.05754  Biso   1.000  C
  C404     1.0000 0.90245  0.17524  0.94246  Biso   1.000  C
  C405     1.0000 0.82476  0.94246  0.09755  Biso   1.000  C
  C406     1.0000 0.82476  0.05754  0.90245  Biso   1.000  C
  C407     1.0000 0.17524  0.94246  0.90245  Biso   1.000  C
  C408     1.0000 0.17524  0.05754  0.09755  Biso   1.000  C
  C409     1.0000 0.40245  0.44246  0.82476  Biso   1.000  C
  C410     1.0000 0.59755  0.55754  0.82476  Biso   1.000  C
  C411     1.0000 0.59755  0.44246  0.17524  Biso   1.000  C
  C412     1.0000 0.40245  0.55754  0.17524  Biso   1.000  C
  C413     1.0000 0.32476  0.40245  0.94246  Biso   1.000  C
  C414     1.0000 0.32476  0.59755  0.05754  Biso   1.000  C
  C415     1.0000 0.67524  0.59755  0.94246  Biso   1.000  C
  C416     1.0000 0.67524  0.40245  0.05754  Biso   1.000  C
  C417     1.0000 0.44246  0.32476  0.90245  Biso   1.000  C
  C418     1.0000 0.55754  0.32476  0.09755  Biso   1.000  C
  C419     1.0000 0.44246  0.67524  0.09755  Biso   1.000  C
  C420     1.0000 0.55754  0.67524  0.90245  Biso   1.000  C
  C421     1.0000 0.44246  0.40245  0.17524  Biso   1.000  C
  C422     1.0000 0.55754  0.59755  0.17524  Biso   1.000  C
  C423     1.0000 0.44246  0.59755  0.82476  Biso   1.000  C
  C424     1.0000 0.55754  0.40245  0.82476  Biso   1.000  C
  C425     1.0000 0.40245  0.32476  0.05754  Biso   1.000  C
  C426     1.0000 0.59755  0.32476  0.94246  Biso   1.000  C
  C427     1.0000 0.59755  0.67524  0.05754  Biso   1.000  C
  C428     1.0000 0.40245  0.67524  0.94246  Biso   1.000  C
  C429     1.0000 0.32476  0.44246  0.09755  Biso   1.000  C
  C430     1.0000 0.32476  0.55754  0.90245  Biso   1.000  C
  C431     1.0000 0.67524  0.44246  0.90245  Biso   1.000  C
  C432     1.0000 0.67524  0.55754  0.09755  Biso   1.000  C
  C433     1.0000 0.40245  0.94246  0.32476  Biso   1.000  C
  C434     1.0000 0.59755  0.05754  0.32476  Biso   1.000  C
  C435     1.0000 0.59755  0.94246  0.67524  Biso   1.000  C
  C436     1.0000 0.40245  0.05754  0.67524  Biso   1.000  C
  C437     1.0000 0.32476  0.90245  0.44246  Biso   1.000  C
  C438     1.0000 0.32476  0.09755  0.55754  Biso   1.000  C
  C439     1.0000 0.67524  0.09755  0.44246  Biso   1.000  C
  C440     1.0000 0.67524  0.90245  0.55754  Biso   1.000  C
  C441     1.0000 0.44246  0.82476  0.40245  Biso   1.000  C
  C442     1.0000 0.55754  0.82476  0.59755  Biso   1.000  C
  C443     1.0000 0.44246  0.17524  0.59755  Biso   1.000  C
  C444     1.0000 0.55754  0.17524  0.40245  Biso   1.000  C
  C445     1.0000 0.44246  0.90245  0.67524  Biso   1.000  C
  C446     1.0000 0.55754  0.09755  0.67524  Biso   1.000  C
  C447     1.0000 0.44246  0.09755  0.32476  Biso   1.000  C
  C448     1.0000 0.55754  0.90245  0.32476  Biso   1.000  C
  C449     1.0000 0.40245  0.82476  0.55754  Biso   1.000  C
  C450     1.0000 0.59755  0.82476  0.44246  Biso   1.000  C
  C451     1.0000 0.59755  0.17524  0.55754  Biso   1.000  C
  C452     1.0000 0.40245  0.17524  0.44246  Biso   1.000  C
  C453     1.0000 0.32476  0.94246  0.59755  Biso   1.000  C
  C454     1.0000 0.32476  0.05754  0.40245  Biso   1.000  C
  C455     1.0000 0.67524  0.94246  0.40245  Biso   1.000  C
  C456     1.0000 0.67524  0.05754  0.59755  Biso   1.000  C
  C457     1.0000 0.90245  0.44246  0.32476  Biso   1.000  C
  C458     1.0000 0.09755  0.55754  0.32476  Biso   1.000  C
  C459     1.0000 0.09755  0.44246  0.67524  Biso   1.000  C
  C460     1.0000 0.90245  0.55754  0.67524  Biso   1.000  C
  C461     1.0000 0.82476  0.40245  0.44246  Biso   1.000  C
  C462     1.0000 0.82476  0.59755  0.55754  Biso   1.000  C
  C463     1.0000 0.17524  0.59755  0.44246  Biso   1.000  C
  C464     1.0000 0.17524  0.40245  0.55754  Biso   1.000  C
  C465     1.0000 0.94246  0.32476  0.40245  Biso   1.000  C
  C466     1.0000 0.05754  0.32476  0.59755  Biso   1.000  C
  C467     1.0000 0.94246  0.67524  0.59755  Biso   1.000  C
  C468     1.0000 0.05754  0.67524  0.40245  Biso   1.000  C
  C469     1.0000 0.94246  0.40245  0.67524  Biso   1.000  C
  C470     1.0000 0.05754  0.59755  0.67524  Biso   1.000  C
  C471     1.0000 0.94246  0.59755  0.32476  Biso   1.000  C
  C472     1.0000 0.05754  0.40245  0.32476  Biso   1.000  C
  C473     1.0000 0.90245  0.32476  0.55754  Biso   1.000  C
  C474     1.0000 0.09755  0.32476  0.44246  Biso   1.000  C
  C475     1.0000 0.09755  0.67524  0.55754  Biso   1.000  C
  C476     1.0000 0.90245  0.67524  0.44246  Biso   1.000  C
  C477     1.0000 0.82476  0.44246  0.59755  Biso   1.000  C
  C478     1.0000 0.82476  0.55754  0.40245  Biso   1.000  C
  C479     1.0000 0.17524  0.44246  0.40245  Biso   1.000  C
  C480     1.0000 0.17524  0.55754  0.59755  Biso   1.000  C
  C481     1.0000 0.11302  0.07293  0.19469  Biso   1.000  C
  C482     1.0000 0.88698  0.92707  0.19469  Biso   1.000  C
  C483     1.0000 0.88698  0.07293  0.80531  Biso   1.000  C
  C484     1.0000 0.11302  0.92707  0.80531  Biso   1.000  C
  C485     1.0000 0.19469  0.11302  0.07293  Biso   1.000  C
  C486     1.0000 0.19469  0.88698  0.92707  Biso   1.000  C
  C487     1.0000 0.80531  0.88698  0.07293  Biso   1.000  C
  C488     1.0000 0.80531  0.11302  0.92707  Biso   1.000  C
  C489     1.0000 0.07293  0.19469  0.11302  Biso   1.000  C
  C490     1.0000 0.92707  0.19469  0.88698  Biso   1.000  C
  C491     1.0000 0.07293  0.80531  0.88698  Biso   1.000  C
  C492     1.0000 0.92707  0.80531  0.11302  Biso   1.000  C
  C493     1.0000 0.07293  0.11302  0.80531  Biso   1.000  C
  C494     1.0000 0.92707  0.88698  0.80531  Biso   1.000  C
  C495     1.0000 0.07293  0.88698  0.19469  Biso   1.000  C
  C496     1.0000 0.92707  0.11302  0.19469  Biso   1.000  C
  C497     1.0000 0.11302  0.19469  0.92707  Biso   1.000  C
  C498     1.0000 0.88698  0.19469  0.07293  Biso   1.000  C
  C499     1.0000 0.88698  0.80531  0.92707  Biso   1.000  C
  C500     1.0000 0.11302  0.80531  0.07293  Biso   1.000  C
  C501     1.0000 0.19469  0.07293  0.88698  Biso   1.000  C
  C502     1.0000 0.19469  0.92707  0.11302  Biso   1.000  C
  C503     1.0000 0.80531  0.07293  0.11302  Biso   1.000  C
  C504     1.0000 0.80531  0.92707  0.88698  Biso   1.000  C
  C505     1.0000 0.61302  0.57293  0.19469  Biso   1.000  C
  C506     1.0000 0.38698  0.42707  0.19469  Biso   1.000  C
  C507     1.0000 0.38698  0.57293  0.80531  Biso   1.000  C
  C508     1.0000 0.61302  0.42707  0.80531  Biso   1.000  C
  C509     1.0000 0.69469  0.61302  0.07293  Biso   1.000  C
  C510     1.0000 0.69469  0.38698  0.92707  Biso   1.000  C
  C511     1.0000 0.30531  0.38698  0.07293  Biso   1.000  C
  C512     1.0000 0.30531  0.61302  0.92707  Biso   1.000  C
  C513     1.0000 0.57293  0.69469  0.11302  Biso   1.000  C
  C514     1.0000 0.42707  0.69469  0.88698  Biso   1.000  C
  C515     1.0000 0.57293  0.30531  0.88698  Biso   1.000  C
  C516     1.0000 0.42707  0.30531  0.11302  Biso   1.000  C
  C517     1.0000 0.57293  0.61302  0.80531  Biso   1.000  C
  C518     1.0000 0.42707  0.38698  0.80531  Biso   1.000  C
  C519     1.0000 0.57293  0.38698  0.19469  Biso   1.000  C
  C520     1.0000 0.42707  0.61302  0.19469  Biso   1.000  C
  C521     1.0000 0.61302  0.69469  0.92707  Biso   1.000  C
  C522     1.0000 0.38698  0.69469  0.07293  Biso   1.000  C
  C523     1.0000 0.38698  0.30531  0.92707  Biso   1.000  C
  C524     1.0000 0.61302  0.30531  0.07293  Biso   1.000  C
  C525     1.0000 0.69469  0.57293  0.88698  Biso   1.000  C
  C526     1.0000 0.69469  0.42707  0.11302  Biso   1.000  C
  C527     1.0000 0.30531  0.57293  0.11302  Biso   1.000  C
  C528     1.0000 0.30531  0.42707  0.88698  Biso   1.000  C
  C529     1.0000 0.61302  0.07293  0.69469  Biso   1.000  C
  C530     1.0000 0.38698  0.92707  0.69469  Biso   1.000  C
  C531     1.0000 0.38698  0.07293  0.30531  Biso   1.000  C
  C532     1.0000 0.61302  0.92707  0.30531  Biso   1.000  C
  C533     1.0000 0.69469  0.11302  0.57293  Biso   1.000  C
  C534     1.0000 0.69469  0.88698  0.42707  Biso   1.000  C
  C535     1.0000 0.30531  0.88698  0.57293  Biso   1.000  C
  C536     1.0000 0.30531  0.11302  0.42707  Biso   1.000  C
  C537     1.0000 0.57293  0.19469  0.61302  Biso   1.000  C
  C538     1.0000 0.42707  0.19469  0.38698  Biso   1.000  C
  C539     1.0000 0.57293  0.80531  0.38698  Biso   1.000  C
  C540     1.0000 0.42707  0.80531  0.61302  Biso   1.000  C
  C541     1.0000 0.57293  0.11302  0.30531  Biso   1.000  C
  C542     1.0000 0.42707  0.88698  0.30531  Biso   1.000  C
  C543     1.0000 0.57293  0.88698  0.69469  Biso   1.000  C
  C544     1.0000 0.42707  0.11302  0.69469  Biso   1.000  C
  C545     1.0000 0.61302  0.19469  0.42707  Biso   1.000  C
  C546     1.0000 0.38698  0.19469  0.57293  Biso   1.000  C
  C547     1.0000 0.38698  0.80531  0.42707  Biso   1.000  C
  C548     1.0000 0.61302  0.80531  0.57293  Biso   1.000  C
  C549     1.0000 0.69469  0.07293  0.38698  Biso   1.000  C
  C550     1.0000 0.69469  0.92707  0.61302  Biso   1.000  C
  C551     1.0000 0.30531  0.07293  0.61302  Biso   1.000  C
  C552     1.0000 0.30531  0.92707  0.38698  Biso   1.000  C
  C553     1.0000 0.11302  0.57293  0.69469  Biso   1.000  C
  C554     1.0000 0.88698  0.42707  0.69469  Biso   1.000  C
  C555     1.0000 0.88698  0.57293  0.30531  Biso   1.000  C
  C556     1.0000 0.11302  0.42707  0.30531  Biso   1.000  C
  C557     1.0000 0.19469  0.61302  0.57293  Biso   1.000  C
  C558     1.0000 0.19469  0.38698  0.42707  Biso   1.000  C
  C559     1.0000 0.80531  0.38698  0.57293  Biso   1.000  C
  C560     1.0000 0.80531  0.61302  0.42707  Biso   1.000  C
  C561     1.0000 0.07293  0.69469  0.61302  Biso   1.000  C
  C562     1.0000 0.92707  0.69469  0.38698  Biso   1.000  C
  C563     1.0000 0.07293  0.30531  0.38698  Biso   1.000  C
  C564     1.0000 0.92707  0.30531  0.61302  Biso   1.000  C
  C565     1.0000 0.07293  0.61302  0.30531  Biso   1.000  C
  C566     1.0000 0.92707  0.38698  0.30531  Biso   1.000  C
  C567     1.0000 0.07293  0.38698  0.69469  Biso   1.000  C
  C568     1.0000 0.92707  0.61302  0.69469  Biso   1.000  C
  C569     1.0000 0.11302  0.69469  0.42707  Biso   1.000  C
  C570     1.0000 0.88698  0.69469  0.57293  Biso   1.000  C
  C571     1.0000 0.88698  0.30531  0.42707  Biso   1.000  C
  C572     1.0000 0.11302  0.30531  0.57293  Biso   1.000  C
  C573     1.0000 0.19469  0.57293  0.38698  Biso   1.000  C
  C574     1.0000 0.19469  0.42707  0.61302  Biso   1.000  C
  C575     1.0000 0.80531  0.57293  0.61302  Biso   1.000  C
  C576     1.0000 0.80531  0.42707  0.38698  Biso   1.000  C
  C577     1.0000 0.88698  0.92707  0.80531  Biso   1.000  C
  C578     1.0000 0.11302  0.07293  0.80531  Biso   1.000  C
  C579     1.0000 0.11302  0.92707  0.19469  Biso   1.000  C
  C580     1.0000 0.88698  0.07293  0.19469  Biso   1.000  C
  C581     1.0000 0.80531  0.88698  0.92707  Biso   1.000  C
  C582     1.0000 0.80531  0.11302  0.07293  Biso   1.000  C
  C583     1.0000 0.19469  0.11302  0.92707  Biso   1.000  C
  C584     1.0000 0.19469  0.88698  0.07293  Biso   1.000  C
  C585     1.0000 0.92707  0.80531  0.88698  Biso   1.000  C
  C586     1.0000 0.07293  0.80531  0.11302  Biso   1.000  C
  C587     1.0000 0.92707  0.19469  0.11302  Biso   1.000  C
  C588     1.0000 0.07293  0.19469  0.88698  Biso   1.000  C
  C589     1.0000 0.92707  0.88698  0.19469  Biso   1.000  C
  C590     1.0000 0.07293  0.11302  0.19469  Biso   1.000  C
  C591     1.0000 0.92707  0.11302  0.80531  Biso   1.000  C
  C592     1.0000 0.07293  0.88698  0.80531  Biso   1.000  C
  C593     1.0000 0.88698  0.80531  0.07293  Biso   1.000  C
  C594     1.0000 0.11302  0.80531  0.92707  Biso   1.000  C
  C595     1.0000 0.11302  0.19469  0.07293  Biso   1.000  C
  C596     1.0000 0.88698  0.19469  0.92707  Biso   1.000  C
  C597     1.0000 0.80531  0.92707  0.11302  Biso   1.000  C
  C598     1.0000 0.80531  0.07293  0.88698  Biso   1.000  C
  C599     1.0000 0.19469  0.92707  0.88698  Biso   1.000  C
  C600     1.0000 0.19469  0.07293  0.11302  Biso   1.000  C
  C601     1.0000 0.38698  0.42707  0.80531  Biso   1.000  C
  C602     1.0000 0.61302  0.57293  0.80531  Biso   1.000  C
  C603     1.0000 0.61302  0.42707  0.19469  Biso   1.000  C
  C604     1.0000 0.38698  0.57293  0.19469  Biso   1.000  C
  C605     1.0000 0.30531  0.38698  0.92707  Biso   1.000  C
  C606     1.0000 0.30531  0.61302  0.07293  Biso   1.000  C
  C607     1.0000 0.69469  0.61302  0.92707  Biso   1.000  C
  C608     1.0000 0.69469  0.38698  0.07293  Biso   1.000  C
  C609     1.0000 0.42707  0.30531  0.88698  Biso   1.000  C
  C610     1.0000 0.57293  0.30531  0.11302  Biso   1.000  C
  C611     1.0000 0.42707  0.69469  0.11302  Biso   1.000  C
  C612     1.0000 0.57293  0.69469  0.88698  Biso   1.000  C
  C613     1.0000 0.42707  0.38698  0.19469  Biso   1.000  C
  C614     1.0000 0.57293  0.61302  0.19469  Biso   1.000  C
  C615     1.0000 0.42707  0.61302  0.80531  Biso   1.000  C
  C616     1.0000 0.57293  0.38698  0.80531  Biso   1.000  C
  C617     1.0000 0.38698  0.30531  0.07293  Biso   1.000  C
  C618     1.0000 0.61302  0.30531  0.92707  Biso   1.000  C
  C619     1.0000 0.61302  0.69469  0.07293  Biso   1.000  C
  C620     1.0000 0.38698  0.69469  0.92707  Biso   1.000  C
  C621     1.0000 0.30531  0.42707  0.11302  Biso   1.000  C
  C622     1.0000 0.30531  0.57293  0.88698  Biso   1.000  C
  C623     1.0000 0.69469  0.42707  0.88698  Biso   1.000  C
  C624     1.0000 0.69469  0.57293  0.11302  Biso   1.000  C
  C625     1.0000 0.38698  0.92707  0.30531  Biso   1.000  C
  C626     1.0000 0.61302  0.07293  0.30531  Biso   1.000  C
  C627     1.0000 0.61302  0.92707  0.69469  Biso   1.000  C
  C628     1.0000 0.38698  0.07293  0.69469  Biso   1.000  C
  C629     1.0000 0.30531  0.88698  0.42707  Biso   1.000  C
  C630     1.0000 0.30531  0.11302  0.57293  Biso   1.000  C
  C631     1.0000 0.69469  0.11302  0.42707  Biso   1.000  C
  C632     1.0000 0.69469  0.88698  0.57293  Biso   1.000  C
  C633     1.0000 0.42707  0.80531  0.38698  Biso   1.000  C
  C634     1.0000 0.57293  0.80531  0.61302  Biso   1.000  C
  C635     1.0000 0.42707  0.19469  0.61302  Biso   1.000  C
  C636     1.0000 0.57293  0.19469  0.38698  Biso   1.000  C
  C637     1.0000 0.42707  0.88698  0.69469  Biso   1.000  C
  C638     1.0000 0.57293  0.11302  0.69469  Biso   1.000  C
  C639     1.0000 0.42707  0.11302  0.30531  Biso   1.000  C
  C640     1.0000 0.57293  0.88698  0.30531  Biso   1.000  C
  C641     1.0000 0.38698  0.80531  0.57293  Biso   1.000  C
  C642     1.0000 0.61302  0.80531  0.42707  Biso   1.000  C
  C643     1.0000 0.61302  0.19469  0.57293  Biso   1.000  C
  C644     1.0000 0.38698  0.19469  0.42707  Biso   1.000  C
  C645     1.0000 0.30531  0.92707  0.61302  Biso   1.000  C
  C646     1.0000 0.30531  0.07293  0.38698  Biso   1.000  C
  C647     1.0000 0.69469  0.92707  0.38698  Biso   1.000  C
  C648     1.0000 0.69469  0.07293  0.61302  Biso   1.000  C
  C649     1.0000 0.88698  0.42707  0.30531  Biso   1.000  C
  C650     1.0000 0.11302  0.57293  0.30531  Biso   1.000  C
  C651     1.0000 0.11302  0.42707  0.69469  Biso   1.000  C
  C652     1.0000 0.88698  0.57293  0.69469  Biso   1.000  C
  C653     1.0000 0.80531  0.38698  0.42707  Biso   1.000  C
  C654     1.0000 0.80531  0.61302  0.57293  Biso   1.000  C
  C655     1.0000 0.19469  0.61302  0.42707  Biso   1.000  C
  C656     1.0000 0.19469  0.38698  0.57293  Biso   1.000  C
  C657     1.0000 0.92707  0.30531  0.38698  Biso   1.000  C
  C658     1.0000 0.07293  0.30531  0.61302  Biso   1.000  C
  C659     1.0000 0.92707  0.69469  0.61302  Biso   1.000  C
  C660     1.0000 0.07293  0.69469  0.38698  Biso   1.000  C
  C661     1.0000 0.92707  0.38698  0.69469  Biso   1.000  C
  C662     1.0000 0.07293  0.61302  0.69469  Biso   1.000  C
  C663     1.0000 0.92707  0.61302  0.30531  Biso   1.000  C
  C664     1.0000 0.07293  0.38698  0.30531  Biso   1.000  C
  C665     1.0000 0.88698  0.30531  0.57293  Biso   1.000  C
  C666     1.0000 0.11302  0.30531  0.42707  Biso   1.000  C
  C667     1.0000 0.11302  0.69469  0.57293  Biso   1.000  C
  C668     1.0000 0.88698  0.69469  0.42707  Biso   1.000  C
  C669     1.0000 0.80531  0.42707  0.61302  Biso   1.000  C
  C670     1.0000 0.80531  0.57293  0.38698  Biso   1.000  C
  C671     1.0000 0.19469  0.42707  0.38698  Biso   1.000  C
  C672     1.0000 0.19469  0.57293  0.61302  Biso   1.000  C
  C673     1.0000 0.10369  0.10369  0.19942  Biso   1.000  C
  C674     1.0000 0.89631  0.89631  0.19942  Biso   1.000  C
  C675     1.0000 0.89631  0.10369  0.80058  Biso   1.000  C
  C676     1.0000 0.10369  0.89631  0.80058  Biso   1.000  C
  C677     1.0000 0.19942  0.10369  0.10369  Biso   1.000  C
  C678     1.0000 0.19942  0.89631  0.89631  Biso   1.000  C
  C679     1.0000 0.80058  0.89631  0.10369  Biso   1.000  C
  C680     1.0000 0.80058  0.10369  0.89631  Biso   1.000  C
  C681     1.0000 0.10369  0.19942  0.10369  Biso   1.000  C
  C682     1.0000 0.89631  0.19942  0.89631  Biso   1.000  C
  C683     1.0000 0.10369  0.80058  0.89631  Biso   1.000  C
  C684     1.0000 0.89631  0.80058  0.10369  Biso   1.000  C
  C685     1.0000 0.10369  0.10369  0.80058  Biso   1.000  C
  C686     1.0000 0.89631  0.89631  0.80058  Biso   1.000  C
  C687     1.0000 0.10369  0.89631  0.19942  Biso   1.000  C
  C688     1.0000 0.89631  0.10369  0.19942  Biso   1.000  C
  C689     1.0000 0.10369  0.19942  0.89631  Biso   1.000  C
  C690     1.0000 0.89631  0.19942  0.10369  Biso   1.000  C
  C691     1.0000 0.89631  0.80058  0.89631  Biso   1.000  C
  C692     1.0000 0.10369  0.80058  0.10369  Biso   1.000  C
  C693     1.0000 0.19942  0.10369  0.89631  Biso   1.000  C
  C694     1.0000 0.19942  0.89631  0.10369  Biso   1.000  C
  C695     1.0000 0.80058  0.10369  0.10369  Biso   1.000  C
  C696     1.0000 0.80058  0.89631  0.89631  Biso   1.000  C
  C697     1.0000 0.60369  0.60369  0.19942  Biso   1.000  C
  C698     1.0000 0.39631  0.39631  0.19942  Biso   1.000  C
  C699     1.0000 0.39631  0.60369  0.80058  Biso   1.000  C
  C700     1.0000 0.60369  0.39631  0.80058  Biso   1.000  C
  C701     1.0000 0.69942  0.60369  0.10369  Biso   1.000  C
  C702     1.0000 0.69942  0.39631  0.89631  Biso   1.000  C
  C703     1.0000 0.30058  0.39631  0.10369  Biso   1.000  C
  C704     1.0000 0.30058  0.60369  0.89631  Biso   1.000  C
  C705     1.0000 0.60369  0.69942  0.10369  Biso   1.000  C
  C706     1.0000 0.39631  0.69942  0.89631  Biso   1.000  C
  C707     1.0000 0.60369  0.30058  0.89631  Biso   1.000  C
  C708     1.0000 0.39631  0.30058  0.10369  Biso   1.000  C
  C709     1.0000 0.60369  0.60369  0.80058  Biso   1.000  C
  C710     1.0000 0.39631  0.39631  0.80058  Biso   1.000  C
  C711     1.0000 0.60369  0.39631  0.19942  Biso   1.000  C
  C712     1.0000 0.39631  0.60369  0.19942  Biso   1.000  C
  C713     1.0000 0.60369  0.69942  0.89631  Biso   1.000  C
  C714     1.0000 0.39631  0.69942  0.10369  Biso   1.000  C
  C715     1.0000 0.39631  0.30058  0.89631  Biso   1.000  C
  C716     1.0000 0.60369  0.30058  0.10369  Biso   1.000  C
  C717     1.0000 0.69942  0.60369  0.89631  Biso   1.000  C
  C718     1.0000 0.69942  0.39631  0.10369  Biso   1.000  C
  C719     1.0000 0.30058  0.60369  0.10369  Biso   1.000  C
  C720     1.0000 0.30058  0.39631  0.89631  Biso   1.000  C
  C721     1.0000 0.60369  0.10369  0.69942  Biso   1.000  C
  C722     1.0000 0.39631  0.89631  0.69942  Biso   1.000  C
  C723     1.0000 0.39631  0.10369  0.30058  Biso   1.000  C
  C724     1.0000 0.60369  0.89631  0.30058  Biso   1.000  C
  C725     1.0000 0.69942  0.10369  0.60369  Biso   1.000  C
  C726     1.0000 0.69942  0.89631  0.39631  Biso   1.000  C
  C727     1.0000 0.30058  0.89631  0.60369  Biso   1.000  C
  C728     1.0000 0.30058  0.10369  0.39631  Biso   1.000  C
  C729     1.0000 0.60369  0.19942  0.60369  Biso   1.000  C
  C730     1.0000 0.39631  0.19942  0.39631  Biso   1.000  C
  C731     1.0000 0.60369  0.80058  0.39631  Biso   1.000  C
  C732     1.0000 0.39631  0.80058  0.60369  Biso   1.000  C
  C733     1.0000 0.60369  0.10369  0.30058  Biso   1.000  C
  C734     1.0000 0.39631  0.89631  0.30058  Biso   1.000  C
  C735     1.0000 0.60369  0.89631  0.69942  Biso   1.000  C
  C736     1.0000 0.39631  0.10369  0.69942  Biso   1.000  C
  C737     1.0000 0.60369  0.19942  0.39631  Biso   1.000  C
  C738     1.0000 0.39631  0.19942  0.60369  Biso   1.000  C
  C739     1.0000 0.39631  0.80058  0.39631  Biso   1.000  C
  C740     1.0000 0.60369  0.80058  0.60369  Biso   1.000  C
  C741     1.0000 0.69942  0.10369  0.39631  Biso   1.000  C
  C742     1.0000 0.69942  0.89631  0.60369  Biso   1.000  C
  C743     1.0000 0.30058  0.10369  0.60369  Biso   1.000  C
  C744     1.0000 0.30058  0.89631  0.39631  Biso   1.000  C
  C745     1.0000 0.10369  0.60369  0.69942  Biso   1.000  C
  C746     1.0000 0.89631  0.39631  0.69942  Biso   1.000  C
  C747     1.0000 0.89631  0.60369  0.30058  Biso   1.000  C
  C748     1.0000 0.10369  0.39631  0.30058  Biso   1.000  C
  C749     1.0000 0.19942  0.60369  0.60369  Biso   1.000  C
  C750     1.0000 0.19942  0.39631  0.39631  Biso   1.000  C
  C751     1.0000 0.80058  0.39631  0.60369  Biso   1.000  C
  C752     1.0000 0.80058  0.60369  0.39631  Biso   1.000  C
  C753     1.0000 0.10369  0.69942  0.60369  Biso   1.000  C
  C754     1.0000 0.89631  0.69942  0.39631  Biso   1.000  C
  C755     1.0000 0.10369  0.30058  0.39631  Biso   1.000  C
  C756     1.0000 0.89631  0.30058  0.60369  Biso   1.000  C
  C757     1.0000 0.10369  0.60369  0.30058  Biso   1.000  C
  C758     1.0000 0.89631  0.39631  0.30058  Biso   1.000  C
  C759     1.0000 0.10369  0.39631  0.69942  Biso   1.000  C
  C760     1.0000 0.89631  0.60369  0.69942  Biso   1.000  C
  C761     1.0000 0.10369  0.69942  0.39631  Biso   1.000  C
  C762     1.0000 0.89631  0.69942  0.60369  Biso   1.000  C
  C763     1.0000 0.89631  0.30058  0.39631  Biso   1.000  C
  C764     1.0000 0.10369  0.30058  0.60369  Biso   1.000  C
  C765     1.0000 0.19942  0.60369  0.39631  Biso   1.000  C
  C766     1.0000 0.19942  0.39631  0.60369  Biso   1.000  C
  C767     1.0000 0.80058  0.60369  0.60369  Biso   1.000  C
  C768     1.0000 0.80058  0.39631  0.39631  Biso   1.000  C
  C769     1.0000 0.13880  0.13880  0.21194  Biso   1.000  C
  C770     1.0000 0.86120  0.86120  0.21194  Biso   1.000  C
  C771     1.0000 0.86120  0.13880  0.78806  Biso   1.000  C
  C772     1.0000 0.13880  0.86120  0.78806  Biso   1.000  C
  C773     1.0000 0.21194  0.13880  0.13880  Biso   1.000  C
  C774     1.0000 0.21194  0.86120  0.86120  Biso   1.000  C
  C775     1.0000 0.78806  0.86120  0.13880  Biso   1.000  C
  C776     1.0000 0.78806  0.13880  0.86120  Biso   1.000  C
  C777     1.0000 0.13880  0.21194  0.13880  Biso   1.000  C
  C778     1.0000 0.86120  0.21194  0.86120  Biso   1.000  C
  C779     1.0000 0.13880  0.78806  0.86120  Biso   1.000  C
  C780     1.0000 0.86120  0.78806  0.13880  Biso   1.000  C
  C781     1.0000 0.13880  0.13880  0.78806  Biso   1.000  C
  C782     1.0000 0.86120  0.86120  0.78806  Biso   1.000  C
  C783     1.0000 0.13880  0.86120  0.21194  Biso   1.000  C
  C784     1.0000 0.86120  0.13880  0.21194  Biso   1.000  C
  C785     1.0000 0.13880  0.21194  0.86120  Biso   1.000  C
  C786     1.0000 0.86120  0.21194  0.13880  Biso   1.000  C
  C787     1.0000 0.86120  0.78806  0.86120  Biso   1.000  C
  C788     1.0000 0.13880  0.78806  0.13880  Biso   1.000  C
  C789     1.0000 0.21194  0.13880  0.86120  Biso   1.000  C
  C790     1.0000 0.21194  0.86120  0.13880  Biso   1.000  C
  C791     1.0000 0.78806  0.13880  0.13880  Biso   1.000  C
  C792     1.0000 0.78806  0.86120  0.86120  Biso   1.000  C
  C793     1.0000 0.63880  0.63880  0.21194  Biso   1.000  C
  C794     1.0000 0.36120  0.36120  0.21194  Biso   1.000  C
  C795     1.0000 0.36120  0.63880  0.78806  Biso   1.000  C
  C796     1.0000 0.63880  0.36120  0.78806  Biso   1.000  C
  C797     1.0000 0.71194  0.63880  0.13880  Biso   1.000  C
  C798     1.0000 0.71194  0.36120  0.86120  Biso   1.000  C
  C799     1.0000 0.28806  0.36120  0.13880  Biso   1.000  C
  C800     1.0000 0.28806  0.63880  0.86120  Biso   1.000  C
  C801     1.0000 0.63880  0.71194  0.13880  Biso   1.000  C
  C802     1.0000 0.36120  0.71194  0.86120  Biso   1.000  C
  C803     1.0000 0.63880  0.28806  0.86120  Biso   1.000  C
  C804     1.0000 0.36120  0.28806  0.13880  Biso   1.000  C
  C805     1.0000 0.63880  0.63880  0.78806  Biso   1.000  C
  C806     1.0000 0.36120  0.36120  0.78806  Biso   1.000  C
  C807     1.0000 0.63880  0.36120  0.21194  Biso   1.000  C
  C808     1.0000 0.36120  0.63880  0.21194  Biso   1.000  C
  C809     1.0000 0.63880  0.71194  0.86120  Biso   1.000  C
  C810     1.0000 0.36120  0.71194  0.13880  Biso   1.000  C
  C811     1.0000 0.36120  0.28806  0.86120  Biso   1.000  C
  C812     1.0000 0.63880  0.28806  0.13880  Biso   1.000  C
  C813     1.0000 0.71194  0.63880  0.86120  Biso   1.000  C
  C814     1.0000 0.71194  0.36120  0.13880  Biso   1.000  C
  C815     1.0000 0.28806  0.63880  0.13880  Biso   1.000  C
  C816     1.0000 0.28806  0.36120  0.86120  Biso   1.000  C
  C817     1.0000 0.63880  0.13880  0.71194  Biso   1.000  C
  C818     1.0000 0.36120  0.86120  0.71194  Biso   1.000  C
  C819     1.0000 0.36120  0.13880  0.28806  Biso   1.000  C
  C820     1.0000 0.63880  0.86120  0.28806  Biso   1.000  C
  C821     1.0000 0.71194  0.13880  0.63880  Biso   1.000  C
  C822     1.0000 0.71194  0.86120  0.36120  Biso   1.000  C
  C823     1.0000 0.28806  0.86120  0.63880  Biso   1.000  C
  C824     1.0000 0.28806  0.13880  0.36120  Biso   1.000  C
  C825     1.0000 0.63880  0.21194  0.63880  Biso   1.000  C
  C826     1.0000 0.36120  0.21194  0.36120  Biso   1.000  C
  C827     1.0000 0.63880  0.78806  0.36120  Biso   1.000  C
  C828     1.0000 0.36120  0.78806  0.63880  Biso   1.000  C
  C829     1.0000 0.63880  0.13880  0.28806  Biso   1.000  C
  C830     1.0000 0.36120  0.86120  0.28806  Biso   1.000  C
  C831     1.0000 0.63880  0.86120  0.71194  Biso   1.000  C
  C832     1.0000 0.36120  0.13880  0.71194  Biso   1.000  C
  C833     1.0000 0.63880  0.21194  0.36120  Biso   1.000  C
  C834     1.0000 0.36120  0.21194  0.63880  Biso   1.000  C
  C835     1.0000 0.36120  0.78806  0.36120  Biso   1.000  C
  C836     1.0000 0.63880  0.78806  0.63880  Biso   1.000  C
  C837     1.0000 0.71194  0.13880  0.36120  Biso   1.000  C
  C838     1.0000 0.71194  0.86120  0.63880  Biso   1.000  C
  C839     1.0000 0.28806  0.13880  0.63880  Biso   1.000  C
  C840     1.0000 0.28806  0.86120  0.36120  Biso   1.000  C
  C841     1.0000 0.13880  0.63880  0.71194  Biso   1.000  C
  C842     1.0000 0.86120  0.36120  0.71194  Biso   1.000  C
  C843     1.0000 0.86120  0.63880  0.28806  Biso   1.000  C
  C844     1.0000 0.13880  0.36120  0.28806  Biso   1.000  C
  C845     1.0000 0.21194  0.63880  0.63880  Biso   1.000  C
  C846     1.0000 0.21194  0.36120  0.36120  Biso   1.000  C
  C847     1.0000 0.78806  0.36120  0.63880  Biso   1.000  C
  C848     1.0000 0.78806  0.63880  0.36120  Biso   1.000  C
  C849     1.0000 0.13880  0.71194  0.63880  Biso   1.000  C
  C850     1.0000 0.86120  0.71194  0.36120  Biso   1.000  C
  C851     1.0000 0.13880  0.28806  0.36120  Biso   1.000  C
  C852     1.0000 0.86120  0.28806  0.63880  Biso   1.000  C
  C853     1.0000 0.13880  0.63880  0.28806  Biso   1.000  C
  C854     1.0000 0.86120  0.36120  0.28806  Biso   1.000  C
  C855     1.0000 0.13880  0.36120  0.71194  Biso   1.000  C
  C856     1.0000 0.86120  0.63880  0.71194  Biso   1.000  C
  C857     1.0000 0.13880  0.71194  0.36120  Biso   1.000  C
  C858     1.0000 0.86120  0.71194  0.63880  Biso   1.000  C
  C859     1.0000 0.86120  0.28806  0.36120  Biso   1.000  C
  C860     1.0000 0.13880  0.28806  0.63880  Biso   1.000  C
  C861     1.0000 0.21194  0.63880  0.36120  Biso   1.000  C
  C862     1.0000 0.21194  0.36120  0.63880  Biso   1.000  C
  C863     1.0000 0.78806  0.63880  0.63880  Biso   1.000  C
  C864     1.0000 0.78806  0.36120  0.36120  Biso   1.000  C
  O1       1.0000 0.09738  0.02896  0.13819  Biso   1.000  O
  O2       1.0000 0.90262  0.97104  0.13819  Biso   1.000  O
  O3       1.0000 0.90262  0.02896  0.86181  Biso   1.000  O
  O4       1.0000 0.09738  0.97104  0.86181  Biso   1.000  O
  O5       1.0000 0.13819  0.09738  0.02896  Biso   1.000  O
  O6       1.0000 0.13819  0.90262  0.97104  Biso   1.000  O
  O7       1.0000 0.86181  0.90262  0.02896  Biso   1.000  O
  O8       1.0000 0.86181  0.09738  0.97104  Biso   1.000  O
  O9       1.0000 0.02896  0.13819  0.09738  Biso   1.000  O
  O10      1.0000 0.97104  0.13819  0.90262  Biso   1.000  O
  O11      1.0000 0.02896  0.86181  0.90262  Biso   1.000  O
  O12      1.0000 0.97104  0.86181  0.09738  Biso   1.000  O
  O13      1.0000 0.02896  0.09738  0.86181  Biso   1.000  O
  O14      1.0000 0.97104  0.90262  0.86181  Biso   1.000  O
  O15      1.0000 0.02896  0.90262  0.13819  Biso   1.000  O
  O16      1.0000 0.97104  0.09738  0.13819  Biso   1.000  O
  O17      1.0000 0.09738  0.13819  0.97104  Biso   1.000  O
  O18      1.0000 0.90262  0.13819  0.02896  Biso   1.000  O
  O19      1.0000 0.90262  0.86181  0.97104  Biso   1.000  O
  O20      1.0000 0.09738  0.86181  0.02896  Biso   1.000  O
  O21      1.0000 0.13819  0.02896  0.90262  Biso   1.000  O
  O22      1.0000 0.13819  0.97104  0.09738  Biso   1.000  O
  O23      1.0000 0.86181  0.02896  0.09738  Biso   1.000  O
  O24      1.0000 0.86181  0.97104  0.90262  Biso   1.000  O
  O25      1.0000 0.59738  0.52896  0.13819  Biso   1.000  O
  O26      1.0000 0.40262  0.47104  0.13819  Biso   1.000  O
  O27      1.0000 0.40262  0.52896  0.86181  Biso   1.000  O
  O28      1.0000 0.59738  0.47104  0.86181  Biso   1.000  O
  O29      1.0000 0.63819  0.59738  0.02896  Biso   1.000  O
  O30      1.0000 0.63819  0.40262  0.97104  Biso   1.000  O
  O31      1.0000 0.36181  0.40262  0.02896  Biso   1.000  O
  O32      1.0000 0.36181  0.59738  0.97104  Biso   1.000  O
  O33      1.0000 0.52896  0.63819  0.09738  Biso   1.000  O
  O34      1.0000 0.47104  0.63819  0.90262  Biso   1.000  O
  O35      1.0000 0.52896  0.36181  0.90262  Biso   1.000  O
  O36      1.0000 0.47104  0.36181  0.09738  Biso   1.000  O
  O37      1.0000 0.52896  0.59738  0.86181  Biso   1.000  O
  O38      1.0000 0.47104  0.40262  0.86181  Biso   1.000  O
  O39      1.0000 0.52896  0.40262  0.13819  Biso   1.000  O
  O40      1.0000 0.47104  0.59738  0.13819  Biso   1.000  O
  O41      1.0000 0.59738  0.63819  0.97104  Biso   1.000  O
  O42      1.0000 0.40262  0.63819  0.02896  Biso   1.000  O
  O43      1.0000 0.40262  0.36181  0.97104  Biso   1.000  O
  O44      1.0000 0.59738  0.36181  0.02896  Biso   1.000  O
  O45      1.0000 0.63819  0.52896  0.90262  Biso   1.000  O
  O46      1.0000 0.63819  0.47104  0.09738  Biso   1.000  O
  O47      1.0000 0.36181  0.52896  0.09738  Biso   1.000  O
  O48      1.0000 0.36181  0.47104  0.90262  Biso   1.000  O
  O49      1.0000 0.59738  0.02896  0.63819  Biso   1.000  O
  O50      1.0000 0.40262  0.97104  0.63819  Biso   1.000  O
  O51      1.0000 0.40262  0.02896  0.36181  Biso   1.000  O
  O52      1.0000 0.59738  0.97104  0.36181  Biso   1.000  O
  O53      1.0000 0.63819  0.09738  0.52896  Biso   1.000  O
  O54      1.0000 0.63819  0.90262  0.47104  Biso   1.000  O
  O55      1.0000 0.36181  0.90262  0.52896  Biso   1.000  O
  O56      1.0000 0.36181  0.09738  0.47104  Biso   1.000  O
  O57      1.0000 0.52896  0.13819  0.59738  Biso   1.000  O
  O58      1.0000 0.47104  0.13819  0.40262  Biso   1.000  O
  O59      1.0000 0.52896  0.86181  0.40262  Biso   1.000  O
  O60      1.0000 0.47104  0.86181  0.59738  Biso   1.000  O
  O61      1.0000 0.52896  0.09738  0.36181  Biso   1.000  O
  O62      1.0000 0.47104  0.90262  0.36181  Biso   1.000  O
  O63      1.0000 0.52896  0.90262  0.63819  Biso   1.000  O
  O64      1.0000 0.47104  0.09738  0.63819  Biso   1.000  O
  O65      1.0000 0.59738  0.13819  0.47104  Biso   1.000  O
  O66      1.0000 0.40262  0.13819  0.52896  Biso   1.000  O
  O67      1.0000 0.40262  0.86181  0.47104  Biso   1.000  O
  O68      1.0000 0.59738  0.86181  0.52896  Biso   1.000  O
  O69      1.0000 0.63819  0.02896  0.40262  Biso   1.000  O
  O70      1.0000 0.63819  0.97104  0.59738  Biso   1.000  O
  O71      1.0000 0.36181  0.02896  0.59738  Biso   1.000  O
  O72      1.0000 0.36181  0.97104  0.40262  Biso   1.000  O
  O73      1.0000 0.09738  0.52896  0.63819  Biso   1.000  O
  O74      1.0000 0.90262  0.47104  0.63819  Biso   1.000  O
  O75      1.0000 0.90262  0.52896  0.36181  Biso   1.000  O
  O76      1.0000 0.09738  0.47104  0.36181  Biso   1.000  O
  O77      1.0000 0.13819  0.59738  0.52896  Biso   1.000  O
  O78      1.0000 0.13819  0.40262  0.47104  Biso   1.000  O
  O79      1.0000 0.86181  0.40262  0.52896  Biso   1.000  O
  O80      1.0000 0.86181  0.59738  0.47104  Biso   1.000  O
  O81      1.0000 0.02896  0.63819  0.59738  Biso   1.000  O
  O82      1.0000 0.97104  0.63819  0.40262  Biso   1.000  O
  O83      1.0000 0.02896  0.36181  0.40262  Biso   1.000  O
  O84      1.0000 0.97104  0.36181  0.59738  Biso   1.000  O
  O85      1.0000 0.02896  0.59738  0.36181  Biso   1.000  O
  O86      1.0000 0.97104  0.40262  0.36181  Biso   1.000  O
  O87      1.0000 0.02896  0.40262  0.63819  Biso   1.000  O
  O88      1.0000 0.97104  0.59738  0.63819  Biso   1.000  O
  O89      1.0000 0.09738  0.63819  0.47104  Biso   1.000  O
  O90      1.0000 0.90262  0.63819  0.52896  Biso   1.000  O
  O91      1.0000 0.90262  0.36181  0.47104  Biso   1.000  O
  O92      1.0000 0.09738  0.36181  0.52896  Biso   1.000  O
  O93      1.0000 0.13819  0.52896  0.40262  Biso   1.000  O
  O94      1.0000 0.13819  0.47104  0.59738  Biso   1.000  O
  O95      1.0000 0.86181  0.52896  0.59738  Biso   1.000  O
  O96      1.0000 0.86181  0.47104  0.40262  Biso   1.000  O
  O97      1.0000 0.90262  0.97104  0.86181  Biso   1.000  O
  O98      1.0000 0.09738  0.02896  0.86181  Biso   1.000  O
  O99      1.0000 0.09738  0.97104  0.13819  Biso   1.000  O
  O100     1.0000 0.90262  0.02896  0.13819  Biso   1.000  O
  O101     1.0000 0.86181  0.90262  0.97104  Biso   1.000  O
  O102     1.0000 0.86181  0.09738  0.02896  Biso   1.000  O
  O103     1.0000 0.13819  0.09738  0.97104  Biso   1.000  O
  O104     1.0000 0.13819  0.90262  0.02896  Biso   1.000  O
  O105     1.0000 0.97104  0.86181  0.90262  Biso   1.000  O
  O106     1.0000 0.02896  0.86181  0.09738  Biso   1.000  O
  O107     1.0000 0.97104  0.13819  0.09738  Biso   1.000  O
  O108     1.0000 0.02896  0.13819  0.90262  Biso   1.000  O
  O109     1.0000 0.97104  0.90262  0.13819  Biso   1.000  O
  O110     1.0000 0.02896  0.09738  0.13819  Biso   1.000  O
  O111     1.0000 0.97104  0.09738  0.86181  Biso   1.000  O
  O112     1.0000 0.02896  0.90262  0.86181  Biso   1.000  O
  O113     1.0000 0.90262  0.86181  0.02896  Biso   1.000  O
  O114     1.0000 0.09738  0.86181  0.97104  Biso   1.000  O
  O115     1.0000 0.09738  0.13819  0.02896  Biso   1.000  O
  O116     1.0000 0.90262  0.13819  0.97104  Biso   1.000  O
  O117     1.0000 0.86181  0.97104  0.09738  Biso   1.000  O
  O118     1.0000 0.86181  0.02896  0.90262  Biso   1.000  O
  O119     1.0000 0.13819  0.97104  0.90262  Biso   1.000  O
  O120     1.0000 0.13819  0.02896  0.09738  Biso   1.000  O
  O121     1.0000 0.40262  0.47104  0.86181  Biso   1.000  O
  O122     1.0000 0.59738  0.52896  0.86181  Biso   1.000  O
  O123     1.0000 0.59738  0.47104  0.13819  Biso   1.000  O
  O124     1.0000 0.40262  0.52896  0.13819  Biso   1.000  O
  O125     1.0000 0.36181  0.40262  0.97104  Biso   1.000  O
  O126     1.0000 0.36181  0.59738  0.02896  Biso   1.000  O
  O127     1.0000 0.63819  0.59738  0.97104  Biso   1.000  O
  O128     1.0000 0.63819  0.40262  0.02896  Biso   1.000  O
  O129     1.0000 0.47104  0.36181  0.90262  Biso   1.000  O
  O130     1.0000 0.52896  0.36181  0.09738  Biso   1.000  O
  O131     1.0000 0.47104  0.63819  0.09738  Biso   1.000  O
  O132     1.0000 0.52896  0.63819  0.90262  Biso   1.000  O
  O133     1.0000 0.47104  0.40262  0.13819  Biso   1.000  O
  O134     1.0000 0.52896  0.59738  0.13819  Biso   1.000  O
  O135     1.0000 0.47104  0.59738  0.86181  Biso   1.000  O
  O136     1.0000 0.52896  0.40262  0.86181  Biso   1.000  O
  O137     1.0000 0.40262  0.36181  0.02896  Biso   1.000  O
  O138     1.0000 0.59738  0.36181  0.97104  Biso   1.000  O
  O139     1.0000 0.59738  0.63819  0.02896  Biso   1.000  O
  O140     1.0000 0.40262  0.63819  0.97104  Biso   1.000  O
  O141     1.0000 0.36181  0.47104  0.09738  Biso   1.000  O
  O142     1.0000 0.36181  0.52896  0.90262  Biso   1.000  O
  O143     1.0000 0.63819  0.47104  0.90262  Biso   1.000  O
  O144     1.0000 0.63819  0.52896  0.09738  Biso   1.000  O
  O145     1.0000 0.40262  0.97104  0.36181  Biso   1.000  O
  O146     1.0000 0.59738  0.02896  0.36181  Biso   1.000  O
  O147     1.0000 0.59738  0.97104  0.63819  Biso   1.000  O
  O148     1.0000 0.40262  0.02896  0.63819  Biso   1.000  O
  O149     1.0000 0.36181  0.90262  0.47104  Biso   1.000  O
  O150     1.0000 0.36181  0.09738  0.52896  Biso   1.000  O
  O151     1.0000 0.63819  0.09738  0.47104  Biso   1.000  O
  O152     1.0000 0.63819  0.90262  0.52896  Biso   1.000  O
  O153     1.0000 0.47104  0.86181  0.40262  Biso   1.000  O
  O154     1.0000 0.52896  0.86181  0.59738  Biso   1.000  O
  O155     1.0000 0.47104  0.13819  0.59738  Biso   1.000  O
  O156     1.0000 0.52896  0.13819  0.40262  Biso   1.000  O
  O157     1.0000 0.47104  0.90262  0.63819  Biso   1.000  O
  O158     1.0000 0.52896  0.09738  0.63819  Biso   1.000  O
  O159     1.0000 0.47104  0.09738  0.36181  Biso   1.000  O
  O160     1.0000 0.52896  0.90262  0.36181  Biso   1.000  O
  O161     1.0000 0.40262  0.86181  0.52896  Biso   1.000  O
  O162     1.0000 0.59738  0.86181  0.47104  Biso   1.000  O
  O163     1.0000 0.59738  0.13819  0.52896  Biso   1.000  O
  O164     1.0000 0.40262  0.13819  0.47104  Biso   1.000  O
  O165     1.0000 0.36181  0.97104  0.59738  Biso   1.000  O
  O166     1.0000 0.36181  0.02896  0.40262  Biso   1.000  O
  O167     1.0000 0.63819  0.97104  0.40262  Biso   1.000  O
  O168     1.0000 0.63819  0.02896  0.59738  Biso   1.000  O
  O169     1.0000 0.90262  0.47104  0.36181  Biso   1.000  O
  O170     1.0000 0.09738  0.52896  0.36181  Biso   1.000  O
  O171     1.0000 0.09738  0.47104  0.63819  Biso   1.000  O
  O172     1.0000 0.90262  0.52896  0.63819  Biso   1.000  O
  O173     1.0000 0.86181  0.40262  0.47104  Biso   1.000  O
  O174     1.0000 0.86181  0.59738  0.52896  Biso   1.000  O
  O175     1.0000 0.13819  0.59738  0.47104  Biso   1.000  O
  O176     1.0000 0.13819  0.40262  0.52896  Biso   1.000  O
  O177     1.0000 0.97104  0.36181  0.40262  Biso   1.000  O
  O178     1.0000 0.02896  0.36181  0.59738  Biso   1.000  O
  O179     1.0000 0.97104  0.63819  0.59738  Biso   1.000  O
  O180     1.0000 0.02896  0.63819  0.40262  Biso   1.000  O
  O181     1.0000 0.97104  0.40262  0.63819  Biso   1.000  O
  O182     1.0000 0.02896  0.59738  0.63819  Biso   1.000  O
  O183     1.0000 0.97104  0.59738  0.36181  Biso   1.000  O
  O184     1.0000 0.02896  0.40262  0.36181  Biso   1.000  O
  O185     1.0000 0.90262  0.36181  0.52896  Biso   1.000  O
  O186     1.0000 0.09738  0.36181  0.47104  Biso   1.000  O
  O187     1.0000 0.09738  0.63819  0.52896  Biso   1.000  O
  O188     1.0000 0.90262  0.63819  0.47104  Biso   1.000  O
  O189     1.0000 0.86181  0.47104  0.59738  Biso   1.000  O
  O190     1.0000 0.86181  0.52896  0.40262  Biso   1.000  O
  O191     1.0000 0.13819  0.47104  0.40262  Biso   1.000  O
  O192     1.0000 0.13819  0.52896  0.59738  Biso   1.000  O
  O193     1.0000 0.13605  0.02905  0.17698  Biso   1.000  O
  O194     1.0000 0.86395  0.97095  0.17698  Biso   1.000  O
  O195     1.0000 0.86395  0.02905  0.82302  Biso   1.000  O
  O196     1.0000 0.13605  0.97095  0.82302  Biso   1.000  O
  O197     1.0000 0.17698  0.13605  0.02905  Biso   1.000  O
  O198     1.0000 0.17698  0.86395  0.97095  Biso   1.000  O
  O199     1.0000 0.82302  0.86395  0.02905  Biso   1.000  O
  O200     1.0000 0.82302  0.13605  0.97095  Biso   1.000  O
  O201     1.0000 0.02905  0.17698  0.13605  Biso   1.000  O
  O202     1.0000 0.97095  0.17698  0.86395  Biso   1.000  O
  O203     1.0000 0.02905  0.82302  0.86395  Biso   1.000  O
  O204     1.0000 0.97095  0.82302  0.13605  Biso   1.000  O
  O205     1.0000 0.02905  0.13605  0.82302  Biso   1.000  O
  O206     1.0000 0.97095  0.86395  0.82302  Biso   1.000  O
  O207     1.0000 0.02905  0.86395  0.17698  Biso   1.000  O
  O208     1.0000 0.97095  0.13605  0.17698  Biso   1.000  O
  O209     1.0000 0.13605  0.17698  0.97095  Biso   1.000  O
  O210     1.0000 0.86395  0.17698  0.02905  Biso   1.000  O
  O211     1.0000 0.86395  0.82302  0.97095  Biso   1.000  O
  O212     1.0000 0.13605  0.82302  0.02905  Biso   1.000  O
  O213     1.0000 0.17698  0.02905  0.86395  Biso   1.000  O
  O214     1.0000 0.17698  0.97095  0.13605  Biso   1.000  O
  O215     1.0000 0.82302  0.02905  0.13605  Biso   1.000  O
  O216     1.0000 0.82302  0.97095  0.86395  Biso   1.000  O
  O217     1.0000 0.63605  0.52905  0.17698  Biso   1.000  O
  O218     1.0000 0.36395  0.47095  0.17698  Biso   1.000  O
  O219     1.0000 0.36395  0.52905  0.82302  Biso   1.000  O
  O220     1.0000 0.63605  0.47095  0.82302  Biso   1.000  O
  O221     1.0000 0.67698  0.63605  0.02905  Biso   1.000  O
  O222     1.0000 0.67698  0.36395  0.97095  Biso   1.000  O
  O223     1.0000 0.32302  0.36395  0.02905  Biso   1.000  O
  O224     1.0000 0.32302  0.63605  0.97095  Biso   1.000  O
  O225     1.0000 0.52905  0.67698  0.13605  Biso   1.000  O
  O226     1.0000 0.47095  0.67698  0.86395  Biso   1.000  O
  O227     1.0000 0.52905  0.32302  0.86395  Biso   1.000  O
  O228     1.0000 0.47095  0.32302  0.13605  Biso   1.000  O
  O229     1.0000 0.52905  0.63605  0.82302  Biso   1.000  O
  O230     1.0000 0.47095  0.36395  0.82302  Biso   1.000  O
  O231     1.0000 0.52905  0.36395  0.17698  Biso   1.000  O
  O232     1.0000 0.47095  0.63605  0.17698  Biso   1.000  O
  O233     1.0000 0.63605  0.67698  0.97095  Biso   1.000  O
  O234     1.0000 0.36395  0.67698  0.02905  Biso   1.000  O
  O235     1.0000 0.36395  0.32302  0.97095  Biso   1.000  O
  O236     1.0000 0.63605  0.32302  0.02905  Biso   1.000  O
  O237     1.0000 0.67698  0.52905  0.86395  Biso   1.000  O
  O238     1.0000 0.67698  0.47095  0.13605  Biso   1.000  O
  O239     1.0000 0.32302  0.52905  0.13605  Biso   1.000  O
  O240     1.0000 0.32302  0.47095  0.86395  Biso   1.000  O
  O241     1.0000 0.63605  0.02905  0.67698  Biso   1.000  O
  O242     1.0000 0.36395  0.97095  0.67698  Biso   1.000  O
  O243     1.0000 0.36395  0.02905  0.32302  Biso   1.000  O
  O244     1.0000 0.63605  0.97095  0.32302  Biso   1.000  O
  O245     1.0000 0.67698  0.13605  0.52905  Biso   1.000  O
  O246     1.0000 0.67698  0.86395  0.47095  Biso   1.000  O
  O247     1.0000 0.32302  0.86395  0.52905  Biso   1.000  O
  O248     1.0000 0.32302  0.13605  0.47095  Biso   1.000  O
  O249     1.0000 0.52905  0.17698  0.63605  Biso   1.000  O
  O250     1.0000 0.47095  0.17698  0.36395  Biso   1.000  O
  O251     1.0000 0.52905  0.82302  0.36395  Biso   1.000  O
  O252     1.0000 0.47095  0.82302  0.63605  Biso   1.000  O
  O253     1.0000 0.52905  0.13605  0.32302  Biso   1.000  O
  O254     1.0000 0.47095  0.86395  0.32302  Biso   1.000  O
  O255     1.0000 0.52905  0.86395  0.67698  Biso   1.000  O
  O256     1.0000 0.47095  0.13605  0.67698  Biso   1.000  O
  O257     1.0000 0.63605  0.17698  0.47095  Biso   1.000  O
  O258     1.0000 0.36395  0.17698  0.52905  Biso   1.000  O
  O259     1.0000 0.36395  0.82302  0.47095  Biso   1.000  O
  O260     1.0000 0.63605  0.82302  0.52905  Biso   1.000  O
  O261     1.0000 0.67698  0.02905  0.36395  Biso   1.000  O
  O262     1.0000 0.67698  0.97095  0.63605  Biso   1.000  O
  O263     1.0000 0.32302  0.02905  0.63605  Biso   1.000  O
  O264     1.0000 0.32302  0.97095  0.36395  Biso   1.000  O
  O265     1.0000 0.13605  0.52905  0.67698  Biso   1.000  O
  O266     1.0000 0.86395  0.47095  0.67698  Biso   1.000  O
  O267     1.0000 0.86395  0.52905  0.32302  Biso   1.000  O
  O268     1.0000 0.13605  0.47095  0.32302  Biso   1.000  O
  O269     1.0000 0.17698  0.63605  0.52905  Biso   1.000  O
  O270     1.0000 0.17698  0.36395  0.47095  Biso   1.000  O
  O271     1.0000 0.82302  0.36395  0.52905  Biso   1.000  O
  O272     1.0000 0.82302  0.63605  0.47095  Biso   1.000  O
  O273     1.0000 0.02905  0.67698  0.63605  Biso   1.000  O
  O274     1.0000 0.97095  0.67698  0.36395  Biso   1.000  O
  O275     1.0000 0.02905  0.32302  0.36395  Biso   1.000  O
  O276     1.0000 0.97095  0.32302  0.63605  Biso   1.000  O
  O277     1.0000 0.02905  0.63605  0.32302  Biso   1.000  O
  O278     1.0000 0.97095  0.36395  0.32302  Biso   1.000  O
  O279     1.0000 0.02905  0.36395  0.67698  Biso   1.000  O
  O280     1.0000 0.97095  0.63605  0.67698  Biso   1.000  O
  O281     1.0000 0.13605  0.67698  0.47095  Biso   1.000  O
  O282     1.0000 0.86395  0.67698  0.52905  Biso   1.000  O
  O283     1.0000 0.86395  0.32302  0.47095  Biso   1.000  O
  O284     1.0000 0.13605  0.32302  0.52905  Biso   1.000  O
  O285     1.0000 0.17698  0.52905  0.36395  Biso   1.000  O
  O286     1.0000 0.17698  0.47095  0.63605  Biso   1.000  O
  O287     1.0000 0.82302  0.52905  0.63605  Biso   1.000  O
  O288     1.0000 0.82302  0.47095  0.36395  Biso   1.000  O
  O289     1.0000 0.86395  0.97095  0.82302  Biso   1.000  O
  O290     1.0000 0.13605  0.02905  0.82302  Biso   1.000  O
  O291     1.0000 0.13605  0.97095  0.17698  Biso   1.000  O
  O292     1.0000 0.86395  0.02905  0.17698  Biso   1.000  O
  O293     1.0000 0.82302  0.86395  0.97095  Biso   1.000  O
  O294     1.0000 0.82302  0.13605  0.02905  Biso   1.000  O
  O295     1.0000 0.17698  0.13605  0.97095  Biso   1.000  O
  O296     1.0000 0.17698  0.86395  0.02905  Biso   1.000  O
  O297     1.0000 0.97095  0.82302  0.86395  Biso   1.000  O
  O298     1.0000 0.02905  0.82302  0.13605  Biso   1.000  O
  O299     1.0000 0.97095  0.17698  0.13605  Biso   1.000  O
  O300     1.0000 0.02905  0.17698  0.86395  Biso   1.000  O
  O301     1.0000 0.97095  0.86395  0.17698  Biso   1.000  O
  O302     1.0000 0.02905  0.13605  0.17698  Biso   1.000  O
  O303     1.0000 0.97095  0.13605  0.82302  Biso   1.000  O
  O304     1.0000 0.02905  0.86395  0.82302  Biso   1.000  O
  O305     1.0000 0.86395  0.82302  0.02905  Biso   1.000  O
  O306     1.0000 0.13605  0.82302  0.97095  Biso   1.000  O
  O307     1.0000 0.13605  0.17698  0.02905  Biso   1.000  O
  O308     1.0000 0.86395  0.17698  0.97095  Biso   1.000  O
  O309     1.0000 0.82302  0.97095  0.13605  Biso   1.000  O
  O310     1.0000 0.82302  0.02905  0.86395  Biso   1.000  O
  O311     1.0000 0.17698  0.97095  0.86395  Biso   1.000  O
  O312     1.0000 0.17698  0.02905  0.13605  Biso   1.000  O
  O313     1.0000 0.36395  0.47095  0.82302  Biso   1.000  O
  O314     1.0000 0.63605  0.52905  0.82302  Biso   1.000  O
  O315     1.0000 0.63605  0.47095  0.17698  Biso   1.000  O
  O316     1.0000 0.36395  0.52905  0.17698  Biso   1.000  O
  O317     1.0000 0.32302  0.36395  0.97095  Biso   1.000  O
  O318     1.0000 0.32302  0.63605  0.02905  Biso   1.000  O
  O319     1.0000 0.67698  0.63605  0.97095  Biso   1.000  O
  O320     1.0000 0.67698  0.36395  0.02905  Biso   1.000  O
  O321     1.0000 0.47095  0.32302  0.86395  Biso   1.000  O
  O322     1.0000 0.52905  0.32302  0.13605  Biso   1.000  O
  O323     1.0000 0.47095  0.67698  0.13605  Biso   1.000  O
  O324     1.0000 0.52905  0.67698  0.86395  Biso   1.000  O
  O325     1.0000 0.47095  0.36395  0.17698  Biso   1.000  O
  O326     1.0000 0.52905  0.63605  0.17698  Biso   1.000  O
  O327     1.0000 0.47095  0.63605  0.82302  Biso   1.000  O
  O328     1.0000 0.52905  0.36395  0.82302  Biso   1.000  O
  O329     1.0000 0.36395  0.32302  0.02905  Biso   1.000  O
  O330     1.0000 0.63605  0.32302  0.97095  Biso   1.000  O
  O331     1.0000 0.63605  0.67698  0.02905  Biso   1.000  O
  O332     1.0000 0.36395  0.67698  0.97095  Biso   1.000  O
  O333     1.0000 0.32302  0.47095  0.13605  Biso   1.000  O
  O334     1.0000 0.32302  0.52905  0.86395  Biso   1.000  O
  O335     1.0000 0.67698  0.47095  0.86395  Biso   1.000  O
  O336     1.0000 0.67698  0.52905  0.13605  Biso   1.000  O
  O337     1.0000 0.36395  0.97095  0.32302  Biso   1.000  O
  O338     1.0000 0.63605  0.02905  0.32302  Biso   1.000  O
  O339     1.0000 0.63605  0.97095  0.67698  Biso   1.000  O
  O340     1.0000 0.36395  0.02905  0.67698  Biso   1.000  O
  O341     1.0000 0.32302  0.86395  0.47095  Biso   1.000  O
  O342     1.0000 0.32302  0.13605  0.52905  Biso   1.000  O
  O343     1.0000 0.67698  0.13605  0.47095  Biso   1.000  O
  O344     1.0000 0.67698  0.86395  0.52905  Biso   1.000  O
  O345     1.0000 0.47095  0.82302  0.36395  Biso   1.000  O
  O346     1.0000 0.52905  0.82302  0.63605  Biso   1.000  O
  O347     1.0000 0.47095  0.17698  0.63605  Biso   1.000  O
  O348     1.0000 0.52905  0.17698  0.36395  Biso   1.000  O
  O349     1.0000 0.47095  0.86395  0.67698  Biso   1.000  O
  O350     1.0000 0.52905  0.13605  0.67698  Biso   1.000  O
  O351     1.0000 0.47095  0.13605  0.32302  Biso   1.000  O
  O352     1.0000 0.52905  0.86395  0.32302  Biso   1.000  O
  O353     1.0000 0.36395  0.82302  0.52905  Biso   1.000  O
  O354     1.0000 0.63605  0.82302  0.47095  Biso   1.000  O
  O355     1.0000 0.63605  0.17698  0.52905  Biso   1.000  O
  O356     1.0000 0.36395  0.17698  0.47095  Biso   1.000  O
  O357     1.0000 0.32302  0.97095  0.63605  Biso   1.000  O
  O358     1.0000 0.32302  0.02905  0.36395  Biso   1.000  O
  O359     1.0000 0.67698  0.97095  0.36395  Biso   1.000  O
  O360     1.0000 0.67698  0.02905  0.63605  Biso   1.000  O
  O361     1.0000 0.86395  0.47095  0.32302  Biso   1.000  O
  O362     1.0000 0.13605  0.52905  0.32302  Biso   1.000  O
  O363     1.0000 0.13605  0.47095  0.67698  Biso   1.000  O
  O364     1.0000 0.86395  0.52905  0.67698  Biso   1.000  O
  O365     1.0000 0.82302  0.36395  0.47095  Biso   1.000  O
  O366     1.0000 0.82302  0.63605  0.52905  Biso   1.000  O
  O367     1.0000 0.17698  0.63605  0.47095  Biso   1.000  O
  O368     1.0000 0.17698  0.36395  0.52905  Biso   1.000  O
  O369     1.0000 0.97095  0.32302  0.36395  Biso   1.000  O
  O370     1.0000 0.02905  0.32302  0.63605  Biso   1.000  O
  O371     1.0000 0.97095  0.67698  0.63605  Biso   1.000  O
  O372     1.0000 0.02905  0.67698  0.36395  Biso   1.000  O
  O373     1.0000 0.97095  0.36395  0.67698  Biso   1.000  O
  O374     1.0000 0.02905  0.63605  0.67698  Biso   1.000  O
  O375     1.0000 0.97095  0.63605  0.32302  Biso   1.000  O
  O376     1.0000 0.02905  0.36395  0.32302  Biso   1.000  O
  O377     1.0000 0.86395  0.32302  0.52905  Biso   1.000  O
  O378     1.0000 0.13605  0.32302  0.47095  Biso   1.000  O
  O379     1.0000 0.13605  0.67698  0.52905  Biso   1.000  O
  O380     1.0000 0.86395  0.67698  0.47095  Biso   1.000  O
  O381     1.0000 0.82302  0.47095  0.63605  Biso   1.000  O
  O382     1.0000 0.82302  0.52905  0.36395  Biso   1.000  O
  O383     1.0000 0.17698  0.47095  0.36395  Biso   1.000  O
  O384     1.0000 0.17698  0.52905  0.63605  Biso   1.000  O
  O385     1.0000 0.14411  0.14411  0.18492  Biso   1.000  O
  O386     1.0000 0.85589  0.85589  0.18492  Biso   1.000  O
  O387     1.0000 0.85589  0.14411  0.81508  Biso   1.000  O
  O388     1.0000 0.14411  0.85589  0.81508  Biso   1.000  O
  O389     1.0000 0.18492  0.14411  0.14411  Biso   1.000  O
  O390     1.0000 0.18492  0.85589  0.85589  Biso   1.000  O
  O391     1.0000 0.81508  0.85589  0.14411  Biso   1.000  O
  O392     1.0000 0.81508  0.14411  0.85589  Biso   1.000  O
  O393     1.0000 0.14411  0.18492  0.14411  Biso   1.000  O
  O394     1.0000 0.85589  0.18492  0.85589  Biso   1.000  O
  O395     1.0000 0.14411  0.81508  0.85589  Biso   1.000  O
  O396     1.0000 0.85589  0.81508  0.14411  Biso   1.000  O
  O397     1.0000 0.14411  0.14411  0.81508  Biso   1.000  O
  O398     1.0000 0.85589  0.85589  0.81508  Biso   1.000  O
  O399     1.0000 0.14411  0.85589  0.18492  Biso   1.000  O
  O400     1.0000 0.85589  0.14411  0.18492  Biso   1.000  O
  O401     1.0000 0.14411  0.18492  0.85589  Biso   1.000  O
  O402     1.0000 0.85589  0.18492  0.14411  Biso   1.000  O
  O403     1.0000 0.85589  0.81508  0.85589  Biso   1.000  O
  O404     1.0000 0.14411  0.81508  0.14411  Biso   1.000  O
  O405     1.0000 0.18492  0.14411  0.85589  Biso   1.000  O
  O406     1.0000 0.18492  0.85589  0.14411  Biso   1.000  O
  O407     1.0000 0.81508  0.14411  0.14411  Biso   1.000  O
  O408     1.0000 0.81508  0.85589  0.85589  Biso   1.000  O
  O409     1.0000 0.64411  0.64411  0.18492  Biso   1.000  O
  O410     1.0000 0.35589  0.35589  0.18492  Biso   1.000  O
  O411     1.0000 0.35589  0.64411  0.81508  Biso   1.000  O
  O412     1.0000 0.64411  0.35589  0.81508  Biso   1.000  O
  O413     1.0000 0.68492  0.64411  0.14411  Biso   1.000  O
  O414     1.0000 0.68492  0.35589  0.85589  Biso   1.000  O
  O415     1.0000 0.31508  0.35589  0.14411  Biso   1.000  O
  O416     1.0000 0.31508  0.64411  0.85589  Biso   1.000  O
  O417     1.0000 0.64411  0.68492  0.14411  Biso   1.000  O
  O418     1.0000 0.35589  0.68492  0.85589  Biso   1.000  O
  O419     1.0000 0.64411  0.31508  0.85589  Biso   1.000  O
  O420     1.0000 0.35589  0.31508  0.14411  Biso   1.000  O
  O421     1.0000 0.64411  0.64411  0.81508  Biso   1.000  O
  O422     1.0000 0.35589  0.35589  0.81508  Biso   1.000  O
  O423     1.0000 0.64411  0.35589  0.18492  Biso   1.000  O
  O424     1.0000 0.35589  0.64411  0.18492  Biso   1.000  O
  O425     1.0000 0.64411  0.68492  0.85589  Biso   1.000  O
  O426     1.0000 0.35589  0.68492  0.14411  Biso   1.000  O
  O427     1.0000 0.35589  0.31508  0.85589  Biso   1.000  O
  O428     1.0000 0.64411  0.31508  0.14411  Biso   1.000  O
  O429     1.0000 0.68492  0.64411  0.85589  Biso   1.000  O
  O430     1.0000 0.68492  0.35589  0.14411  Biso   1.000  O
  O431     1.0000 0.31508  0.64411  0.14411  Biso   1.000  O
  O432     1.0000 0.31508  0.35589  0.85589  Biso   1.000  O
  O433     1.0000 0.64411  0.14411  0.68492  Biso   1.000  O
  O434     1.0000 0.35589  0.85589  0.68492  Biso   1.000  O
  O435     1.0000 0.35589  0.14411  0.31508  Biso   1.000  O
  O436     1.0000 0.64411  0.85589  0.31508  Biso   1.000  O
  O437     1.0000 0.68492  0.14411  0.64411  Biso   1.000  O
  O438     1.0000 0.68492  0.85589  0.35589  Biso   1.000  O
  O439     1.0000 0.31508  0.85589  0.64411  Biso   1.000  O
  O440     1.0000 0.31508  0.14411  0.35589  Biso   1.000  O
  O441     1.0000 0.64411  0.18492  0.64411  Biso   1.000  O
  O442     1.0000 0.35589  0.18492  0.35589  Biso   1.000  O
  O443     1.0000 0.64411  0.81508  0.35589  Biso   1.000  O
  O444     1.0000 0.35589  0.81508  0.64411  Biso   1.000  O
  O445     1.0000 0.64411  0.14411  0.31508  Biso   1.000  O
  O446     1.0000 0.35589  0.85589  0.31508  Biso   1.000  O
  O447     1.0000 0.64411  0.85589  0.68492  Biso   1.000  O
  O448     1.0000 0.35589  0.14411  0.68492  Biso   1.000  O
  O449     1.0000 0.64411  0.18492  0.35589  Biso   1.000  O
  O450     1.0000 0.35589  0.18492  0.64411  Biso   1.000  O
  O451     1.0000 0.35589  0.81508  0.35589  Biso   1.000  O
  O452     1.0000 0.64411  0.81508  0.64411  Biso   1.000  O
  O453     1.0000 0.68492  0.14411  0.35589  Biso   1.000  O
  O454     1.0000 0.68492  0.85589  0.64411  Biso   1.000  O
  O455     1.0000 0.31508  0.14411  0.64411  Biso   1.000  O
  O456     1.0000 0.31508  0.85589  0.35589  Biso   1.000  O
  O457     1.0000 0.14411  0.64411  0.68492  Biso   1.000  O
  O458     1.0000 0.85589  0.35589  0.68492  Biso   1.000  O
  O459     1.0000 0.85589  0.64411  0.31508  Biso   1.000  O
  O460     1.0000 0.14411  0.35589  0.31508  Biso   1.000  O
  O461     1.0000 0.18492  0.64411  0.64411  Biso   1.000  O
  O462     1.0000 0.18492  0.35589  0.35589  Biso   1.000  O
  O463     1.0000 0.81508  0.35589  0.64411  Biso   1.000  O
  O464     1.0000 0.81508  0.64411  0.35589  Biso   1.000  O
  O465     1.0000 0.14411  0.68492  0.64411  Biso   1.000  O
  O466     1.0000 0.85589  0.68492  0.35589  Biso   1.000  O
  O467     1.0000 0.14411  0.31508  0.35589  Biso   1.000  O
  O468     1.0000 0.85589  0.31508  0.64411  Biso   1.000  O
  O469     1.0000 0.14411  0.64411  0.31508  Biso   1.000  O
  O470     1.0000 0.85589  0.35589  0.31508  Biso   1.000  O
  O471     1.0000 0.14411  0.35589  0.68492  Biso   1.000  O
  O472     1.0000 0.85589  0.64411  0.68492  Biso   1.000  O
  O473     1.0000 0.14411  0.68492  0.35589  Biso   1.000  O
  O474     1.0000 0.85589  0.68492  0.64411  Biso   1.000  O
  O475     1.0000 0.85589  0.31508  0.35589  Biso   1.000  O
  O476     1.0000 0.14411  0.31508  0.64411  Biso   1.000  O
  O477     1.0000 0.18492  0.64411  0.35589  Biso   1.000  O
  O478     1.0000 0.18492  0.35589  0.64411  Biso   1.000  O
  O479     1.0000 0.81508  0.64411  0.64411  Biso   1.000  O
  O480     1.0000 0.81508  0.35589  0.35589  Biso   1.000  O
  O481     1.0000 0.18746  0.00000  0.18746  Biso   1.000  O
  O482     1.0000 0.81254  0.00000  0.18746  Biso   1.000  O
  O483     1.0000 0.81254  0.00000  0.81254  Biso   1.000  O
  O484     1.0000 0.18746  0.00000  0.81254  Biso   1.000  O
  O485     1.0000 0.18746  0.18746  0.00000  Biso   1.000  O
  O486     1.0000 0.18746  0.81254  0.00000  Biso   1.000  O
  O487     1.0000 0.81254  0.81254  0.00000  Biso   1.000  O
  O488     1.0000 0.81254  0.18746  0.00000  Biso   1.000  O
  O489     1.0000 0.00000  0.18746  0.18746  Biso   1.000  O
  O490     1.0000 0.00000  0.18746  0.81254  Biso   1.000  O
  O491     1.0000 0.00000  0.81254  0.81254  Biso   1.000  O
  O492     1.0000 0.00000  0.81254  0.18746  Biso   1.000  O
  O493     1.0000 0.68746  0.50000  0.18746  Biso   1.000  O
  O494     1.0000 0.31254  0.50000  0.18746  Biso   1.000  O
  O495     1.0000 0.31254  0.50000  0.81254  Biso   1.000  O
  O496     1.0000 0.68746  0.50000  0.81254  Biso   1.000  O
  O497     1.0000 0.68746  0.68746  0.00000  Biso   1.000  O
  O498     1.0000 0.68746  0.31254  0.00000  Biso   1.000  O
  O499     1.0000 0.31254  0.31254  0.00000  Biso   1.000  O
  O500     1.0000 0.31254  0.68746  0.00000  Biso   1.000  O
  O501     1.0000 0.50000  0.68746  0.18746  Biso   1.000  O
  O502     1.0000 0.50000  0.68746  0.81254  Biso   1.000  O
  O503     1.0000 0.50000  0.31254  0.81254  Biso   1.000  O
  O504     1.0000 0.50000  0.31254  0.18746  Biso   1.000  O
  O505     1.0000 0.68746  0.00000  0.68746  Biso   1.000  O
  O506     1.0000 0.31254  0.00000  0.68746  Biso   1.000  O
  O507     1.0000 0.31254  0.00000  0.31254  Biso   1.000  O
  O508     1.0000 0.68746  0.00000  0.31254  Biso   1.000  O
  O509     1.0000 0.68746  0.18746  0.50000  Biso   1.000  O
  O510     1.0000 0.68746  0.81254  0.50000  Biso   1.000  O
  O511     1.0000 0.31254  0.81254  0.50000  Biso   1.000  O
  O512     1.0000 0.31254  0.18746  0.50000  Biso   1.000  O
  O513     1.0000 0.50000  0.18746  0.68746  Biso   1.000  O
  O514     1.0000 0.50000  0.18746  0.31254  Biso   1.000  O
  O515     1.0000 0.50000  0.81254  0.31254  Biso   1.000  O
  O516     1.0000 0.50000  0.81254  0.68746  Biso   1.000  O
  O517     1.0000 0.18746  0.50000  0.68746  Biso   1.000  O
  O518     1.0000 0.81254  0.50000  0.68746  Biso   1.000  O
  O519     1.0000 0.81254  0.50000  0.31254  Biso   1.000  O
  O520     1.0000 0.18746  0.50000  0.31254  Biso   1.000  O
  O521     1.0000 0.18746  0.68746  0.50000  Biso   1.000  O
  O522     1.0000 0.18746  0.31254  0.50000  Biso   1.000  O
  O523     1.0000 0.81254  0.31254  0.50000  Biso   1.000  O
  O524     1.0000 0.81254  0.68746  0.50000  Biso   1.000  O
  O525     1.0000 0.00000  0.68746  0.68746  Biso   1.000  O
  O526     1.0000 0.00000  0.68746  0.31254  Biso   1.000  O
  O527     1.0000 0.00000  0.31254  0.31254  Biso   1.000  O
  O528     1.0000 0.00000  0.31254  0.68746  Biso   1.000  O
  N1       1.0000 0.11860  0.11860  0.21983  Biso   1.000  N
  N2       1.0000 0.88140  0.88140  0.21983  Biso   1.000  N
  N3       1.0000 0.88140  0.11860  0.78017  Biso   1.000  N
  N4       1.0000 0.11860  0.88140  0.78017  Biso   1.000  N
  N5       1.0000 0.21983  0.11860  0.11860  Biso   1.000  N
  N6       1.0000 0.21983  0.88140  0.88140  Biso   1.000  N
  N7       1.0000 0.78017  0.88140  0.11860  Biso   1.000  N
  N8       1.0000 0.78017  0.11860  0.88140  Biso   1.000  N
  N9       1.0000 0.11860  0.21983  0.11860  Biso   1.000  N
  N10      1.0000 0.88140  0.21983  0.88140  Biso   1.000  N
  N11      1.0000 0.11860  0.78017  0.88140  Biso   1.000  N
  N12      1.0000 0.88140  0.78017  0.11860  Biso   1.000  N
  N13      1.0000 0.11860  0.11860  0.78017  Biso   1.000  N
  N14      1.0000 0.88140  0.88140  0.78017  Biso   1.000  N
  N15      1.0000 0.11860  0.88140  0.21983  Biso   1.000  N
  N16      1.0000 0.88140  0.11860  0.21983  Biso   1.000  N
  N17      1.0000 0.11860  0.21983  0.88140  Biso   1.000  N
  N18      1.0000 0.88140  0.21983  0.11860  Biso   1.000  N
  N19      1.0000 0.88140  0.78017  0.88140  Biso   1.000  N
  N20      1.0000 0.11860  0.78017  0.11860  Biso   1.000  N
  N21      1.0000 0.21983  0.11860  0.88140  Biso   1.000  N
  N22      1.0000 0.21983  0.88140  0.11860  Biso   1.000  N
  N23      1.0000 0.78017  0.11860  0.11860  Biso   1.000  N
  N24      1.0000 0.78017  0.88140  0.88140  Biso   1.000  N
  N25      1.0000 0.61860  0.61860  0.21983  Biso   1.000  N
  N26      1.0000 0.38140  0.38140  0.21983  Biso   1.000  N
  N27      1.0000 0.38140  0.61860  0.78017  Biso   1.000  N
  N28      1.0000 0.61860  0.38140  0.78017  Biso   1.000  N
  N29      1.0000 0.71983  0.61860  0.11860  Biso   1.000  N
  N30      1.0000 0.71983  0.38140  0.88140  Biso   1.000  N
  N31      1.0000 0.28017  0.38140  0.11860  Biso   1.000  N
  N32      1.0000 0.28017  0.61860  0.88140  Biso   1.000  N
  N33      1.0000 0.61860  0.71983  0.11860  Biso   1.000  N
  N34      1.0000 0.38140  0.71983  0.88140  Biso   1.000  N
  N35      1.0000 0.61860  0.28017  0.88140  Biso   1.000  N
  N36      1.0000 0.38140  0.28017  0.11860  Biso   1.000  N
  N37      1.0000 0.61860  0.61860  0.78017  Biso   1.000  N
  N38      1.0000 0.38140  0.38140  0.78017  Biso   1.000  N
  N39      1.0000 0.61860  0.38140  0.21983  Biso   1.000  N
  N40      1.0000 0.38140  0.61860  0.21983  Biso   1.000  N
  N41      1.0000 0.61860  0.71983  0.88140  Biso   1.000  N
  N42      1.0000 0.38140  0.71983  0.11860  Biso   1.000  N
  N43      1.0000 0.38140  0.28017  0.88140  Biso   1.000  N
  N44      1.0000 0.61860  0.28017  0.11860  Biso   1.000  N
  N45      1.0000 0.71983  0.61860  0.88140  Biso   1.000  N
  N46      1.0000 0.71983  0.38140  0.11860  Biso   1.000  N
  N47      1.0000 0.28017  0.61860  0.11860  Biso   1.000  N
  N48      1.0000 0.28017  0.38140  0.88140  Biso   1.000  N
  N49      1.0000 0.61860  0.11860  0.71983  Biso   1.000  N
  N50      1.0000 0.38140  0.88140  0.71983  Biso   1.000  N
  N51      1.0000 0.38140  0.11860  0.28017  Biso   1.000  N
  N52      1.0000 0.61860  0.88140  0.28017  Biso   1.000  N
  N53      1.0000 0.71983  0.11860  0.61860  Biso   1.000  N
  N54      1.0000 0.71983  0.88140  0.38140  Biso   1.000  N
  N55      1.0000 0.28017  0.88140  0.61860  Biso   1.000  N
  N56      1.0000 0.28017  0.11860  0.38140  Biso   1.000  N
  N57      1.0000 0.61860  0.21983  0.61860  Biso   1.000  N
  N58      1.0000 0.38140  0.21983  0.38140  Biso   1.000  N
  N59      1.0000 0.61860  0.78017  0.38140  Biso   1.000  N
  N60      1.0000 0.38140  0.78017  0.61860  Biso   1.000  N
  N61      1.0000 0.61860  0.11860  0.28017  Biso   1.000  N
  N62      1.0000 0.38140  0.88140  0.28017  Biso   1.000  N
  N63      1.0000 0.61860  0.88140  0.71983  Biso   1.000  N
  N64      1.0000 0.38140  0.11860  0.71983  Biso   1.000  N
  N65      1.0000 0.61860  0.21983  0.38140  Biso   1.000  N
  N66      1.0000 0.38140  0.21983  0.61860  Biso   1.000  N
  N67      1.0000 0.38140  0.78017  0.38140  Biso   1.000  N
  N68      1.0000 0.61860  0.78017  0.61860  Biso   1.000  N
  N69      1.0000 0.71983  0.11860  0.38140  Biso   1.000  N
  N70      1.0000 0.71983  0.88140  0.61860  Biso   1.000  N
  N71      1.0000 0.28017  0.11860  0.61860  Biso   1.000  N
  N72      1.0000 0.28017  0.88140  0.38140  Biso   1.000  N
  N73      1.0000 0.11860  0.61860  0.71983  Biso   1.000  N
  N74      1.0000 0.88140  0.38140  0.71983  Biso   1.000  N
  N75      1.0000 0.88140  0.61860  0.28017  Biso   1.000  N
  N76      1.0000 0.11860  0.38140  0.28017  Biso   1.000  N
  N77      1.0000 0.21983  0.61860  0.61860  Biso   1.000  N
  N78      1.0000 0.21983  0.38140  0.38140  Biso   1.000  N
  N79      1.0000 0.78017  0.38140  0.61860  Biso   1.000  N
  N80      1.0000 0.78017  0.61860  0.38140  Biso   1.000  N
  N81      1.0000 0.11860  0.71983  0.61860  Biso   1.000  N
  N82      1.0000 0.88140  0.71983  0.38140  Biso   1.000  N
  N83      1.0000 0.11860  0.28017  0.38140  Biso   1.000  N
  N84      1.0000 0.88140  0.28017  0.61860  Biso   1.000  N
  N85      1.0000 0.11860  0.61860  0.28017  Biso   1.000  N
  N86      1.0000 0.88140  0.38140  0.28017  Biso   1.000  N
  N87      1.0000 0.11860  0.38140  0.71983  Biso   1.000  N
  N88      1.0000 0.88140  0.61860  0.71983  Biso   1.000  N
  N89      1.0000 0.11860  0.71983  0.38140  Biso   1.000  N
  N90      1.0000 0.88140  0.71983  0.61860  Biso   1.000  N
  N91      1.0000 0.88140  0.28017  0.38140  Biso   1.000  N
  N92      1.0000 0.11860  0.28017  0.61860  Biso   1.000  N
  N93      1.0000 0.21983  0.61860  0.38140  Biso   1.000  N
  N94      1.0000 0.21983  0.38140  0.61860  Biso   1.000  N
  N95      1.0000 0.78017  0.61860  0.61860  Biso   1.000  N
  N96      1.0000 0.78017  0.38140  0.38140  Biso   1.000  N
  O529     1.0000 0.08400  0.00000  0.08400  Biso   1.000  O
  O530     1.0000 0.91600  0.00000  0.08400  Biso   1.000  O
  O531     1.0000 0.91600  0.00000  0.91600  Biso   1.000  O
  O532     1.0000 0.08400  0.00000  0.91600  Biso   1.000  O
  O533     1.0000 0.08400  0.08400  0.00000  Biso   1.000  O
  O534     1.0000 0.08400  0.91600  0.00000  Biso   1.000  O
  O535     1.0000 0.91600  0.91600  0.00000  Biso   1.000  O
  O536     1.0000 0.91600  0.08400  0.00000  Biso   1.000  O
  O537     1.0000 0.00000  0.08400  0.08400  Biso   1.000  O
  O538     1.0000 0.00000  0.08400  0.91600  Biso   1.000  O
  O539     1.0000 0.00000  0.91600  0.91600  Biso   1.000  O
  O540     1.0000 0.00000  0.91600  0.08400  Biso   1.000  O
  O541     1.0000 0.58400  0.50000  0.08400  Biso   1.000  O
  O542     1.0000 0.41600  0.50000  0.08400  Biso   1.000  O
  O543     1.0000 0.41600  0.50000  0.91600  Biso   1.000  O
  O544     1.0000 0.58400  0.50000  0.91600  Biso   1.000  O
  O545     1.0000 0.58400  0.58400  0.00000  Biso   1.000  O
  O546     1.0000 0.58400  0.41600  0.00000  Biso   1.000  O
  O547     1.0000 0.41600  0.41600  0.00000  Biso   1.000  O
  O548     1.0000 0.41600  0.58400  0.00000  Biso   1.000  O
  O549     1.0000 0.50000  0.58400  0.08400  Biso   1.000  O
  O550     1.0000 0.50000  0.58400  0.91600  Biso   1.000  O
  O551     1.0000 0.50000  0.41600  0.91600  Biso   1.000  O
  O552     1.0000 0.50000  0.41600  0.08400  Biso   1.000  O
  O553     1.0000 0.58400  0.00000  0.58400  Biso   1.000  O
  O554     1.0000 0.41600  0.00000  0.58400  Biso   1.000  O
  O555     1.0000 0.41600  0.00000  0.41600  Biso   1.000  O
  O556     1.0000 0.58400  0.00000  0.41600  Biso   1.000  O
  O557     1.0000 0.58400  0.08400  0.50000  Biso   1.000  O
  O558     1.0000 0.58400  0.91600  0.50000  Biso   1.000  O
  O559     1.0000 0.41600  0.91600  0.50000  Biso   1.000  O
  O560     1.0000 0.41600  0.08400  0.50000  Biso   1.000  O
  O561     1.0000 0.50000  0.08400  0.58400  Biso   1.000  O
  O562     1.0000 0.50000  0.08400  0.41600  Biso   1.000  O
  O563     1.0000 0.50000  0.91600  0.41600  Biso   1.000  O
  O564     1.0000 0.50000  0.91600  0.58400  Biso   1.000  O
  O565     1.0000 0.08400  0.50000  0.58400  Biso   1.000  O
  O566     1.0000 0.91600  0.50000  0.58400  Biso   1.000  O
  O567     1.0000 0.91600  0.50000  0.41600  Biso   1.000  O
  O568     1.0000 0.08400  0.50000  0.41600  Biso   1.000  O
  O569     1.0000 0.08400  0.58400  0.50000  Biso   1.000  O
  O570     1.0000 0.08400  0.41600  0.50000  Biso   1.000  O
  O571     1.0000 0.91600  0.41600  0.50000  Biso   1.000  O
  O572     1.0000 0.91600  0.58400  0.50000  Biso   1.000  O
  O573     1.0000 0.00000  0.58400  0.58400  Biso   1.000  O
  O574     1.0000 0.00000  0.58400  0.41600  Biso   1.000  O
  O575     1.0000 0.00000  0.41600  0.41600  Biso   1.000  O
  O576     1.0000 0.00000  0.41600  0.58400  Biso   1.000  O
  C865     1.0000 0.15566  0.17181  0.24147  Biso   1.000  C
  C866     1.0000 0.84434  0.82819  0.24147  Biso   1.000  C
  C867     1.0000 0.84434  0.17181  0.75853  Biso   1.000  C
  C868     1.0000 0.15566  0.82819  0.75853  Biso   1.000  C
  C869     1.0000 0.24147  0.15566  0.17181  Biso   1.000  C
  C870     1.0000 0.24147  0.84434  0.82819  Biso   1.000  C
  C871     1.0000 0.75853  0.84434  0.17181  Biso   1.000  C
  C872     1.0000 0.75853  0.15566  0.82819  Biso   1.000  C
  C873     1.0000 0.17181  0.24147  0.15566  Biso   1.000  C
  C874     1.0000 0.82819  0.24147  0.84434  Biso   1.000  C
  C875     1.0000 0.17181  0.75853  0.84434  Biso   1.000  C
  C876     1.0000 0.82819  0.75853  0.15566  Biso   1.000  C
  C877     1.0000 0.17181  0.15566  0.75853  Biso   1.000  C
  C878     1.0000 0.82819  0.84434  0.75853  Biso   1.000  C
  C879     1.0000 0.17181  0.84434  0.24147  Biso   1.000  C
  C880     1.0000 0.82819  0.15566  0.24147  Biso   1.000  C
  C881     1.0000 0.15566  0.24147  0.82819  Biso   1.000  C
  C882     1.0000 0.84434  0.24147  0.17181  Biso   1.000  C
  C883     1.0000 0.84434  0.75853  0.82819  Biso   1.000  C
  C884     1.0000 0.15566  0.75853  0.17181  Biso   1.000  C
  C885     1.0000 0.24147  0.17181  0.84434  Biso   1.000  C
  C886     1.0000 0.24147  0.82819  0.15566  Biso   1.000  C
  C887     1.0000 0.75853  0.17181  0.15566  Biso   1.000  C
  C888     1.0000 0.75853  0.82819  0.84434  Biso   1.000  C
  C889     1.0000 0.65566  0.67181  0.24147  Biso   1.000  C
  C890     1.0000 0.34434  0.32819  0.24147  Biso   1.000  C
  C891     1.0000 0.34434  0.67181  0.75853  Biso   1.000  C
  C892     1.0000 0.65566  0.32819  0.75853  Biso   1.000  C
  C893     1.0000 0.74147  0.65566  0.17181  Biso   1.000  C
  C894     1.0000 0.74147  0.34434  0.82819  Biso   1.000  C
  C895     1.0000 0.25853  0.34434  0.17181  Biso   1.000  C
  C896     1.0000 0.25853  0.65566  0.82819  Biso   1.000  C
  C897     1.0000 0.67181  0.74147  0.15566  Biso   1.000  C
  C898     1.0000 0.32819  0.74147  0.84434  Biso   1.000  C
  C899     1.0000 0.67181  0.25853  0.84434  Biso   1.000  C
  C900     1.0000 0.32819  0.25853  0.15566  Biso   1.000  C
  C901     1.0000 0.67181  0.65566  0.75853  Biso   1.000  C
  C902     1.0000 0.32819  0.34434  0.75853  Biso   1.000  C
  C903     1.0000 0.67181  0.34434  0.24147  Biso   1.000  C
  C904     1.0000 0.32819  0.65566  0.24147  Biso   1.000  C
  C905     1.0000 0.65566  0.74147  0.82819  Biso   1.000  C
  C906     1.0000 0.34434  0.74147  0.17181  Biso   1.000  C
  C907     1.0000 0.34434  0.25853  0.82819  Biso   1.000  C
  C908     1.0000 0.65566  0.25853  0.17181  Biso   1.000  C
  C909     1.0000 0.74147  0.67181  0.84434  Biso   1.000  C
  C910     1.0000 0.74147  0.32819  0.15566  Biso   1.000  C
  C911     1.0000 0.25853  0.67181  0.15566  Biso   1.000  C
  C912     1.0000 0.25853  0.32819  0.84434  Biso   1.000  C
  C913     1.0000 0.65566  0.17181  0.74147  Biso   1.000  C
  C914     1.0000 0.34434  0.82819  0.74147  Biso   1.000  C
  C915     1.0000 0.34434  0.17181  0.25853  Biso   1.000  C
  C916     1.0000 0.65566  0.82819  0.25853  Biso   1.000  C
  C917     1.0000 0.74147  0.15566  0.67181  Biso   1.000  C
  C918     1.0000 0.74147  0.84434  0.32819  Biso   1.000  C
  C919     1.0000 0.25853  0.84434  0.67181  Biso   1.000  C
  C920     1.0000 0.25853  0.15566  0.32819  Biso   1.000  C
  C921     1.0000 0.67181  0.24147  0.65566  Biso   1.000  C
  C922     1.0000 0.32819  0.24147  0.34434  Biso   1.000  C
  C923     1.0000 0.67181  0.75853  0.34434  Biso   1.000  C
  C924     1.0000 0.32819  0.75853  0.65566  Biso   1.000  C
  C925     1.0000 0.67181  0.15566  0.25853  Biso   1.000  C
  C926     1.0000 0.32819  0.84434  0.25853  Biso   1.000  C
  C927     1.0000 0.67181  0.84434  0.74147  Biso   1.000  C
  C928     1.0000 0.32819  0.15566  0.74147  Biso   1.000  C
  C929     1.0000 0.65566  0.24147  0.32819  Biso   1.000  C
  C930     1.0000 0.34434  0.24147  0.67181  Biso   1.000  C
  C931     1.0000 0.34434  0.75853  0.32819  Biso   1.000  C
  C932     1.0000 0.65566  0.75853  0.67181  Biso   1.000  C
  C933     1.0000 0.74147  0.17181  0.34434  Biso   1.000  C
  C934     1.0000 0.74147  0.82819  0.65566  Biso   1.000  C
  C935     1.0000 0.25853  0.17181  0.65566  Biso   1.000  C
  C936     1.0000 0.25853  0.82819  0.34434  Biso   1.000  C
  C937     1.0000 0.15566  0.67181  0.74147  Biso   1.000  C
  C938     1.0000 0.84434  0.32819  0.74147  Biso   1.000  C
  C939     1.0000 0.84434  0.67181  0.25853  Biso   1.000  C
  C940     1.0000 0.15566  0.32819  0.25853  Biso   1.000  C
  C941     1.0000 0.24147  0.65566  0.67181  Biso   1.000  C
  C942     1.0000 0.24147  0.34434  0.32819  Biso   1.000  C
  C943     1.0000 0.75853  0.34434  0.67181  Biso   1.000  C
  C944     1.0000 0.75853  0.65566  0.32819  Biso   1.000  C
  C945     1.0000 0.17181  0.74147  0.65566  Biso   1.000  C
  C946     1.0000 0.82819  0.74147  0.34434  Biso   1.000  C
  C947     1.0000 0.17181  0.25853  0.34434  Biso   1.000  C
  C948     1.0000 0.82819  0.25853  0.65566  Biso   1.000  C
  C949     1.0000 0.17181  0.65566  0.25853  Biso   1.000  C
  C950     1.0000 0.82819  0.34434  0.25853  Biso   1.000  C
  C951     1.0000 0.17181  0.34434  0.74147  Biso   1.000  C
  C952     1.0000 0.82819  0.65566  0.74147  Biso   1.000  C
  C953     1.0000 0.15566  0.74147  0.32819  Biso   1.000  C
  C954     1.0000 0.84434  0.74147  0.67181  Biso   1.000  C
  C955     1.0000 0.84434  0.25853  0.32819  Biso   1.000  C
  C956     1.0000 0.15566  0.25853  0.67181  Biso   1.000  C
  C957     1.0000 0.24147  0.67181  0.34434  Biso   1.000  C
  C958     1.0000 0.24147  0.32819  0.65566  Biso   1.000  C
  C959     1.0000 0.75853  0.67181  0.65566  Biso   1.000  C
  C960     1.0000 0.75853  0.32819  0.34434  Biso   1.000  C
  C961     1.0000 0.84434  0.82819  0.75853  Biso   1.000  C
  C962     1.0000 0.15566  0.17181  0.75853  Biso   1.000  C
  C963     1.0000 0.15566  0.82819  0.24147  Biso   1.000  C
  C964     1.0000 0.84434  0.17181  0.24147  Biso   1.000  C
  C965     1.0000 0.75853  0.84434  0.82819  Biso   1.000  C
  C966     1.0000 0.75853  0.15566  0.17181  Biso   1.000  C
  C967     1.0000 0.24147  0.15566  0.82819  Biso   1.000  C
  C968     1.0000 0.24147  0.84434  0.17181  Biso   1.000  C
  C969     1.0000 0.82819  0.75853  0.84434  Biso   1.000  C
  C970     1.0000 0.17181  0.75853  0.15566  Biso   1.000  C
  C971     1.0000 0.82819  0.24147  0.15566  Biso   1.000  C
  C972     1.0000 0.17181  0.24147  0.84434  Biso   1.000  C
  C973     1.0000 0.82819  0.84434  0.24147  Biso   1.000  C
  C974     1.0000 0.17181  0.15566  0.24147  Biso   1.000  C
  C975     1.0000 0.82819  0.15566  0.75853  Biso   1.000  C
  C976     1.0000 0.17181  0.84434  0.75853  Biso   1.000  C
  C977     1.0000 0.84434  0.75853  0.17181  Biso   1.000  C
  C978     1.0000 0.15566  0.75853  0.82819  Biso   1.000  C
  C979     1.0000 0.15566  0.24147  0.17181  Biso   1.000  C
  C980     1.0000 0.84434  0.24147  0.82819  Biso   1.000  C
  C981     1.0000 0.75853  0.82819  0.15566  Biso   1.000  C
  C982     1.0000 0.75853  0.17181  0.84434  Biso   1.000  C
  C983     1.0000 0.24147  0.82819  0.84434  Biso   1.000  C
  C984     1.0000 0.24147  0.17181  0.15566  Biso   1.000  C
  C985     1.0000 0.34434  0.32819  0.75853  Biso   1.000  C
  C986     1.0000 0.65566  0.67181  0.75853  Biso   1.000  C
  C987     1.0000 0.65566  0.32819  0.24147  Biso   1.000  C
  C988     1.0000 0.34434  0.67181  0.24147  Biso   1.000  C
  C989     1.0000 0.25853  0.34434  0.82819  Biso   1.000  C
  C990     1.0000 0.25853  0.65566  0.17181  Biso   1.000  C
  C991     1.0000 0.74147  0.65566  0.82819  Biso   1.000  C
  C992     1.0000 0.74147  0.34434  0.17181  Biso   1.000  C
  C993     1.0000 0.32819  0.25853  0.84434  Biso   1.000  C
  C994     1.0000 0.67181  0.25853  0.15566  Biso   1.000  C
  C995     1.0000 0.32819  0.74147  0.15566  Biso   1.000  C
  C996     1.0000 0.67181  0.74147  0.84434  Biso   1.000  C
  C997     1.0000 0.32819  0.34434  0.24147  Biso   1.000  C
  C998     1.0000 0.67181  0.65566  0.24147  Biso   1.000  C
  C999     1.0000 0.32819  0.65566  0.75853  Biso   1.000  C
  C1000    1.0000 0.67181  0.34434  0.75853  Biso   1.000  C
  C1001    1.0000 0.34434  0.25853  0.17181  Biso   1.000  C
  C1002    1.0000 0.65566  0.25853  0.82819  Biso   1.000  C
  C1003    1.0000 0.65566  0.74147  0.17181  Biso   1.000  C
  C1004    1.0000 0.34434  0.74147  0.82819  Biso   1.000  C
  C1005    1.0000 0.25853  0.32819  0.15566  Biso   1.000  C
  C1006    1.0000 0.25853  0.67181  0.84434  Biso   1.000  C
  C1007    1.0000 0.74147  0.32819  0.84434  Biso   1.000  C
  C1008    1.0000 0.74147  0.67181  0.15566  Biso   1.000  C
  C1009    1.0000 0.34434  0.82819  0.25853  Biso   1.000  C
  C1010    1.0000 0.65566  0.17181  0.25853  Biso   1.000  C
  C1011    1.0000 0.65566  0.82819  0.74147  Biso   1.000  C
  C1012    1.0000 0.34434  0.17181  0.74147  Biso   1.000  C
  C1013    1.0000 0.25853  0.84434  0.32819  Biso   1.000  C
  C1014    1.0000 0.25853  0.15566  0.67181  Biso   1.000  C
  C1015    1.0000 0.74147  0.15566  0.32819  Biso   1.000  C
  C1016    1.0000 0.74147  0.84434  0.67181  Biso   1.000  C
  C1017    1.0000 0.32819  0.75853  0.34434  Biso   1.000  C
  C1018    1.0000 0.67181  0.75853  0.65566  Biso   1.000  C
  C1019    1.0000 0.32819  0.24147  0.65566  Biso   1.000  C
  C1020    1.0000 0.67181  0.24147  0.34434  Biso   1.000  C
  C1021    1.0000 0.32819  0.84434  0.74147  Biso   1.000  C
  C1022    1.0000 0.67181  0.15566  0.74147  Biso   1.000  C
  C1023    1.0000 0.32819  0.15566  0.25853  Biso   1.000  C
  C1024    1.0000 0.67181  0.84434  0.25853  Biso   1.000  C
  C1025    1.0000 0.34434  0.75853  0.67181  Biso   1.000  C
  C1026    1.0000 0.65566  0.75853  0.32819  Biso   1.000  C
  C1027    1.0000 0.65566  0.24147  0.67181  Biso   1.000  C
  C1028    1.0000 0.34434  0.24147  0.32819  Biso   1.000  C
  C1029    1.0000 0.25853  0.82819  0.65566  Biso   1.000  C
  C1030    1.0000 0.25853  0.17181  0.34434  Biso   1.000  C
  C1031    1.0000 0.74147  0.82819  0.34434  Biso   1.000  C
  C1032    1.0000 0.74147  0.17181  0.65566  Biso   1.000  C
  C1033    1.0000 0.84434  0.32819  0.25853  Biso   1.000  C
  C1034    1.0000 0.15566  0.67181  0.25853  Biso   1.000  C
  C1035    1.0000 0.15566  0.32819  0.74147  Biso   1.000  C
  C1036    1.0000 0.84434  0.67181  0.74147  Biso   1.000  C
  C1037    1.0000 0.75853  0.34434  0.32819  Biso   1.000  C
  C1038    1.0000 0.75853  0.65566  0.67181  Biso   1.000  C
  C1039    1.0000 0.24147  0.65566  0.32819  Biso   1.000  C
  C1040    1.0000 0.24147  0.34434  0.67181  Biso   1.000  C
  C1041    1.0000 0.82819  0.25853  0.34434  Biso   1.000  C
  C1042    1.0000 0.17181  0.25853  0.65566  Biso   1.000  C
  C1043    1.0000 0.82819  0.74147  0.65566  Biso   1.000  C
  C1044    1.0000 0.17181  0.74147  0.34434  Biso   1.000  C
  C1045    1.0000 0.82819  0.34434  0.74147  Biso   1.000  C
  C1046    1.0000 0.17181  0.65566  0.74147  Biso   1.000  C
  C1047    1.0000 0.82819  0.65566  0.25853  Biso   1.000  C
  C1048    1.0000 0.17181  0.34434  0.25853  Biso   1.000  C
  C1049    1.0000 0.84434  0.25853  0.67181  Biso   1.000  C
  C1050    1.0000 0.15566  0.25853  0.32819  Biso   1.000  C
  C1051    1.0000 0.15566  0.74147  0.67181  Biso   1.000  C
  C1052    1.0000 0.84434  0.74147  0.32819  Biso   1.000  C
  C1053    1.0000 0.75853  0.32819  0.65566  Biso   1.000  C
  C1054    1.0000 0.75853  0.67181  0.34434  Biso   1.000  C
  C1055    1.0000 0.24147  0.32819  0.34434  Biso   1.000  C
  C1056    1.0000 0.24147  0.67181  0.65566  Biso   1.000  C
  C1057    1.0000 0.15566  0.19428  0.26394  Biso   1.000  C
  C1058    1.0000 0.84434  0.80572  0.26394  Biso   1.000  C
  C1059    1.0000 0.84434  0.19428  0.73606  Biso   1.000  C
  C1060    1.0000 0.15566  0.80572  0.73606  Biso   1.000  C
  C1061    1.0000 0.26394  0.15566  0.19428  Biso   1.000  C
  C1062    1.0000 0.26394  0.84434  0.80572  Biso   1.000  C
  C1063    1.0000 0.73606  0.84434  0.19428  Biso   1.000  C
  C1064    1.0000 0.73606  0.15566  0.80572  Biso   1.000  C
  C1065    1.0000 0.19428  0.26394  0.15566  Biso   1.000  C
  C1066    1.0000 0.80572  0.26394  0.84434  Biso   1.000  C
  C1067    1.0000 0.19428  0.73606  0.84434  Biso   1.000  C
  C1068    1.0000 0.80572  0.73606  0.15566  Biso   1.000  C
  C1069    1.0000 0.19428  0.15566  0.73606  Biso   1.000  C
  C1070    1.0000 0.80572  0.84434  0.73606  Biso   1.000  C
  C1071    1.0000 0.19428  0.84434  0.26394  Biso   1.000  C
  C1072    1.0000 0.80572  0.15566  0.26394  Biso   1.000  C
  C1073    1.0000 0.15566  0.26394  0.80572  Biso   1.000  C
  C1074    1.0000 0.84434  0.26394  0.19428  Biso   1.000  C
  C1075    1.0000 0.84434  0.73606  0.80572  Biso   1.000  C
  C1076    1.0000 0.15566  0.73606  0.19428  Biso   1.000  C
  C1077    1.0000 0.26394  0.19428  0.84434  Biso   1.000  C
  C1078    1.0000 0.26394  0.80572  0.15566  Biso   1.000  C
  C1079    1.0000 0.73606  0.19428  0.15566  Biso   1.000  C
  C1080    1.0000 0.73606  0.80572  0.84434  Biso   1.000  C
  C1081    1.0000 0.65566  0.69428  0.26394  Biso   1.000  C
  C1082    1.0000 0.34434  0.30572  0.26394  Biso   1.000  C
  C1083    1.0000 0.34434  0.69428  0.73606  Biso   1.000  C
  C1084    1.0000 0.65566  0.30572  0.73606  Biso   1.000  C
  C1085    1.0000 0.76394  0.65566  0.19428  Biso   1.000  C
  C1086    1.0000 0.76394  0.34434  0.80572  Biso   1.000  C
  C1087    1.0000 0.23606  0.34434  0.19428  Biso   1.000  C
  C1088    1.0000 0.23606  0.65566  0.80572  Biso   1.000  C
  C1089    1.0000 0.69428  0.76394  0.15566  Biso   1.000  C
  C1090    1.0000 0.30572  0.76394  0.84434  Biso   1.000  C
  C1091    1.0000 0.69428  0.23606  0.84434  Biso   1.000  C
  C1092    1.0000 0.30572  0.23606  0.15566  Biso   1.000  C
  C1093    1.0000 0.69428  0.65566  0.73606  Biso   1.000  C
  C1094    1.0000 0.30572  0.34434  0.73606  Biso   1.000  C
  C1095    1.0000 0.69428  0.34434  0.26394  Biso   1.000  C
  C1096    1.0000 0.30572  0.65566  0.26394  Biso   1.000  C
  C1097    1.0000 0.65566  0.76394  0.80572  Biso   1.000  C
  C1098    1.0000 0.34434  0.76394  0.19428  Biso   1.000  C
  C1099    1.0000 0.34434  0.23606  0.80572  Biso   1.000  C
  C1100    1.0000 0.65566  0.23606  0.19428  Biso   1.000  C
  C1101    1.0000 0.76394  0.69428  0.84434  Biso   1.000  C
  C1102    1.0000 0.76394  0.30572  0.15566  Biso   1.000  C
  C1103    1.0000 0.23606  0.69428  0.15566  Biso   1.000  C
  C1104    1.0000 0.23606  0.30572  0.84434  Biso   1.000  C
  C1105    1.0000 0.65566  0.19428  0.76394  Biso   1.000  C
  C1106    1.0000 0.34434  0.80572  0.76394  Biso   1.000  C
  C1107    1.0000 0.34434  0.19428  0.23606  Biso   1.000  C
  C1108    1.0000 0.65566  0.80572  0.23606  Biso   1.000  C
  C1109    1.0000 0.76394  0.15566  0.69428  Biso   1.000  C
  C1110    1.0000 0.76394  0.84434  0.30572  Biso   1.000  C
  C1111    1.0000 0.23606  0.84434  0.69428  Biso   1.000  C
  C1112    1.0000 0.23606  0.15566  0.30572  Biso   1.000  C
  C1113    1.0000 0.69428  0.26394  0.65566  Biso   1.000  C
  C1114    1.0000 0.30572  0.26394  0.34434  Biso   1.000  C
  C1115    1.0000 0.69428  0.73606  0.34434  Biso   1.000  C
  C1116    1.0000 0.30572  0.73606  0.65566  Biso   1.000  C
  C1117    1.0000 0.69428  0.15566  0.23606  Biso   1.000  C
  C1118    1.0000 0.30572  0.84434  0.23606  Biso   1.000  C
  C1119    1.0000 0.69428  0.84434  0.76394  Biso   1.000  C
  C1120    1.0000 0.30572  0.15566  0.76394  Biso   1.000  C
  C1121    1.0000 0.65566  0.26394  0.30572  Biso   1.000  C
  C1122    1.0000 0.34434  0.26394  0.69428  Biso   1.000  C
  C1123    1.0000 0.34434  0.73606  0.30572  Biso   1.000  C
  C1124    1.0000 0.65566  0.73606  0.69428  Biso   1.000  C
  C1125    1.0000 0.76394  0.19428  0.34434  Biso   1.000  C
  C1126    1.0000 0.76394  0.80572  0.65566  Biso   1.000  C
  C1127    1.0000 0.23606  0.19428  0.65566  Biso   1.000  C
  C1128    1.0000 0.23606  0.80572  0.34434  Biso   1.000  C
  C1129    1.0000 0.15566  0.69428  0.76394  Biso   1.000  C
  C1130    1.0000 0.84434  0.30572  0.76394  Biso   1.000  C
  C1131    1.0000 0.84434  0.69428  0.23606  Biso   1.000  C
  C1132    1.0000 0.15566  0.30572  0.23606  Biso   1.000  C
  C1133    1.0000 0.26394  0.65566  0.69428  Biso   1.000  C
  C1134    1.0000 0.26394  0.34434  0.30572  Biso   1.000  C
  C1135    1.0000 0.73606  0.34434  0.69428  Biso   1.000  C
  C1136    1.0000 0.73606  0.65566  0.30572  Biso   1.000  C
  C1137    1.0000 0.19428  0.76394  0.65566  Biso   1.000  C
  C1138    1.0000 0.80572  0.76394  0.34434  Biso   1.000  C
  C1139    1.0000 0.19428  0.23606  0.34434  Biso   1.000  C
  C1140    1.0000 0.80572  0.23606  0.65566  Biso   1.000  C
  C1141    1.0000 0.19428  0.65566  0.23606  Biso   1.000  C
  C1142    1.0000 0.80572  0.34434  0.23606  Biso   1.000  C
  C1143    1.0000 0.19428  0.34434  0.76394  Biso   1.000  C
  C1144    1.0000 0.80572  0.65566  0.76394  Biso   1.000  C
  C1145    1.0000 0.15566  0.76394  0.30572  Biso   1.000  C
  C1146    1.0000 0.84434  0.76394  0.69428  Biso   1.000  C
  C1147    1.0000 0.84434  0.23606  0.30572  Biso   1.000  C
  C1148    1.0000 0.15566  0.23606  0.69428  Biso   1.000  C
  C1149    1.0000 0.26394  0.69428  0.34434  Biso   1.000  C
  C1150    1.0000 0.26394  0.30572  0.65566  Biso   1.000  C
  C1151    1.0000 0.73606  0.69428  0.65566  Biso   1.000  C
  C1152    1.0000 0.73606  0.30572  0.34434  Biso   1.000  C
  C1153    1.0000 0.84434  0.80572  0.73606  Biso   1.000  C
  C1154    1.0000 0.15566  0.19428  0.73606  Biso   1.000  C
  C1155    1.0000 0.15566  0.80572  0.26394  Biso   1.000  C
  C1156    1.0000 0.84434  0.19428  0.26394  Biso   1.000  C
  C1157    1.0000 0.73606  0.84434  0.80572  Biso   1.000  C
  C1158    1.0000 0.73606  0.15566  0.19428  Biso   1.000  C
  C1159    1.0000 0.26394  0.15566  0.80572  Biso   1.000  C
  C1160    1.0000 0.26394  0.84434  0.19428  Biso   1.000  C
  C1161    1.0000 0.80572  0.73606  0.84434  Biso   1.000  C
  C1162    1.0000 0.19428  0.73606  0.15566  Biso   1.000  C
  C1163    1.0000 0.80572  0.26394  0.15566  Biso   1.000  C
  C1164    1.0000 0.19428  0.26394  0.84434  Biso   1.000  C
  C1165    1.0000 0.80572  0.84434  0.26394  Biso   1.000  C
  C1166    1.0000 0.19428  0.15566  0.26394  Biso   1.000  C
  C1167    1.0000 0.80572  0.15566  0.73606  Biso   1.000  C
  C1168    1.0000 0.19428  0.84434  0.73606  Biso   1.000  C
  C1169    1.0000 0.84434  0.73606  0.19428  Biso   1.000  C
  C1170    1.0000 0.15566  0.73606  0.80572  Biso   1.000  C
  C1171    1.0000 0.15566  0.26394  0.19428  Biso   1.000  C
  C1172    1.0000 0.84434  0.26394  0.80572  Biso   1.000  C
  C1173    1.0000 0.73606  0.80572  0.15566  Biso   1.000  C
  C1174    1.0000 0.73606  0.19428  0.84434  Biso   1.000  C
  C1175    1.0000 0.26394  0.80572  0.84434  Biso   1.000  C
  C1176    1.0000 0.26394  0.19428  0.15566  Biso   1.000  C
  C1177    1.0000 0.34434  0.30572  0.73606  Biso   1.000  C
  C1178    1.0000 0.65566  0.69428  0.73606  Biso   1.000  C
  C1179    1.0000 0.65566  0.30572  0.26394  Biso   1.000  C
  C1180    1.0000 0.34434  0.69428  0.26394  Biso   1.000  C
  C1181    1.0000 0.23606  0.34434  0.80572  Biso   1.000  C
  C1182    1.0000 0.23606  0.65566  0.19428  Biso   1.000  C
  C1183    1.0000 0.76394  0.65566  0.80572  Biso   1.000  C
  C1184    1.0000 0.76394  0.34434  0.19428  Biso   1.000  C
  C1185    1.0000 0.30572  0.23606  0.84434  Biso   1.000  C
  C1186    1.0000 0.69428  0.23606  0.15566  Biso   1.000  C
  C1187    1.0000 0.30572  0.76394  0.15566  Biso   1.000  C
  C1188    1.0000 0.69428  0.76394  0.84434  Biso   1.000  C
  C1189    1.0000 0.30572  0.34434  0.26394  Biso   1.000  C
  C1190    1.0000 0.69428  0.65566  0.26394  Biso   1.000  C
  C1191    1.0000 0.30572  0.65566  0.73606  Biso   1.000  C
  C1192    1.0000 0.69428  0.34434  0.73606  Biso   1.000  C
  C1193    1.0000 0.34434  0.23606  0.19428  Biso   1.000  C
  C1194    1.0000 0.65566  0.23606  0.80572  Biso   1.000  C
  C1195    1.0000 0.65566  0.76394  0.19428  Biso   1.000  C
  C1196    1.0000 0.34434  0.76394  0.80572  Biso   1.000  C
  C1197    1.0000 0.23606  0.30572  0.15566  Biso   1.000  C
  C1198    1.0000 0.23606  0.69428  0.84434  Biso   1.000  C
  C1199    1.0000 0.76394  0.30572  0.84434  Biso   1.000  C
  C1200    1.0000 0.76394  0.69428  0.15566  Biso   1.000  C
  C1201    1.0000 0.34434  0.80572  0.23606  Biso   1.000  C
  C1202    1.0000 0.65566  0.19428  0.23606  Biso   1.000  C
  C1203    1.0000 0.65566  0.80572  0.76394  Biso   1.000  C
  C1204    1.0000 0.34434  0.19428  0.76394  Biso   1.000  C
  C1205    1.0000 0.23606  0.84434  0.30572  Biso   1.000  C
  C1206    1.0000 0.23606  0.15566  0.69428  Biso   1.000  C
  C1207    1.0000 0.76394  0.15566  0.30572  Biso   1.000  C
  C1208    1.0000 0.76394  0.84434  0.69428  Biso   1.000  C
  C1209    1.0000 0.30572  0.73606  0.34434  Biso   1.000  C
  C1210    1.0000 0.69428  0.73606  0.65566  Biso   1.000  C
  C1211    1.0000 0.30572  0.26394  0.65566  Biso   1.000  C
  C1212    1.0000 0.69428  0.26394  0.34434  Biso   1.000  C
  C1213    1.0000 0.30572  0.84434  0.76394  Biso   1.000  C
  C1214    1.0000 0.69428  0.15566  0.76394  Biso   1.000  C
  C1215    1.0000 0.30572  0.15566  0.23606  Biso   1.000  C
  C1216    1.0000 0.69428  0.84434  0.23606  Biso   1.000  C
  C1217    1.0000 0.34434  0.73606  0.69428  Biso   1.000  C
  C1218    1.0000 0.65566  0.73606  0.30572  Biso   1.000  C
  C1219    1.0000 0.65566  0.26394  0.69428  Biso   1.000  C
  C1220    1.0000 0.34434  0.26394  0.30572  Biso   1.000  C
  C1221    1.0000 0.23606  0.80572  0.65566  Biso   1.000  C
  C1222    1.0000 0.23606  0.19428  0.34434  Biso   1.000  C
  C1223    1.0000 0.76394  0.80572  0.34434  Biso   1.000  C
  C1224    1.0000 0.76394  0.19428  0.65566  Biso   1.000  C
  C1225    1.0000 0.84434  0.30572  0.23606  Biso   1.000  C
  C1226    1.0000 0.15566  0.69428  0.23606  Biso   1.000  C
  C1227    1.0000 0.15566  0.30572  0.76394  Biso   1.000  C
  C1228    1.0000 0.84434  0.69428  0.76394  Biso   1.000  C
  C1229    1.0000 0.73606  0.34434  0.30572  Biso   1.000  C
  C1230    1.0000 0.73606  0.65566  0.69428  Biso   1.000  C
  C1231    1.0000 0.26394  0.65566  0.30572  Biso   1.000  C
  C1232    1.0000 0.26394  0.34434  0.69428  Biso   1.000  C
  C1233    1.0000 0.80572  0.23606  0.34434  Biso   1.000  C
  C1234    1.0000 0.19428  0.23606  0.65566  Biso   1.000  C
  C1235    1.0000 0.80572  0.76394  0.65566  Biso   1.000  C
  C1236    1.0000 0.19428  0.76394  0.34434  Biso   1.000  C
  C1237    1.0000 0.80572  0.34434  0.76394  Biso   1.000  C
  C1238    1.0000 0.19428  0.65566  0.76394  Biso   1.000  C
  C1239    1.0000 0.80572  0.65566  0.23606  Biso   1.000  C
  C1240    1.0000 0.19428  0.34434  0.23606  Biso   1.000  C
  C1241    1.0000 0.84434  0.23606  0.69428  Biso   1.000  C
  C1242    1.0000 0.15566  0.23606  0.30572  Biso   1.000  C
  C1243    1.0000 0.15566  0.76394  0.69428  Biso   1.000  C
  C1244    1.0000 0.84434  0.76394  0.30572  Biso   1.000  C
  C1245    1.0000 0.73606  0.30572  0.65566  Biso   1.000  C
  C1246    1.0000 0.73606  0.69428  0.34434  Biso   1.000  C
  C1247    1.0000 0.26394  0.30572  0.34434  Biso   1.000  C
  C1248    1.0000 0.26394  0.69428  0.65566  Biso   1.000  C
  C1249    1.0000 0.17497  0.19428  0.28325  Biso   1.000  C
  C1250    1.0000 0.82503  0.80572  0.28325  Biso   1.000  C
  C1251    1.0000 0.82503  0.19428  0.71675  Biso   1.000  C
  C1252    1.0000 0.17497  0.80572  0.71675  Biso   1.000  C
  C1253    1.0000 0.28325  0.17497  0.19428  Biso   1.000  C
  C1254    1.0000 0.28325  0.82503  0.80572  Biso   1.000  C
  C1255    1.0000 0.71675  0.82503  0.19428  Biso   1.000  C
  C1256    1.0000 0.71675  0.17497  0.80572  Biso   1.000  C
  C1257    1.0000 0.19428  0.28325  0.17497  Biso   1.000  C
  C1258    1.0000 0.80572  0.28325  0.82503  Biso   1.000  C
  C1259    1.0000 0.19428  0.71675  0.82503  Biso   1.000  C
  C1260    1.0000 0.80572  0.71675  0.17497  Biso   1.000  C
  C1261    1.0000 0.19428  0.17497  0.71675  Biso   1.000  C
  C1262    1.0000 0.80572  0.82503  0.71675  Biso   1.000  C
  C1263    1.0000 0.19428  0.82503  0.28325  Biso   1.000  C
  C1264    1.0000 0.80572  0.17497  0.28325  Biso   1.000  C
  C1265    1.0000 0.17497  0.28325  0.80572  Biso   1.000  C
  C1266    1.0000 0.82503  0.28325  0.19428  Biso   1.000  C
  C1267    1.0000 0.82503  0.71675  0.80572  Biso   1.000  C
  C1268    1.0000 0.17497  0.71675  0.19428  Biso   1.000  C
  C1269    1.0000 0.28325  0.19428  0.82503  Biso   1.000  C
  C1270    1.0000 0.28325  0.80572  0.17497  Biso   1.000  C
  C1271    1.0000 0.71675  0.19428  0.17497  Biso   1.000  C
  C1272    1.0000 0.71675  0.80572  0.82503  Biso   1.000  C
  C1273    1.0000 0.67497  0.69428  0.28325  Biso   1.000  C
  C1274    1.0000 0.32503  0.30572  0.28325  Biso   1.000  C
  C1275    1.0000 0.32503  0.69428  0.71675  Biso   1.000  C
  C1276    1.0000 0.67497  0.30572  0.71675  Biso   1.000  C
  C1277    1.0000 0.78325  0.67497  0.19428  Biso   1.000  C
  C1278    1.0000 0.78325  0.32503  0.80572  Biso   1.000  C
  C1279    1.0000 0.21675  0.32503  0.19428  Biso   1.000  C
  C1280    1.0000 0.21675  0.67497  0.80572  Biso   1.000  C
  C1281    1.0000 0.69428  0.78325  0.17497  Biso   1.000  C
  C1282    1.0000 0.30572  0.78325  0.82503  Biso   1.000  C
  C1283    1.0000 0.69428  0.21675  0.82503  Biso   1.000  C
  C1284    1.0000 0.30572  0.21675  0.17497  Biso   1.000  C
  C1285    1.0000 0.69428  0.67497  0.71675  Biso   1.000  C
  C1286    1.0000 0.30572  0.32503  0.71675  Biso   1.000  C
  C1287    1.0000 0.69428  0.32503  0.28325  Biso   1.000  C
  C1288    1.0000 0.30572  0.67497  0.28325  Biso   1.000  C
  C1289    1.0000 0.67497  0.78325  0.80572  Biso   1.000  C
  C1290    1.0000 0.32503  0.78325  0.19428  Biso   1.000  C
  C1291    1.0000 0.32503  0.21675  0.80572  Biso   1.000  C
  C1292    1.0000 0.67497  0.21675  0.19428  Biso   1.000  C
  C1293    1.0000 0.78325  0.69428  0.82503  Biso   1.000  C
  C1294    1.0000 0.78325  0.30572  0.17497  Biso   1.000  C
  C1295    1.0000 0.21675  0.69428  0.17497  Biso   1.000  C
  C1296    1.0000 0.21675  0.30572  0.82503  Biso   1.000  C
  C1297    1.0000 0.67497  0.19428  0.78325  Biso   1.000  C
  C1298    1.0000 0.32503  0.80572  0.78325  Biso   1.000  C
  C1299    1.0000 0.32503  0.19428  0.21675  Biso   1.000  C
  C1300    1.0000 0.67497  0.80572  0.21675  Biso   1.000  C
  C1301    1.0000 0.78325  0.17497  0.69428  Biso   1.000  C
  C1302    1.0000 0.78325  0.82503  0.30572  Biso   1.000  C
  C1303    1.0000 0.21675  0.82503  0.69428  Biso   1.000  C
  C1304    1.0000 0.21675  0.17497  0.30572  Biso   1.000  C
  C1305    1.0000 0.69428  0.28325  0.67497  Biso   1.000  C
  C1306    1.0000 0.30572  0.28325  0.32503  Biso   1.000  C
  C1307    1.0000 0.69428  0.71675  0.32503  Biso   1.000  C
  C1308    1.0000 0.30572  0.71675  0.67497  Biso   1.000  C
  C1309    1.0000 0.69428  0.17497  0.21675  Biso   1.000  C
  C1310    1.0000 0.30572  0.82503  0.21675  Biso   1.000  C
  C1311    1.0000 0.69428  0.82503  0.78325  Biso   1.000  C
  C1312    1.0000 0.30572  0.17497  0.78325  Biso   1.000  C
  C1313    1.0000 0.67497  0.28325  0.30572  Biso   1.000  C
  C1314    1.0000 0.32503  0.28325  0.69428  Biso   1.000  C
  C1315    1.0000 0.32503  0.71675  0.30572  Biso   1.000  C
  C1316    1.0000 0.67497  0.71675  0.69428  Biso   1.000  C
  C1317    1.0000 0.78325  0.19428  0.32503  Biso   1.000  C
  C1318    1.0000 0.78325  0.80572  0.67497  Biso   1.000  C
  C1319    1.0000 0.21675  0.19428  0.67497  Biso   1.000  C
  C1320    1.0000 0.21675  0.80572  0.32503  Biso   1.000  C
  C1321    1.0000 0.17497  0.69428  0.78325  Biso   1.000  C
  C1322    1.0000 0.82503  0.30572  0.78325  Biso   1.000  C
  C1323    1.0000 0.82503  0.69428  0.21675  Biso   1.000  C
  C1324    1.0000 0.17497  0.30572  0.21675  Biso   1.000  C
  C1325    1.0000 0.28325  0.67497  0.69428  Biso   1.000  C
  C1326    1.0000 0.28325  0.32503  0.30572  Biso   1.000  C
  C1327    1.0000 0.71675  0.32503  0.69428  Biso   1.000  C
  C1328    1.0000 0.71675  0.67497  0.30572  Biso   1.000  C
  C1329    1.0000 0.19428  0.78325  0.67497  Biso   1.000  C
  C1330    1.0000 0.80572  0.78325  0.32503  Biso   1.000  C
  C1331    1.0000 0.19428  0.21675  0.32503  Biso   1.000  C
  C1332    1.0000 0.80572  0.21675  0.67497  Biso   1.000  C
  C1333    1.0000 0.19428  0.67497  0.21675  Biso   1.000  C
  C1334    1.0000 0.80572  0.32503  0.21675  Biso   1.000  C
  C1335    1.0000 0.19428  0.32503  0.78325  Biso   1.000  C
  C1336    1.0000 0.80572  0.67497  0.78325  Biso   1.000  C
  C1337    1.0000 0.17497  0.78325  0.30572  Biso   1.000  C
  C1338    1.0000 0.82503  0.78325  0.69428  Biso   1.000  C
  C1339    1.0000 0.82503  0.21675  0.30572  Biso   1.000  C
  C1340    1.0000 0.17497  0.21675  0.69428  Biso   1.000  C
  C1341    1.0000 0.28325  0.69428  0.32503  Biso   1.000  C
  C1342    1.0000 0.28325  0.30572  0.67497  Biso   1.000  C
  C1343    1.0000 0.71675  0.69428  0.67497  Biso   1.000  C
  C1344    1.0000 0.71675  0.30572  0.32503  Biso   1.000  C
  C1345    1.0000 0.82503  0.80572  0.71675  Biso   1.000  C
  C1346    1.0000 0.17497  0.19428  0.71675  Biso   1.000  C
  C1347    1.0000 0.17497  0.80572  0.28325  Biso   1.000  C
  C1348    1.0000 0.82503  0.19428  0.28325  Biso   1.000  C
  C1349    1.0000 0.71675  0.82503  0.80572  Biso   1.000  C
  C1350    1.0000 0.71675  0.17497  0.19428  Biso   1.000  C
  C1351    1.0000 0.28325  0.17497  0.80572  Biso   1.000  C
  C1352    1.0000 0.28325  0.82503  0.19428  Biso   1.000  C
  C1353    1.0000 0.80572  0.71675  0.82503  Biso   1.000  C
  C1354    1.0000 0.19428  0.71675  0.17497  Biso   1.000  C
  C1355    1.0000 0.80572  0.28325  0.17497  Biso   1.000  C
  C1356    1.0000 0.19428  0.28325  0.82503  Biso   1.000  C
  C1357    1.0000 0.80572  0.82503  0.28325  Biso   1.000  C
  C1358    1.0000 0.19428  0.17497  0.28325  Biso   1.000  C
  C1359    1.0000 0.80572  0.17497  0.71675  Biso   1.000  C
  C1360    1.0000 0.19428  0.82503  0.71675  Biso   1.000  C
  C1361    1.0000 0.82503  0.71675  0.19428  Biso   1.000  C
  C1362    1.0000 0.17497  0.71675  0.80572  Biso   1.000  C
  C1363    1.0000 0.17497  0.28325  0.19428  Biso   1.000  C
  C1364    1.0000 0.82503  0.28325  0.80572  Biso   1.000  C
  C1365    1.0000 0.71675  0.80572  0.17497  Biso   1.000  C
  C1366    1.0000 0.71675  0.19428  0.82503  Biso   1.000  C
  C1367    1.0000 0.28325  0.80572  0.82503  Biso   1.000  C
  C1368    1.0000 0.28325  0.19428  0.17497  Biso   1.000  C
  C1369    1.0000 0.32503  0.30572  0.71675  Biso   1.000  C
  C1370    1.0000 0.67497  0.69428  0.71675  Biso   1.000  C
  C1371    1.0000 0.67497  0.30572  0.28325  Biso   1.000  C
  C1372    1.0000 0.32503  0.69428  0.28325  Biso   1.000  C
  C1373    1.0000 0.21675  0.32503  0.80572  Biso   1.000  C
  C1374    1.0000 0.21675  0.67497  0.19428  Biso   1.000  C
  C1375    1.0000 0.78325  0.67497  0.80572  Biso   1.000  C
  C1376    1.0000 0.78325  0.32503  0.19428  Biso   1.000  C
  C1377    1.0000 0.30572  0.21675  0.82503  Biso   1.000  C
  C1378    1.0000 0.69428  0.21675  0.17497  Biso   1.000  C
  C1379    1.0000 0.30572  0.78325  0.17497  Biso   1.000  C
  C1380    1.0000 0.69428  0.78325  0.82503  Biso   1.000  C
  C1381    1.0000 0.30572  0.32503  0.28325  Biso   1.000  C
  C1382    1.0000 0.69428  0.67497  0.28325  Biso   1.000  C
  C1383    1.0000 0.30572  0.67497  0.71675  Biso   1.000  C
  C1384    1.0000 0.69428  0.32503  0.71675  Biso   1.000  C
  C1385    1.0000 0.32503  0.21675  0.19428  Biso   1.000  C
  C1386    1.0000 0.67497  0.21675  0.80572  Biso   1.000  C
  C1387    1.0000 0.67497  0.78325  0.19428  Biso   1.000  C
  C1388    1.0000 0.32503  0.78325  0.80572  Biso   1.000  C
  C1389    1.0000 0.21675  0.30572  0.17497  Biso   1.000  C
  C1390    1.0000 0.21675  0.69428  0.82503  Biso   1.000  C
  C1391    1.0000 0.78325  0.30572  0.82503  Biso   1.000  C
  C1392    1.0000 0.78325  0.69428  0.17497  Biso   1.000  C
  C1393    1.0000 0.32503  0.80572  0.21675  Biso   1.000  C
  C1394    1.0000 0.67497  0.19428  0.21675  Biso   1.000  C
  C1395    1.0000 0.67497  0.80572  0.78325  Biso   1.000  C
  C1396    1.0000 0.32503  0.19428  0.78325  Biso   1.000  C
  C1397    1.0000 0.21675  0.82503  0.30572  Biso   1.000  C
  C1398    1.0000 0.21675  0.17497  0.69428  Biso   1.000  C
  C1399    1.0000 0.78325  0.17497  0.30572  Biso   1.000  C
  C1400    1.0000 0.78325  0.82503  0.69428  Biso   1.000  C
  C1401    1.0000 0.30572  0.71675  0.32503  Biso   1.000  C
  C1402    1.0000 0.69428  0.71675  0.67497  Biso   1.000  C
  C1403    1.0000 0.30572  0.28325  0.67497  Biso   1.000  C
  C1404    1.0000 0.69428  0.28325  0.32503  Biso   1.000  C
  C1405    1.0000 0.30572  0.82503  0.78325  Biso   1.000  C
  C1406    1.0000 0.69428  0.17497  0.78325  Biso   1.000  C
  C1407    1.0000 0.30572  0.17497  0.21675  Biso   1.000  C
  C1408    1.0000 0.69428  0.82503  0.21675  Biso   1.000  C
  C1409    1.0000 0.32503  0.71675  0.69428  Biso   1.000  C
  C1410    1.0000 0.67497  0.71675  0.30572  Biso   1.000  C
  C1411    1.0000 0.67497  0.28325  0.69428  Biso   1.000  C
  C1412    1.0000 0.32503  0.28325  0.30572  Biso   1.000  C
  C1413    1.0000 0.21675  0.80572  0.67497  Biso   1.000  C
  C1414    1.0000 0.21675  0.19428  0.32503  Biso   1.000  C
  C1415    1.0000 0.78325  0.80572  0.32503  Biso   1.000  C
  C1416    1.0000 0.78325  0.19428  0.67497  Biso   1.000  C
  C1417    1.0000 0.82503  0.30572  0.21675  Biso   1.000  C
  C1418    1.0000 0.17497  0.69428  0.21675  Biso   1.000  C
  C1419    1.0000 0.17497  0.30572  0.78325  Biso   1.000  C
  C1420    1.0000 0.82503  0.69428  0.78325  Biso   1.000  C
  C1421    1.0000 0.71675  0.32503  0.30572  Biso   1.000  C
  C1422    1.0000 0.71675  0.67497  0.69428  Biso   1.000  C
  C1423    1.0000 0.28325  0.67497  0.30572  Biso   1.000  C
  C1424    1.0000 0.28325  0.32503  0.69428  Biso   1.000  C
  C1425    1.0000 0.80572  0.21675  0.32503  Biso   1.000  C
  C1426    1.0000 0.19428  0.21675  0.67497  Biso   1.000  C
  C1427    1.0000 0.80572  0.78325  0.67497  Biso   1.000  C
  C1428    1.0000 0.19428  0.78325  0.32503  Biso   1.000  C
  C1429    1.0000 0.80572  0.32503  0.78325  Biso   1.000  C
  C1430    1.0000 0.19428  0.67497  0.78325  Biso   1.000  C
  C1431    1.0000 0.80572  0.67497  0.21675  Biso   1.000  C
  C1432    1.0000 0.19428  0.32503  0.21675  Biso   1.000  C
  C1433    1.0000 0.82503  0.21675  0.69428  Biso   1.000  C
  C1434    1.0000 0.17497  0.21675  0.30572  Biso   1.000  C
  C1435    1.0000 0.17497  0.78325  0.69428  Biso   1.000  C
  C1436    1.0000 0.82503  0.78325  0.30572  Biso   1.000  C
  C1437    1.0000 0.71675  0.30572  0.67497  Biso   1.000  C
  C1438    1.0000 0.71675  0.69428  0.32503  Biso   1.000  C
  C1439    1.0000 0.28325  0.30572  0.32503  Biso   1.000  C
  C1440    1.0000 0.28325  0.69428  0.67497  Biso   1.000  C
