data_image0
_cell_length_a       20.5927
_cell_length_b       24.3615
_cell_length_c       13.7226
_cell_angle_alpha    90
_cell_angle_beta     90
_cell_angle_gamma    90

_symmetry_space_group_name_H-M    "P 1"
_symmetry_int_tables_number       1

loop_
  _symmetry_equiv_pos_as_xyz
  'x, y, z'

loop_
  _atom_site_label
  _atom_site_occupancy
  _atom_site_fract_x
  _atom_site_fract_y
  _atom_site_fract_z
  _atom_site_thermal_displace_type
  _atom_site_B_iso_or_equiv
  _atom_site_type_symbol
  Cu1      1.0000 0.33342  0.50000  0.25000  Biso   1.000  Cu
  Cu2      1.0000 0.83342  0.00000  0.75000  Biso   1.000  Cu
  Cu3      1.0000 0.66658  0.50000  0.25000  Biso   1.000  Cu
  Cu4      1.0000 0.16658  0.00000  0.75000  Biso   1.000  Cu
  Cu5      1.0000 0.66658  0.50000  0.75000  Biso   1.000  Cu
  Cu6      1.0000 0.16658  0.00000  0.25000  Biso   1.000  Cu
  Cu7      1.0000 0.33342  0.50000  0.75000  Biso   1.000  Cu
  Cu8      1.0000 0.83342  0.00000  0.25000  Biso   1.000  Cu
  Cu9      1.0000 0.00000  0.50000  0.25000  Biso   1.000  Cu
  Cu10     1.0000 0.50000  0.00000  0.75000  Biso   1.000  Cu
  Cu11     1.0000 0.00000  0.50000  0.75000  Biso   1.000  Cu
  Cu12     1.0000 0.50000  0.00000  0.25000  Biso   1.000  Cu
  N1       1.0000 0.00000  0.50000  0.39849  Biso   1.000  N
  N2       1.0000 0.50000  0.00000  0.89849  Biso   1.000  N
  N3       1.0000 0.50000  0.00000  0.60151  Biso   1.000  N
  N4       1.0000 0.00000  0.50000  0.10151  Biso   1.000  N
  N5       1.0000 0.00000  0.50000  0.60151  Biso   1.000  N
  N6       1.0000 0.50000  0.00000  0.10151  Biso   1.000  N
  N7       1.0000 0.50000  0.00000  0.39849  Biso   1.000  N
  N8       1.0000 0.00000  0.50000  0.89849  Biso   1.000  N
  C1       1.0000 0.03754  0.46547  0.44951  Biso   1.000  C
  C2       1.0000 0.53754  0.96547  0.94951  Biso   1.000  C
  C3       1.0000 0.96246  0.53453  0.44951  Biso   1.000  C
  C4       1.0000 0.46246  0.96547  0.55049  Biso   1.000  C
  C5       1.0000 0.53754  0.03453  0.55049  Biso   1.000  C
  C6       1.0000 0.46246  0.03453  0.94951  Biso   1.000  C
  C7       1.0000 0.96246  0.46547  0.05049  Biso   1.000  C
  C8       1.0000 0.03754  0.53453  0.05049  Biso   1.000  C
  C9       1.0000 0.96246  0.53453  0.55049  Biso   1.000  C
  C10      1.0000 0.46246  0.03453  0.05049  Biso   1.000  C
  C11      1.0000 0.03754  0.46547  0.55049  Biso   1.000  C
  C12      1.0000 0.53754  0.03453  0.44951  Biso   1.000  C
  C13      1.0000 0.46246  0.96547  0.44951  Biso   1.000  C
  C14      1.0000 0.53754  0.96547  0.05049  Biso   1.000  C
  C15      1.0000 0.03754  0.53453  0.94951  Biso   1.000  C
  C16      1.0000 0.96246  0.46547  0.94951  Biso   1.000  C
  H1       1.0000 0.06420  0.44090  0.41640  Biso   1.000  H
  H2       1.0000 0.56420  0.94090  0.91640  Biso   1.000  H
  H3       1.0000 0.93580  0.55910  0.41640  Biso   1.000  H
  H4       1.0000 0.43580  0.94090  0.58360  Biso   1.000  H
  H5       1.0000 0.56420  0.05910  0.58360  Biso   1.000  H
  H6       1.0000 0.43580  0.05910  0.91640  Biso   1.000  H
  H7       1.0000 0.93580  0.44090  0.08360  Biso   1.000  H
  H8       1.0000 0.06420  0.55910  0.08360  Biso   1.000  H
  H9       1.0000 0.93580  0.55910  0.58360  Biso   1.000  H
  H10      1.0000 0.43580  0.05910  0.08360  Biso   1.000  H
  H11      1.0000 0.06420  0.44090  0.58360  Biso   1.000  H
  H12      1.0000 0.56420  0.05910  0.41640  Biso   1.000  H
  H13      1.0000 0.43580  0.94090  0.41640  Biso   1.000  H
  H14      1.0000 0.56420  0.94090  0.08360  Biso   1.000  H
  H15      1.0000 0.06420  0.55910  0.91640  Biso   1.000  H
  H16      1.0000 0.93580  0.44090  0.91640  Biso   1.000  H
  N9       1.0000 0.43264  0.50000  0.25000  Biso   1.000  N
  N10      1.0000 0.93264  0.00000  0.75000  Biso   1.000  N
  N11      1.0000 0.56736  0.50000  0.25000  Biso   1.000  N
  N12      1.0000 0.06736  0.00000  0.75000  Biso   1.000  N
  N13      1.0000 0.56736  0.50000  0.75000  Biso   1.000  N
  N14      1.0000 0.06736  0.00000  0.25000  Biso   1.000  N
  N15      1.0000 0.43264  0.50000  0.75000  Biso   1.000  N
  N16      1.0000 0.93264  0.00000  0.25000  Biso   1.000  N
  C17      1.0000 0.46632  0.45328  0.25124  Biso   1.000  C
  C18      1.0000 0.96632  0.95328  0.75124  Biso   1.000  C
  C19      1.0000 0.53368  0.54672  0.25124  Biso   1.000  C
  C20      1.0000 0.03368  0.95328  0.74876  Biso   1.000  C
  C21      1.0000 0.96632  0.04672  0.74876  Biso   1.000  C
  C22      1.0000 0.03368  0.04672  0.75124  Biso   1.000  C
  C23      1.0000 0.53368  0.45328  0.24876  Biso   1.000  C
  C24      1.0000 0.46632  0.54672  0.24876  Biso   1.000  C
  C25      1.0000 0.53368  0.54672  0.74876  Biso   1.000  C
  C26      1.0000 0.03368  0.04672  0.24876  Biso   1.000  C
  C27      1.0000 0.46632  0.45328  0.74876  Biso   1.000  C
  C28      1.0000 0.96632  0.04672  0.25124  Biso   1.000  C
  C29      1.0000 0.03368  0.95328  0.25124  Biso   1.000  C
  C30      1.0000 0.96632  0.95328  0.24876  Biso   1.000  C
  C31      1.0000 0.46632  0.54672  0.75124  Biso   1.000  C
  C32      1.0000 0.53368  0.45328  0.75124  Biso   1.000  C
  H17      1.0000 0.44420  0.42000  0.25380  Biso   1.000  H
  H18      1.0000 0.94420  0.92000  0.75380  Biso   1.000  H
  H19      1.0000 0.55580  0.58000  0.25380  Biso   1.000  H
  H20      1.0000 0.05580  0.92000  0.74620  Biso   1.000  H
  H21      1.0000 0.94420  0.08000  0.74620  Biso   1.000  H
  H22      1.0000 0.05580  0.08000  0.75380  Biso   1.000  H
  H23      1.0000 0.55580  0.42000  0.24620  Biso   1.000  H
  H24      1.0000 0.44420  0.58000  0.24620  Biso   1.000  H
  H25      1.0000 0.55580  0.58000  0.74620  Biso   1.000  H
  H26      1.0000 0.05580  0.08000  0.24620  Biso   1.000  H
  H27      1.0000 0.44420  0.42000  0.74620  Biso   1.000  H
  H28      1.0000 0.94420  0.08000  0.25380  Biso   1.000  H
  H29      1.0000 0.05580  0.92000  0.25380  Biso   1.000  H
  H30      1.0000 0.94420  0.92000  0.24620  Biso   1.000  H
  H31      1.0000 0.44420  0.58000  0.75380  Biso   1.000  H
  H32      1.0000 0.55580  0.42000  0.75380  Biso   1.000  H
  N17      1.0000 0.33436  0.50160  0.39871  Biso   1.000  N
  N18      1.0000 0.83436  0.00160  0.89871  Biso   1.000  N
  N19      1.0000 0.66564  0.49840  0.39871  Biso   1.000  N
  N20      1.0000 0.16564  0.00160  0.60129  Biso   1.000  N
  N21      1.0000 0.83436  0.99840  0.60129  Biso   1.000  N
  N22      1.0000 0.16564  0.99840  0.89871  Biso   1.000  N
  N23      1.0000 0.66564  0.50160  0.10129  Biso   1.000  N
  N24      1.0000 0.33436  0.49840  0.10129  Biso   1.000  N
  N25      1.0000 0.66564  0.49840  0.60129  Biso   1.000  N
  N26      1.0000 0.16564  0.99840  0.10129  Biso   1.000  N
  N27      1.0000 0.33436  0.50160  0.60129  Biso   1.000  N
  N28      1.0000 0.83436  0.99840  0.39871  Biso   1.000  N
  N29      1.0000 0.16564  0.00160  0.39871  Biso   1.000  N
  N30      1.0000 0.83436  0.00160  0.10129  Biso   1.000  N
  N31      1.0000 0.33436  0.49840  0.89871  Biso   1.000  N
  N32      1.0000 0.66564  0.50160  0.89871  Biso   1.000  N
  C33      1.0000 0.30381  0.46261  0.44951  Biso   1.000  C
  C34      1.0000 0.80381  0.96261  0.94951  Biso   1.000  C
  C35      1.0000 0.69619  0.53739  0.44951  Biso   1.000  C
  C36      1.0000 0.19619  0.96261  0.55049  Biso   1.000  C
  C37      1.0000 0.80381  0.03739  0.55049  Biso   1.000  C
  C38      1.0000 0.19619  0.03739  0.94951  Biso   1.000  C
  C39      1.0000 0.69619  0.46261  0.05049  Biso   1.000  C
  C40      1.0000 0.30381  0.53739  0.05049  Biso   1.000  C
  C41      1.0000 0.69619  0.53739  0.55049  Biso   1.000  C
  C42      1.0000 0.19619  0.03739  0.05049  Biso   1.000  C
  C43      1.0000 0.30381  0.46261  0.55049  Biso   1.000  C
  C44      1.0000 0.80381  0.03739  0.44951  Biso   1.000  C
  C45      1.0000 0.19619  0.96261  0.44951  Biso   1.000  C
  C46      1.0000 0.80381  0.96261  0.05049  Biso   1.000  C
  C47      1.0000 0.30381  0.53739  0.94951  Biso   1.000  C
  C48      1.0000 0.69619  0.46261  0.94951  Biso   1.000  C
  H33      1.0000 0.28210  0.43480  0.41640  Biso   1.000  H
  H34      1.0000 0.78210  0.93480  0.91640  Biso   1.000  H
  H35      1.0000 0.71790  0.56520  0.41640  Biso   1.000  H
  H36      1.0000 0.21790  0.93480  0.58360  Biso   1.000  H
  H37      1.0000 0.78210  0.06520  0.58360  Biso   1.000  H
  H38      1.0000 0.21790  0.06520  0.91640  Biso   1.000  H
  H39      1.0000 0.71790  0.43480  0.08360  Biso   1.000  H
  H40      1.0000 0.28210  0.56520  0.08360  Biso   1.000  H
  H41      1.0000 0.71790  0.56520  0.58360  Biso   1.000  H
  H42      1.0000 0.21790  0.06520  0.08360  Biso   1.000  H
  H43      1.0000 0.28210  0.43480  0.58360  Biso   1.000  H
  H44      1.0000 0.78210  0.06520  0.41640  Biso   1.000  H
  H45      1.0000 0.21790  0.93480  0.41640  Biso   1.000  H
  H46      1.0000 0.78210  0.93480  0.08360  Biso   1.000  H
  H47      1.0000 0.28210  0.56520  0.91640  Biso   1.000  H
  H48      1.0000 0.71790  0.43480  0.91640  Biso   1.000  H
  C49      1.0000 0.36581  0.54036  0.44952  Biso   1.000  C
  C50      1.0000 0.86581  0.04036  0.94952  Biso   1.000  C
  C51      1.0000 0.63419  0.45964  0.44952  Biso   1.000  C
  C52      1.0000 0.13419  0.04036  0.55048  Biso   1.000  C
  C53      1.0000 0.86581  0.95964  0.55048  Biso   1.000  C
  C54      1.0000 0.13419  0.95964  0.94952  Biso   1.000  C
  C55      1.0000 0.63419  0.54036  0.05048  Biso   1.000  C
  C56      1.0000 0.36581  0.45964  0.05048  Biso   1.000  C
  C57      1.0000 0.63419  0.45964  0.55048  Biso   1.000  C
  C58      1.0000 0.13419  0.95964  0.05048  Biso   1.000  C
  C59      1.0000 0.36581  0.54036  0.55048  Biso   1.000  C
  C60      1.0000 0.86581  0.95964  0.44952  Biso   1.000  C
  C61      1.0000 0.13419  0.04036  0.44952  Biso   1.000  C
  C62      1.0000 0.86581  0.04036  0.05048  Biso   1.000  C
  C63      1.0000 0.36581  0.45964  0.94952  Biso   1.000  C
  C64      1.0000 0.63419  0.54036  0.94952  Biso   1.000  C
  H49      1.0000 0.38810  0.56780  0.41630  Biso   1.000  H
  H50      1.0000 0.88810  0.06780  0.91630  Biso   1.000  H
  H51      1.0000 0.61190  0.43220  0.41630  Biso   1.000  H
  H52      1.0000 0.11190  0.06780  0.58370  Biso   1.000  H
  H53      1.0000 0.88810  0.93220  0.58370  Biso   1.000  H
  H54      1.0000 0.11190  0.93220  0.91630  Biso   1.000  H
  H55      1.0000 0.61190  0.56780  0.08370  Biso   1.000  H
  H56      1.0000 0.38810  0.43220  0.08370  Biso   1.000  H
  H57      1.0000 0.61190  0.43220  0.58370  Biso   1.000  H
  H58      1.0000 0.11190  0.93220  0.08370  Biso   1.000  H
  H59      1.0000 0.38810  0.56780  0.58370  Biso   1.000  H
  H60      1.0000 0.88810  0.93220  0.41630  Biso   1.000  H
  H61      1.0000 0.11190  0.06780  0.41630  Biso   1.000  H
  H62      1.0000 0.88810  0.06780  0.08370  Biso   1.000  H
  H63      1.0000 0.38810  0.43220  0.91630  Biso   1.000  H
  H64      1.0000 0.61190  0.56780  0.91630  Biso   1.000  H
  N33      1.0000 0.09900  0.50000  0.25000  Biso   1.000  N
  N34      1.0000 0.59900  0.00000  0.75000  Biso   1.000  N
  N35      1.0000 0.90100  0.50000  0.25000  Biso   1.000  N
  N36      1.0000 0.40100  0.00000  0.75000  Biso   1.000  N
  N37      1.0000 0.90100  0.50000  0.75000  Biso   1.000  N
  N38      1.0000 0.40100  0.00000  0.25000  Biso   1.000  N
  N39      1.0000 0.09900  0.50000  0.75000  Biso   1.000  N
  N40      1.0000 0.59900  0.00000  0.25000  Biso   1.000  N
  C65      1.0000 0.13272  0.45752  0.21476  Biso   1.000  C
  C66      1.0000 0.63272  0.95752  0.71476  Biso   1.000  C
  C67      1.0000 0.86728  0.54248  0.21476  Biso   1.000  C
  C68      1.0000 0.36728  0.95752  0.78524  Biso   1.000  C
  C69      1.0000 0.63272  0.04248  0.78524  Biso   1.000  C
  C70      1.0000 0.36728  0.04248  0.71476  Biso   1.000  C
  C71      1.0000 0.86728  0.45752  0.28524  Biso   1.000  C
  C72      1.0000 0.13272  0.54248  0.28524  Biso   1.000  C
  C73      1.0000 0.86728  0.54248  0.78524  Biso   1.000  C
  C74      1.0000 0.36728  0.04248  0.28524  Biso   1.000  C
  C75      1.0000 0.13272  0.45752  0.78524  Biso   1.000  C
  C76      1.0000 0.63272  0.04248  0.21476  Biso   1.000  C
  C77      1.0000 0.36728  0.95752  0.21476  Biso   1.000  C
  C78      1.0000 0.63272  0.95752  0.28524  Biso   1.000  C
  C79      1.0000 0.13272  0.54248  0.71476  Biso   1.000  C
  C80      1.0000 0.86728  0.45752  0.71476  Biso   1.000  C
  H65      1.0000 0.11050  0.42740  0.18980  Biso   1.000  H
  H66      1.0000 0.61050  0.92740  0.68980  Biso   1.000  H
  H67      1.0000 0.88950  0.57260  0.18980  Biso   1.000  H
  H68      1.0000 0.38950  0.92740  0.81020  Biso   1.000  H
  H69      1.0000 0.61050  0.07260  0.81020  Biso   1.000  H
  H70      1.0000 0.38950  0.07260  0.68980  Biso   1.000  H
  H71      1.0000 0.88950  0.42740  0.31020  Biso   1.000  H
  H72      1.0000 0.11050  0.57260  0.31020  Biso   1.000  H
  H73      1.0000 0.88950  0.57260  0.81020  Biso   1.000  H
  H74      1.0000 0.38950  0.07260  0.31020  Biso   1.000  H
  H75      1.0000 0.11050  0.42740  0.81020  Biso   1.000  H
  H76      1.0000 0.61050  0.07260  0.18980  Biso   1.000  H
  H77      1.0000 0.38950  0.92740  0.18980  Biso   1.000  H
  H78      1.0000 0.61050  0.92740  0.31020  Biso   1.000  H
  H79      1.0000 0.11050  0.57260  0.68980  Biso   1.000  H
  H80      1.0000 0.88950  0.42740  0.68980  Biso   1.000  H
  N41      1.0000 0.23379  0.50000  0.25000  Biso   1.000  N
  N42      1.0000 0.73379  0.00000  0.75000  Biso   1.000  N
  N43      1.0000 0.76621  0.50000  0.25000  Biso   1.000  N
  N44      1.0000 0.26621  0.00000  0.75000  Biso   1.000  N
  N45      1.0000 0.76621  0.50000  0.75000  Biso   1.000  N
  N46      1.0000 0.26621  0.00000  0.25000  Biso   1.000  N
  N47      1.0000 0.23379  0.50000  0.75000  Biso   1.000  N
  N48      1.0000 0.73379  0.00000  0.25000  Biso   1.000  N
  C81      1.0000 0.19994  0.45742  0.21469  Biso   1.000  C
  C82      1.0000 0.69994  0.95742  0.71469  Biso   1.000  C
  C83      1.0000 0.80006  0.54258  0.21469  Biso   1.000  C
  C84      1.0000 0.30006  0.95742  0.78531  Biso   1.000  C
  C85      1.0000 0.69994  0.04258  0.78531  Biso   1.000  C
  C86      1.0000 0.30006  0.04258  0.71469  Biso   1.000  C
  C87      1.0000 0.80006  0.45742  0.28531  Biso   1.000  C
  C88      1.0000 0.19994  0.54258  0.28531  Biso   1.000  C
  C89      1.0000 0.80006  0.54258  0.78531  Biso   1.000  C
  C90      1.0000 0.30006  0.04258  0.28531  Biso   1.000  C
  C91      1.0000 0.19994  0.45742  0.78531  Biso   1.000  C
  C92      1.0000 0.69994  0.04258  0.21469  Biso   1.000  C
  C93      1.0000 0.30006  0.95742  0.21469  Biso   1.000  C
  C94      1.0000 0.69994  0.95742  0.28531  Biso   1.000  C
  C95      1.0000 0.19994  0.54258  0.71469  Biso   1.000  C
  C96      1.0000 0.80006  0.45742  0.71469  Biso   1.000  C
  H81      1.0000 0.22200  0.42720  0.18970  Biso   1.000  H
  H82      1.0000 0.72200  0.92720  0.68970  Biso   1.000  H
  H83      1.0000 0.77800  0.57280  0.18970  Biso   1.000  H
  H84      1.0000 0.27800  0.92720  0.81030  Biso   1.000  H
  H85      1.0000 0.72200  0.07280  0.81030  Biso   1.000  H
  H86      1.0000 0.27800  0.07280  0.68970  Biso   1.000  H
  H87      1.0000 0.77800  0.42720  0.31030  Biso   1.000  H
  H88      1.0000 0.22200  0.57280  0.31030  Biso   1.000  H
  H89      1.0000 0.77800  0.57280  0.81030  Biso   1.000  H
  H90      1.0000 0.27800  0.07280  0.31030  Biso   1.000  H
  H91      1.0000 0.22200  0.42720  0.81030  Biso   1.000  H
  H92      1.0000 0.72200  0.07280  0.18970  Biso   1.000  H
  H93      1.0000 0.27800  0.92720  0.18970  Biso   1.000  H
  H94      1.0000 0.72200  0.92720  0.31030  Biso   1.000  H
  H95      1.0000 0.22200  0.57280  0.68970  Biso   1.000  H
  H96      1.0000 0.77800  0.42720  0.68970  Biso   1.000  H
  O1       1.0000 0.33215  0.59446  0.24578  Biso   1.000  O
  O2       1.0000 0.83215  0.09446  0.74578  Biso   1.000  O
  O3       1.0000 0.66785  0.40554  0.24578  Biso   1.000  O
  O4       1.0000 0.16785  0.09446  0.75422  Biso   1.000  O
  O5       1.0000 0.83215  0.90554  0.75422  Biso   1.000  O
  O6       1.0000 0.16785  0.90554  0.74578  Biso   1.000  O
  O7       1.0000 0.66785  0.59446  0.25422  Biso   1.000  O
  O8       1.0000 0.33215  0.40554  0.25422  Biso   1.000  O
  O9       1.0000 0.66785  0.40554  0.75422  Biso   1.000  O
  O10      1.0000 0.16785  0.90554  0.25422  Biso   1.000  O
  O11      1.0000 0.33215  0.59446  0.75422  Biso   1.000  O
  O12      1.0000 0.83215  0.90554  0.24578  Biso   1.000  O
  O13      1.0000 0.16785  0.09446  0.24578  Biso   1.000  O
  O14      1.0000 0.83215  0.09446  0.25422  Biso   1.000  O
  O15      1.0000 0.33215  0.40554  0.74578  Biso   1.000  O
  O16      1.0000 0.66785  0.59446  0.74578  Biso   1.000  O
  N49      1.0000 0.34534  0.67940  0.18229  Biso   1.000  N
  N50      1.0000 0.84534  0.17940  0.68229  Biso   1.000  N
  N51      1.0000 0.65466  0.32060  0.18229  Biso   1.000  N
  N52      1.0000 0.15466  0.17940  0.81771  Biso   1.000  N
  N53      1.0000 0.84534  0.82060  0.81771  Biso   1.000  N
  N54      1.0000 0.15466  0.82060  0.68229  Biso   1.000  N
  N55      1.0000 0.65466  0.67940  0.31771  Biso   1.000  N
  N56      1.0000 0.34534  0.32060  0.31771  Biso   1.000  N
  N57      1.0000 0.65466  0.32060  0.81771  Biso   1.000  N
  N58      1.0000 0.15466  0.82060  0.31771  Biso   1.000  N
  N59      1.0000 0.34534  0.67940  0.81771  Biso   1.000  N
  N60      1.0000 0.84534  0.82060  0.18229  Biso   1.000  N
  N61      1.0000 0.15466  0.17940  0.18229  Biso   1.000  N
  N62      1.0000 0.84534  0.17940  0.31771  Biso   1.000  N
  N63      1.0000 0.34534  0.32060  0.68229  Biso   1.000  N
  N64      1.0000 0.65466  0.67940  0.68229  Biso   1.000  N
  H97      1.0000 0.35660  0.66630  0.12790  Biso   1.000  H
  H98      1.0000 0.85660  0.16630  0.62790  Biso   1.000  H
  H99      1.0000 0.64340  0.33370  0.12790  Biso   1.000  H
  H100     1.0000 0.14340  0.16630  0.87210  Biso   1.000  H
  H101     1.0000 0.85660  0.83370  0.87210  Biso   1.000  H
  H102     1.0000 0.14340  0.83370  0.62790  Biso   1.000  H
  H103     1.0000 0.64340  0.66630  0.37210  Biso   1.000  H
  H104     1.0000 0.35660  0.33370  0.37210  Biso   1.000  H
  H105     1.0000 0.64340  0.33370  0.87210  Biso   1.000  H
  H106     1.0000 0.14340  0.83370  0.37210  Biso   1.000  H
  H107     1.0000 0.35660  0.66630  0.87210  Biso   1.000  H
  H108     1.0000 0.85660  0.83370  0.12790  Biso   1.000  H
  H109     1.0000 0.14340  0.16630  0.12790  Biso   1.000  H
  H110     1.0000 0.85660  0.16630  0.37210  Biso   1.000  H
  H111     1.0000 0.35660  0.33370  0.62790  Biso   1.000  H
  H112     1.0000 0.64340  0.66630  0.62790  Biso   1.000  H
  C97      1.0000 0.33014  0.64539  0.25813  Biso   1.000  C
  C98      1.0000 0.83014  0.14539  0.75813  Biso   1.000  C
  C99      1.0000 0.66986  0.35461  0.25813  Biso   1.000  C
  C100     1.0000 0.16986  0.14539  0.74187  Biso   1.000  C
  C101     1.0000 0.83014  0.85461  0.74187  Biso   1.000  C
  C102     1.0000 0.16986  0.85461  0.75813  Biso   1.000  C
  C103     1.0000 0.66986  0.64539  0.24187  Biso   1.000  C
  C104     1.0000 0.33014  0.35461  0.24187  Biso   1.000  C
  C105     1.0000 0.66986  0.35461  0.74187  Biso   1.000  C
  C106     1.0000 0.16986  0.85461  0.24187  Biso   1.000  C
  C107     1.0000 0.33014  0.64539  0.74187  Biso   1.000  C
  C108     1.0000 0.83014  0.85461  0.25813  Biso   1.000  C
  C109     1.0000 0.16986  0.14539  0.25813  Biso   1.000  C
  C110     1.0000 0.83014  0.14539  0.24187  Biso   1.000  C
  C111     1.0000 0.33014  0.35461  0.75813  Biso   1.000  C
  C112     1.0000 0.66986  0.64539  0.75813  Biso   1.000  C
  C113     1.0000 0.31351  0.67267  0.34639  Biso   1.000  C
  C114     1.0000 0.81351  0.17267  0.84639  Biso   1.000  C
  C115     1.0000 0.68649  0.32733  0.34639  Biso   1.000  C
  C116     1.0000 0.18649  0.17267  0.65361  Biso   1.000  C
  C117     1.0000 0.81351  0.82733  0.65361  Biso   1.000  C
  C118     1.0000 0.18649  0.82733  0.84639  Biso   1.000  C
  C119     1.0000 0.68649  0.67267  0.15361  Biso   1.000  C
  C120     1.0000 0.31351  0.32733  0.15361  Biso   1.000  C
  C121     1.0000 0.68649  0.32733  0.65361  Biso   1.000  C
  C122     1.0000 0.18649  0.82733  0.15361  Biso   1.000  C
  C123     1.0000 0.31351  0.67267  0.65361  Biso   1.000  C
  C124     1.0000 0.81351  0.82733  0.34639  Biso   1.000  C
  C125     1.0000 0.18649  0.17267  0.34639  Biso   1.000  C
  C126     1.0000 0.81351  0.17267  0.15361  Biso   1.000  C
  C127     1.0000 0.31351  0.32733  0.84639  Biso   1.000  C
  C128     1.0000 0.68649  0.67267  0.84639  Biso   1.000  C
  H113     1.0000 0.30260  0.65220  0.40120  Biso   1.000  H
  H114     1.0000 0.80260  0.15220  0.90120  Biso   1.000  H
  H115     1.0000 0.69740  0.34780  0.40120  Biso   1.000  H
  H116     1.0000 0.19740  0.15220  0.59880  Biso   1.000  H
  H117     1.0000 0.80260  0.84780  0.59880  Biso   1.000  H
  H118     1.0000 0.19740  0.84780  0.90120  Biso   1.000  H
  H119     1.0000 0.69740  0.65220  0.09880  Biso   1.000  H
  H120     1.0000 0.30260  0.34780  0.09880  Biso   1.000  H
  H121     1.0000 0.69740  0.34780  0.59880  Biso   1.000  H
  H122     1.0000 0.19740  0.84780  0.09880  Biso   1.000  H
  H123     1.0000 0.30260  0.65220  0.59880  Biso   1.000  H
  H124     1.0000 0.80260  0.84780  0.40120  Biso   1.000  H
  H125     1.0000 0.19740  0.15220  0.40120  Biso   1.000  H
  H126     1.0000 0.80260  0.15220  0.09880  Biso   1.000  H
  H127     1.0000 0.30260  0.34780  0.90120  Biso   1.000  H
  H128     1.0000 0.69740  0.65220  0.90120  Biso   1.000  H
  C129     1.0000 0.31348  0.72833  0.35126  Biso   1.000  C
  C130     1.0000 0.81348  0.22833  0.85126  Biso   1.000  C
  C131     1.0000 0.68652  0.27167  0.35126  Biso   1.000  C
  C132     1.0000 0.18652  0.22833  0.64874  Biso   1.000  C
  C133     1.0000 0.81348  0.77167  0.64874  Biso   1.000  C
  C134     1.0000 0.18652  0.77167  0.85126  Biso   1.000  C
  C135     1.0000 0.68652  0.72833  0.14874  Biso   1.000  C
  C136     1.0000 0.31348  0.27167  0.14874  Biso   1.000  C
  C137     1.0000 0.68652  0.27167  0.64874  Biso   1.000  C
  C138     1.0000 0.18652  0.77167  0.14874  Biso   1.000  C
  C139     1.0000 0.31348  0.72833  0.64874  Biso   1.000  C
  C140     1.0000 0.81348  0.77167  0.35126  Biso   1.000  C
  C141     1.0000 0.18652  0.22833  0.35126  Biso   1.000  C
  C142     1.0000 0.81348  0.22833  0.14874  Biso   1.000  C
  C143     1.0000 0.31348  0.27167  0.85126  Biso   1.000  C
  C144     1.0000 0.68652  0.72833  0.85126  Biso   1.000  C
  H129     1.0000 0.30260  0.74530  0.40970  Biso   1.000  H
  H130     1.0000 0.80260  0.24530  0.90970  Biso   1.000  H
  H131     1.0000 0.69740  0.25470  0.40970  Biso   1.000  H
  H132     1.0000 0.19740  0.24530  0.59030  Biso   1.000  H
  H133     1.0000 0.80260  0.75470  0.59030  Biso   1.000  H
  H134     1.0000 0.19740  0.75470  0.90970  Biso   1.000  H
  H135     1.0000 0.69740  0.74530  0.09030  Biso   1.000  H
  H136     1.0000 0.30260  0.25470  0.09030  Biso   1.000  H
  H137     1.0000 0.69740  0.25470  0.59030  Biso   1.000  H
  H138     1.0000 0.19740  0.75470  0.09030  Biso   1.000  H
  H139     1.0000 0.30260  0.74530  0.59030  Biso   1.000  H
  H140     1.0000 0.80260  0.75470  0.40970  Biso   1.000  H
  H141     1.0000 0.19740  0.24530  0.40970  Biso   1.000  H
  H142     1.0000 0.80260  0.24530  0.09030  Biso   1.000  H
  H143     1.0000 0.30260  0.25470  0.90970  Biso   1.000  H
  H144     1.0000 0.69740  0.74530  0.90970  Biso   1.000  H
  C145     1.0000 0.32946  0.76090  0.27050  Biso   1.000  C
  C146     1.0000 0.82946  0.26090  0.77050  Biso   1.000  C
  C147     1.0000 0.67054  0.23910  0.27050  Biso   1.000  C
  C148     1.0000 0.17054  0.26090  0.72950  Biso   1.000  C
  C149     1.0000 0.82946  0.73910  0.72950  Biso   1.000  C
  C150     1.0000 0.17054  0.73910  0.77050  Biso   1.000  C
  C151     1.0000 0.67054  0.76090  0.22950  Biso   1.000  C
  C152     1.0000 0.32946  0.23910  0.22950  Biso   1.000  C
  C153     1.0000 0.67054  0.23910  0.72950  Biso   1.000  C
  C154     1.0000 0.17054  0.73910  0.22950  Biso   1.000  C
  C155     1.0000 0.32946  0.76090  0.72950  Biso   1.000  C
  C156     1.0000 0.82946  0.73910  0.27050  Biso   1.000  C
  C157     1.0000 0.17054  0.26090  0.27050  Biso   1.000  C
  C158     1.0000 0.82946  0.26090  0.22950  Biso   1.000  C
  C159     1.0000 0.32946  0.23910  0.77050  Biso   1.000  C
  C160     1.0000 0.67054  0.76090  0.77050  Biso   1.000  C
  H145     1.0000 0.32930  0.79900  0.27460  Biso   1.000  H
  H146     1.0000 0.82930  0.29900  0.77460  Biso   1.000  H
  H147     1.0000 0.67070  0.20100  0.27460  Biso   1.000  H
  H148     1.0000 0.17070  0.29900  0.72540  Biso   1.000  H
  H149     1.0000 0.82930  0.70100  0.72540  Biso   1.000  H
  H150     1.0000 0.17070  0.70100  0.77460  Biso   1.000  H
  H151     1.0000 0.67070  0.79900  0.22540  Biso   1.000  H
  H152     1.0000 0.32930  0.20100  0.22540  Biso   1.000  H
  H153     1.0000 0.67070  0.20100  0.72540  Biso   1.000  H
  H154     1.0000 0.17070  0.70100  0.22540  Biso   1.000  H
  H155     1.0000 0.32930  0.79900  0.72540  Biso   1.000  H
  H156     1.0000 0.82930  0.70100  0.27460  Biso   1.000  H
  H157     1.0000 0.17070  0.29900  0.27460  Biso   1.000  H
  H158     1.0000 0.82930  0.29900  0.22540  Biso   1.000  H
  H159     1.0000 0.32930  0.20100  0.77460  Biso   1.000  H
  H160     1.0000 0.67070  0.79900  0.77460  Biso   1.000  H
  C161     1.0000 0.34503  0.73531  0.18694  Biso   1.000  C
  C162     1.0000 0.84503  0.23531  0.68694  Biso   1.000  C
  C163     1.0000 0.65497  0.26469  0.18694  Biso   1.000  C
  C164     1.0000 0.15497  0.23531  0.81306  Biso   1.000  C
  C165     1.0000 0.84503  0.76469  0.81306  Biso   1.000  C
  C166     1.0000 0.15497  0.76469  0.68694  Biso   1.000  C
  C167     1.0000 0.65497  0.73531  0.31306  Biso   1.000  C
  C168     1.0000 0.34503  0.26469  0.31306  Biso   1.000  C
  C169     1.0000 0.65497  0.26469  0.81306  Biso   1.000  C
  C170     1.0000 0.15497  0.76469  0.31306  Biso   1.000  C
  C171     1.0000 0.34503  0.73531  0.81306  Biso   1.000  C
  C172     1.0000 0.84503  0.76469  0.18694  Biso   1.000  C
  C173     1.0000 0.15497  0.23531  0.18694  Biso   1.000  C
  C174     1.0000 0.84503  0.23531  0.31306  Biso   1.000  C
  C175     1.0000 0.34503  0.26469  0.68694  Biso   1.000  C
  C176     1.0000 0.65497  0.73531  0.68694  Biso   1.000  C
  H161     1.0000 0.35560  0.75580  0.13200  Biso   1.000  H
  H162     1.0000 0.85560  0.25580  0.63200  Biso   1.000  H
  H163     1.0000 0.64440  0.24420  0.13200  Biso   1.000  H
  H164     1.0000 0.14440  0.25580  0.86800  Biso   1.000  H
  H165     1.0000 0.85560  0.74420  0.86800  Biso   1.000  H
  H166     1.0000 0.14440  0.74420  0.63200  Biso   1.000  H
  H167     1.0000 0.64440  0.75580  0.36800  Biso   1.000  H
  H168     1.0000 0.35560  0.24420  0.36800  Biso   1.000  H
  H169     1.0000 0.64440  0.24420  0.86800  Biso   1.000  H
  H170     1.0000 0.14440  0.74420  0.36800  Biso   1.000  H
  H171     1.0000 0.35560  0.75580  0.86800  Biso   1.000  H
  H172     1.0000 0.85560  0.74420  0.13200  Biso   1.000  H
  H173     1.0000 0.14440  0.25580  0.13200  Biso   1.000  H
  H174     1.0000 0.85560  0.25580  0.36800  Biso   1.000  H
  H175     1.0000 0.35560  0.24420  0.63200  Biso   1.000  H
  H176     1.0000 0.64440  0.75580  0.63200  Biso   1.000  H
  O17      1.0000 0.00000  0.40404  0.25000  Biso   1.000  O
  O18      1.0000 0.50000  0.90404  0.75000  Biso   1.000  O
  O19      1.0000 0.00000  0.59596  0.25000  Biso   1.000  O
  O20      1.0000 0.50000  0.09596  0.75000  Biso   1.000  O
  O21      1.0000 0.00000  0.59596  0.75000  Biso   1.000  O
  O22      1.0000 0.50000  0.09596  0.25000  Biso   1.000  O
  O23      1.0000 0.00000  0.40404  0.75000  Biso   1.000  O
  O24      1.0000 0.50000  0.90404  0.25000  Biso   1.000  O
  N65      1.0000 0.98826  0.32152  0.16738  Biso   1.000  N
  N66      1.0000 0.48826  0.82152  0.66738  Biso   1.000  N
  N67      1.0000 0.01174  0.67848  0.16738  Biso   1.000  N
  N68      1.0000 0.51174  0.82152  0.83262  Biso   1.000  N
  N69      1.0000 0.48826  0.17848  0.83262  Biso   1.000  N
  N70      1.0000 0.51174  0.17848  0.66738  Biso   1.000  N
  N71      1.0000 0.01174  0.32152  0.33262  Biso   1.000  N
  N72      1.0000 0.98826  0.67848  0.33262  Biso   1.000  N
  N73      1.0000 0.01174  0.67848  0.83262  Biso   1.000  N
  N74      1.0000 0.51174  0.17848  0.33262  Biso   1.000  N
  N75      1.0000 0.98826  0.32152  0.83262  Biso   1.000  N
  N76      1.0000 0.48826  0.17848  0.16738  Biso   1.000  N
  N77      1.0000 0.51174  0.82152  0.16738  Biso   1.000  N
  N78      1.0000 0.48826  0.82152  0.33262  Biso   1.000  N
  N79      1.0000 0.98826  0.67848  0.66738  Biso   1.000  N
  N80      1.0000 0.01174  0.32152  0.66738  Biso   1.000  N
  H177     1.0000 0.99800  0.33420  0.11500  Biso   1.000  H
  H178     1.0000 0.49800  0.83420  0.61500  Biso   1.000  H
  H179     1.0000 0.00200  0.66580  0.11500  Biso   1.000  H
  H180     1.0000 0.50200  0.83420  0.88500  Biso   1.000  H
  H181     1.0000 0.49800  0.16580  0.88500  Biso   1.000  H
  H182     1.0000 0.50200  0.16580  0.61500  Biso   1.000  H
  H183     1.0000 0.00200  0.33420  0.38500  Biso   1.000  H
  H184     1.0000 0.99800  0.66580  0.38500  Biso   1.000  H
  H185     1.0000 0.00200  0.66580  0.88500  Biso   1.000  H
  H186     1.0000 0.50200  0.16580  0.38500  Biso   1.000  H
  H187     1.0000 0.99800  0.33420  0.88500  Biso   1.000  H
  H188     1.0000 0.49800  0.16580  0.11500  Biso   1.000  H
  H189     1.0000 0.50200  0.83420  0.11500  Biso   1.000  H
  H190     1.0000 0.49800  0.83420  0.38500  Biso   1.000  H
  H191     1.0000 0.99800  0.66580  0.61500  Biso   1.000  H
  H192     1.0000 0.00200  0.33420  0.61500  Biso   1.000  H
  H193     1.0000 0.97960  0.33970  0.10920  Biso   1.000  H
  H194     1.0000 0.47960  0.83970  0.60920  Biso   1.000  H
  H195     1.0000 0.02040  0.66030  0.10920  Biso   1.000  H
  H196     1.0000 0.52040  0.83970  0.89080  Biso   1.000  H
  H197     1.0000 0.47960  0.16030  0.89080  Biso   1.000  H
  H198     1.0000 0.52040  0.16030  0.60920  Biso   1.000  H
  H199     1.0000 0.02040  0.33970  0.39080  Biso   1.000  H
  H200     1.0000 0.97960  0.66030  0.39080  Biso   1.000  H
  H201     1.0000 0.02040  0.66030  0.89080  Biso   1.000  H
  H202     1.0000 0.52040  0.16030  0.39080  Biso   1.000  H
  H203     1.0000 0.97960  0.33970  0.89080  Biso   1.000  H
  H204     1.0000 0.47960  0.16030  0.10920  Biso   1.000  H
  H205     1.0000 0.52040  0.83970  0.10920  Biso   1.000  H
  H206     1.0000 0.47960  0.83970  0.39080  Biso   1.000  H
  H207     1.0000 0.97960  0.66030  0.60920  Biso   1.000  H
  H208     1.0000 0.02040  0.33970  0.60920  Biso   1.000  H
  C177     1.0000 0.00000  0.35308  0.25000  Biso   1.000  C
  C178     1.0000 0.50000  0.85308  0.75000  Biso   1.000  C
  C179     1.0000 0.00000  0.64692  0.25000  Biso   1.000  C
  C180     1.0000 0.50000  0.14692  0.75000  Biso   1.000  C
  C181     1.0000 0.00000  0.64692  0.75000  Biso   1.000  C
  C182     1.0000 0.50000  0.14692  0.25000  Biso   1.000  C
  C183     1.0000 0.00000  0.35308  0.75000  Biso   1.000  C
  C184     1.0000 0.50000  0.85308  0.25000  Biso   1.000  C
  C185     1.0000 0.98863  0.26583  0.16664  Biso   1.000  C
  C186     1.0000 0.48863  0.76583  0.66664  Biso   1.000  C
  C187     1.0000 0.01137  0.73417  0.16664  Biso   1.000  C
  C188     1.0000 0.51137  0.76583  0.83336  Biso   1.000  C
  C189     1.0000 0.48863  0.23417  0.83336  Biso   1.000  C
  C190     1.0000 0.51137  0.23417  0.66664  Biso   1.000  C
  C191     1.0000 0.01137  0.26583  0.33336  Biso   1.000  C
  C192     1.0000 0.98863  0.73417  0.33336  Biso   1.000  C
  C193     1.0000 0.01137  0.73417  0.83336  Biso   1.000  C
  C194     1.0000 0.51137  0.23417  0.33336  Biso   1.000  C
  C195     1.0000 0.98863  0.26583  0.83336  Biso   1.000  C
  C196     1.0000 0.48863  0.23417  0.16664  Biso   1.000  C
  C197     1.0000 0.51137  0.76583  0.16664  Biso   1.000  C
  C198     1.0000 0.48863  0.76583  0.33336  Biso   1.000  C
  C199     1.0000 0.98863  0.73417  0.66664  Biso   1.000  C
  C200     1.0000 0.01137  0.26583  0.66664  Biso   1.000  C
  H209     1.0000 0.98100  0.24720  0.10860  Biso   1.000  H
  H210     1.0000 0.48100  0.74720  0.60860  Biso   1.000  H
  H211     1.0000 0.01900  0.75280  0.10860  Biso   1.000  H
  H212     1.0000 0.51900  0.74720  0.89140  Biso   1.000  H
  H213     1.0000 0.48100  0.25280  0.89140  Biso   1.000  H
  H214     1.0000 0.51900  0.25280  0.60860  Biso   1.000  H
  H215     1.0000 0.01900  0.24720  0.39140  Biso   1.000  H
  H216     1.0000 0.98100  0.75280  0.39140  Biso   1.000  H
  H217     1.0000 0.01900  0.75280  0.89140  Biso   1.000  H
  H218     1.0000 0.51900  0.25280  0.39140  Biso   1.000  H
  H219     1.0000 0.98100  0.24720  0.89140  Biso   1.000  H
  H220     1.0000 0.48100  0.25280  0.10860  Biso   1.000  H
  H221     1.0000 0.51900  0.74720  0.10860  Biso   1.000  H
  H222     1.0000 0.48100  0.74720  0.39140  Biso   1.000  H
  H223     1.0000 0.98100  0.75280  0.60860  Biso   1.000  H
  H224     1.0000 0.01900  0.24720  0.60860  Biso   1.000  H
  C201     1.0000 0.00000  0.23682  0.25000  Biso   1.000  C
  C202     1.0000 0.50000  0.73682  0.75000  Biso   1.000  C
  C203     1.0000 0.00000  0.76318  0.25000  Biso   1.000  C
  C204     1.0000 0.50000  0.26318  0.75000  Biso   1.000  C
  C205     1.0000 0.00000  0.76318  0.75000  Biso   1.000  C
  C206     1.0000 0.50000  0.26318  0.25000  Biso   1.000  C
  C207     1.0000 0.00000  0.23682  0.75000  Biso   1.000  C
  C208     1.0000 0.50000  0.73682  0.25000  Biso   1.000  C
  H225     1.0000 0.00000  0.19860  0.25000  Biso   1.000  H
  H226     1.0000 0.50000  0.69860  0.75000  Biso   1.000  H
  H227     1.0000 0.00000  0.80140  0.25000  Biso   1.000  H
  H228     1.0000 0.50000  0.30140  0.75000  Biso   1.000  H
  H229     1.0000 0.00000  0.80140  0.75000  Biso   1.000  H
  H230     1.0000 0.50000  0.30140  0.25000  Biso   1.000  H
  H231     1.0000 0.00000  0.19860  0.75000  Biso   1.000  H
  H232     1.0000 0.50000  0.69860  0.25000  Biso   1.000  H
  Cl1      1.0000 0.52996  0.61835  0.50000  Biso   1.000  Cl
  Cl2      1.0000 0.02996  0.11835  0.00000  Biso   1.000  Cl
  Cl3      1.0000 0.47004  0.38165  0.50000  Biso   1.000  Cl
  Cl4      1.0000 0.97004  0.11835  0.50000  Biso   1.000  Cl
  Cl5      1.0000 0.02996  0.88165  0.50000  Biso   1.000  Cl
  Cl6      1.0000 0.97004  0.88165  0.00000  Biso   1.000  Cl
  Cl7      1.0000 0.47004  0.61835  0.00000  Biso   1.000  Cl
  Cl8      1.0000 0.52996  0.38165  0.00000  Biso   1.000  Cl
  O25      1.0000 0.49597  0.63599  0.58582  Biso   1.000  O
  O26      1.0000 0.99597  0.13599  0.08582  Biso   1.000  O
  O27      1.0000 0.50403  0.36401  0.58582  Biso   1.000  O
  O28      1.0000 0.00403  0.13599  0.41418  Biso   1.000  O
  O29      1.0000 0.99597  0.86401  0.41418  Biso   1.000  O
  O30      1.0000 0.00403  0.86401  0.08582  Biso   1.000  O
  O31      1.0000 0.50403  0.63599  0.91418  Biso   1.000  O
  O32      1.0000 0.49597  0.36401  0.91418  Biso   1.000  O
  O33      1.0000 0.50403  0.36401  0.41418  Biso   1.000  O
  O34      1.0000 0.00403  0.86401  0.91418  Biso   1.000  O
  O35      1.0000 0.49597  0.63599  0.41418  Biso   1.000  O
  O36      1.0000 0.99597  0.86401  0.58582  Biso   1.000  O
  O37      1.0000 0.00403  0.13599  0.58582  Biso   1.000  O
  O38      1.0000 0.99597  0.13599  0.91418  Biso   1.000  O
  O39      1.0000 0.49597  0.36401  0.08582  Biso   1.000  O
  O40      1.0000 0.50403  0.63599  0.08582  Biso   1.000  O
  O41      1.0000 0.53673  0.55988  0.50000  Biso   1.000  O
  O42      1.0000 0.03673  0.05988  0.00000  Biso   1.000  O
  O43      1.0000 0.46327  0.44012  0.50000  Biso   1.000  O
  O44      1.0000 0.96327  0.05988  0.50000  Biso   1.000  O
  O45      1.0000 0.03673  0.94012  0.50000  Biso   1.000  O
  O46      1.0000 0.96327  0.94012  0.00000  Biso   1.000  O
  O47      1.0000 0.46327  0.55988  0.00000  Biso   1.000  O
  O48      1.0000 0.53673  0.44012  0.00000  Biso   1.000  O
  O49      1.0000 0.59443  0.64308  0.50000  Biso   1.000  O
  O50      1.0000 0.09443  0.14308  0.00000  Biso   1.000  O
  O51      1.0000 0.40557  0.35692  0.50000  Biso   1.000  O
  O52      1.0000 0.90557  0.14308  0.50000  Biso   1.000  O
  O53      1.0000 0.09443  0.85692  0.50000  Biso   1.000  O
  O54      1.0000 0.90557  0.85692  0.00000  Biso   1.000  O
  O55      1.0000 0.40557  0.64308  0.00000  Biso   1.000  O
  O56      1.0000 0.59443  0.35692  0.00000  Biso   1.000  O
  Cl9      1.0000 0.82700  0.36360  0.00000  Biso   1.000  Cl
  Cl10     1.0000 0.32700  0.86360  0.50000  Biso   1.000  Cl
  Cl11     1.0000 0.17300  0.63640  0.00000  Biso   1.000  Cl
  Cl12     1.0000 0.67300  0.86360  0.00000  Biso   1.000  Cl
  Cl13     1.0000 0.32700  0.13640  0.00000  Biso   1.000  Cl
  Cl14     1.0000 0.67300  0.13640  0.50000  Biso   1.000  Cl
  Cl15     1.0000 0.17300  0.36360  0.50000  Biso   1.000  Cl
  Cl16     1.0000 0.82700  0.63640  0.50000  Biso   1.000  Cl
  O57      1.0000 0.83090  0.39690  0.08635  Biso   1.000  O
  O58      1.0000 0.33090  0.89690  0.58635  Biso   1.000  O
  O59      1.0000 0.16910  0.60310  0.08635  Biso   1.000  O
  O60      1.0000 0.66910  0.89690  0.91365  Biso   1.000  O
  O61      1.0000 0.33090  0.10310  0.91365  Biso   1.000  O
  O62      1.0000 0.66910  0.10310  0.58635  Biso   1.000  O
  O63      1.0000 0.16910  0.39690  0.41365  Biso   1.000  O
  O64      1.0000 0.83090  0.60310  0.41365  Biso   1.000  O
  O65      1.0000 0.16910  0.60310  0.91365  Biso   1.000  O
  O66      1.0000 0.66910  0.10310  0.41365  Biso   1.000  O
  O67      1.0000 0.83090  0.39690  0.91365  Biso   1.000  O
  O68      1.0000 0.33090  0.10310  0.08635  Biso   1.000  O
  O69      1.0000 0.66910  0.89690  0.08635  Biso   1.000  O
  O70      1.0000 0.33090  0.89690  0.41365  Biso   1.000  O
  O71      1.0000 0.83090  0.60310  0.58635  Biso   1.000  O
  O72      1.0000 0.16910  0.39690  0.58635  Biso   1.000  O
  O73      1.0000 0.76615  0.33481  0.00000  Biso   1.000  O
  O74      1.0000 0.26615  0.83481  0.50000  Biso   1.000  O
  O75      1.0000 0.23385  0.66519  0.00000  Biso   1.000  O
  O76      1.0000 0.73385  0.83481  0.00000  Biso   1.000  O
  O77      1.0000 0.26615  0.16519  0.00000  Biso   1.000  O
  O78      1.0000 0.73385  0.16519  0.50000  Biso   1.000  O
  O79      1.0000 0.23385  0.33481  0.50000  Biso   1.000  O
  O80      1.0000 0.76615  0.66519  0.50000  Biso   1.000  O
  O81      1.0000 0.88018  0.32554  0.00000  Biso   1.000  O
  O82      1.0000 0.38018  0.82554  0.50000  Biso   1.000  O
  O83      1.0000 0.11982  0.67446  0.00000  Biso   1.000  O
  O84      1.0000 0.61982  0.82554  0.00000  Biso   1.000  O
  O85      1.0000 0.38018  0.17446  0.00000  Biso   1.000  O
  O86      1.0000 0.61982  0.17446  0.50000  Biso   1.000  O
  O87      1.0000 0.11982  0.32554  0.50000  Biso   1.000  O
  O88      1.0000 0.88018  0.67446  0.50000  Biso   1.000  O
  O89      1.0000 0.15687  0.35137  0.91344  Biso   1.000  O
  O90      1.0000 0.65687  0.85137  0.41344  Biso   1.000  O
  O91      1.0000 0.84313  0.64863  0.91344  Biso   1.000  O
  O92      1.0000 0.34313  0.85137  0.08656  Biso   1.000  O
  O93      1.0000 0.65687  0.14863  0.08656  Biso   1.000  O
  O94      1.0000 0.34313  0.14863  0.41344  Biso   1.000  O
  O95      1.0000 0.84313  0.35137  0.58656  Biso   1.000  O
  O96      1.0000 0.15687  0.64863  0.58656  Biso   1.000  O
  O97      1.0000 0.84313  0.64863  0.08656  Biso   1.000  O
  O98      1.0000 0.34313  0.14863  0.58656  Biso   1.000  O
  O99      1.0000 0.15687  0.35137  0.08656  Biso   1.000  O
  O100     1.0000 0.65687  0.14863  0.91344  Biso   1.000  O
  O101     1.0000 0.34313  0.85137  0.91344  Biso   1.000  O
  O102     1.0000 0.65687  0.85137  0.58656  Biso   1.000  O
  O103     1.0000 0.15687  0.64863  0.41344  Biso   1.000  O
  O104     1.0000 0.84313  0.35137  0.41344  Biso   1.000  O
  Cl17     1.0000 0.15777  0.38269  0.00000  Biso   1.000  Cl
  Cl18     1.0000 0.65777  0.88269  0.50000  Biso   1.000  Cl
  Cl19     1.0000 0.84223  0.61731  0.00000  Biso   1.000  Cl
  Cl20     1.0000 0.34223  0.88269  0.00000  Biso   1.000  Cl
  Cl21     1.0000 0.65777  0.11731  0.00000  Biso   1.000  Cl
  Cl22     1.0000 0.34223  0.11731  0.50000  Biso   1.000  Cl
  Cl23     1.0000 0.84223  0.38269  0.50000  Biso   1.000  Cl
  Cl24     1.0000 0.15777  0.61731  0.50000  Biso   1.000  Cl
  O105     1.0000 0.10620  0.42052  0.00000  Biso   1.000  O
  O106     1.0000 0.60620  0.92052  0.50000  Biso   1.000  O
  O107     1.0000 0.89380  0.57948  0.00000  Biso   1.000  O
  O108     1.0000 0.39380  0.92052  0.00000  Biso   1.000  O
  O109     1.0000 0.60620  0.07948  0.00000  Biso   1.000  O
  O110     1.0000 0.39380  0.07948  0.50000  Biso   1.000  O
  O111     1.0000 0.89380  0.42052  0.50000  Biso   1.000  O
  O112     1.0000 0.10620  0.57948  0.50000  Biso   1.000  O
  O113     1.0000 0.21711  0.41425  0.00000  Biso   1.000  O
  O114     1.0000 0.71711  0.91425  0.50000  Biso   1.000  O
  O115     1.0000 0.78289  0.58575  0.00000  Biso   1.000  O
  O116     1.0000 0.28289  0.91425  0.00000  Biso   1.000  O
  O117     1.0000 0.71711  0.08575  0.00000  Biso   1.000  O
  O118     1.0000 0.28289  0.08575  0.50000  Biso   1.000  O
  O119     1.0000 0.78289  0.41425  0.50000  Biso   1.000  O
  O120     1.0000 0.21711  0.58575  0.50000  Biso   1.000  O
  Cl25     1.0000 0.12028  0.35312  0.00000  Biso   1.000  Cl
  Cl26     1.0000 0.62028  0.85312  0.50000  Biso   1.000  Cl
  Cl27     1.0000 0.87972  0.64688  0.00000  Biso   1.000  Cl
  Cl28     1.0000 0.37972  0.85312  0.00000  Biso   1.000  Cl
  Cl29     1.0000 0.62028  0.14688  0.00000  Biso   1.000  Cl
  Cl30     1.0000 0.37972  0.14688  0.50000  Biso   1.000  Cl
  Cl31     1.0000 0.87972  0.35312  0.50000  Biso   1.000  Cl
  Cl32     1.0000 0.12028  0.64688  0.50000  Biso   1.000  Cl
  O121     1.0000 0.08970  0.29810  0.00000  Biso   1.000  O
  O122     1.0000 0.58970  0.79810  0.50000  Biso   1.000  O
  O123     1.0000 0.91030  0.70190  0.00000  Biso   1.000  O
  O124     1.0000 0.41030  0.79810  0.00000  Biso   1.000  O
  O125     1.0000 0.58970  0.20190  0.00000  Biso   1.000  O
  O126     1.0000 0.41030  0.20190  0.50000  Biso   1.000  O
  O127     1.0000 0.91030  0.29810  0.50000  Biso   1.000  O
  O128     1.0000 0.08970  0.70190  0.50000  Biso   1.000  O
  O129     1.0000 0.07050  0.39080  0.00000  Biso   1.000  O
  O130     1.0000 0.57050  0.89080  0.50000  Biso   1.000  O
  O131     1.0000 0.92950  0.60920  0.00000  Biso   1.000  O
  O132     1.0000 0.42950  0.89080  0.00000  Biso   1.000  O
  O133     1.0000 0.57050  0.10920  0.00000  Biso   1.000  O
  O134     1.0000 0.42950  0.10920  0.50000  Biso   1.000  O
  O135     1.0000 0.92950  0.39080  0.50000  Biso   1.000  O
  O136     1.0000 0.07050  0.60920  0.50000  Biso   1.000  O
