data_image0
_cell_length_a       35.509
_cell_length_b       14.304
_cell_length_c       15.395
_cell_angle_alpha    90
_cell_angle_beta     108.369
_cell_angle_gamma    90

_symmetry_space_group_name_H-M    "P 1"
_symmetry_int_tables_number       1

loop_
  _symmetry_equiv_pos_as_xyz
  'x, y, z'

loop_
  _atom_site_label
  _atom_site_occupancy
  _atom_site_fract_x
  _atom_site_fract_y
  _atom_site_fract_z
  _atom_site_thermal_displace_type
  _atom_site_B_iso_or_equiv
  _atom_site_type_symbol
  Cu1      1.0000 0.50000  0.00000  0.50000  Biso   1.000  Cu
  Cu2      1.0000 0.50000  0.00000  0.00000  Biso   1.000  Cu
  Cu3      1.0000 0.00000  0.50000  0.50000  Biso   1.000  Cu
  Cu4      1.0000 0.00000  0.50000  0.00000  Biso   1.000  Cu
  O1       1.0000 0.87901  0.76870  0.63700  Biso   1.000  O
  O2       1.0000 0.12099  0.76870  0.86300  Biso   1.000  O
  O3       1.0000 0.37901  0.26870  0.63700  Biso   1.000  O
  O4       1.0000 0.62099  0.26870  0.86300  Biso   1.000  O
  O5       1.0000 0.12099  0.23130  0.36300  Biso   1.000  O
  O6       1.0000 0.87901  0.23130  0.13700  Biso   1.000  O
  O7       1.0000 0.62099  0.73130  0.36300  Biso   1.000  O
  O8       1.0000 0.37901  0.73130  0.13700  Biso   1.000  O
  O9       1.0000 0.46853  0.95620  0.61660  Biso   1.000  O
  O10      1.0000 0.53147  0.95620  0.88340  Biso   1.000  O
  O11      1.0000 0.96853  0.45620  0.61660  Biso   1.000  O
  O12      1.0000 0.03147  0.45620  0.88340  Biso   1.000  O
  O13      1.0000 0.53147  0.04380  0.38340  Biso   1.000  O
  O14      1.0000 0.46853  0.04380  0.11660  Biso   1.000  O
  O15      1.0000 0.03147  0.54380  0.38340  Biso   1.000  O
  O16      1.0000 0.96853  0.54380  0.11660  Biso   1.000  O
  O17      1.0000 0.80838  0.43190  0.30270  Biso   1.000  O
  O18      1.0000 0.19162  0.43190  0.19730  Biso   1.000  O
  O19      1.0000 0.30838  0.93190  0.30270  Biso   1.000  O
  O20      1.0000 0.69162  0.93190  0.19730  Biso   1.000  O
  O21      1.0000 0.19162  0.56810  0.69730  Biso   1.000  O
  O22      1.0000 0.80838  0.56810  0.80270  Biso   1.000  O
  O23      1.0000 0.69162  0.06810  0.69730  Biso   1.000  O
  O24      1.0000 0.30838  0.06810  0.80270  Biso   1.000  O
  N1       1.0000 0.75293  0.51130  0.30520  Biso   1.000  N
  N2       1.0000 0.24707  0.51130  0.19480  Biso   1.000  N
  N3       1.0000 0.25293  0.01130  0.30520  Biso   1.000  N
  N4       1.0000 0.74707  0.01130  0.19480  Biso   1.000  N
  N5       1.0000 0.24707  0.48870  0.69480  Biso   1.000  N
  N6       1.0000 0.75293  0.48870  0.80520  Biso   1.000  N
  N7       1.0000 0.74707  0.98870  0.69480  Biso   1.000  N
  N8       1.0000 0.25293  0.98870  0.80520  Biso   1.000  N
  H1       1.0000 0.73470  0.55250  0.27780  Biso   1.000  H
  H2       1.0000 0.26530  0.55250  0.22220  Biso   1.000  H
  H3       1.0000 0.23470  0.05250  0.27780  Biso   1.000  H
  H4       1.0000 0.76530  0.05250  0.22220  Biso   1.000  H
  H5       1.0000 0.26530  0.44750  0.72220  Biso   1.000  H
  H6       1.0000 0.73470  0.44750  0.77780  Biso   1.000  H
  H7       1.0000 0.76530  0.94750  0.72220  Biso   1.000  H
  H8       1.0000 0.23470  0.94750  0.77780  Biso   1.000  H
  N9       1.0000 0.63872  0.63800  0.55470  Biso   1.000  N
  N10      1.0000 0.36128  0.63800  0.94530  Biso   1.000  N
  N11      1.0000 0.13872  0.13800  0.55470  Biso   1.000  N
  N12      1.0000 0.86128  0.13800  0.94530  Biso   1.000  N
  N13      1.0000 0.36128  0.36200  0.44530  Biso   1.000  N
  N14      1.0000 0.63872  0.36200  0.05470  Biso   1.000  N
  N15      1.0000 0.86128  0.86200  0.44530  Biso   1.000  N
  N16      1.0000 0.13872  0.86200  0.05470  Biso   1.000  N
  H9       1.0000 0.63660  0.67210  0.50580  Biso   1.000  H
  H10      1.0000 0.36340  0.67210  0.99420  Biso   1.000  H
  H11      1.0000 0.13660  0.17210  0.50580  Biso   1.000  H
  H12      1.0000 0.86340  0.17210  0.99420  Biso   1.000  H
  H13      1.0000 0.36340  0.32790  0.49420  Biso   1.000  H
  H14      1.0000 0.63660  0.32790  0.00580  Biso   1.000  H
  H15      1.0000 0.86340  0.82790  0.49420  Biso   1.000  H
  H16      1.0000 0.13660  0.82790  0.00580  Biso   1.000  H
  N17      1.0000 0.83293  0.68300  0.67750  Biso   1.000  N
  N18      1.0000 0.16707  0.68300  0.82250  Biso   1.000  N
  N19      1.0000 0.33293  0.18300  0.67750  Biso   1.000  N
  N20      1.0000 0.66707  0.18300  0.82250  Biso   1.000  N
  N21      1.0000 0.16707  0.31700  0.32250  Biso   1.000  N
  N22      1.0000 0.83293  0.31700  0.17750  Biso   1.000  N
  N23      1.0000 0.66707  0.81700  0.32250  Biso   1.000  N
  N24      1.0000 0.33293  0.81700  0.17750  Biso   1.000  N
  H17      1.0000 0.82910  0.64100  0.71560  Biso   1.000  H
  H18      1.0000 0.17090  0.64100  0.78440  Biso   1.000  H
  H19      1.0000 0.32910  0.14100  0.71560  Biso   1.000  H
  H20      1.0000 0.67090  0.14100  0.78440  Biso   1.000  H
  H21      1.0000 0.17090  0.35900  0.28440  Biso   1.000  H
  H22      1.0000 0.82910  0.35900  0.21560  Biso   1.000  H
  H23      1.0000 0.67090  0.85900  0.28440  Biso   1.000  H
  H24      1.0000 0.32910  0.85900  0.21560  Biso   1.000  H
  N25      1.0000 0.96084  0.57390  0.90020  Biso   1.000  N
  N26      1.0000 0.03916  0.57390  0.59980  Biso   1.000  N
  N27      1.0000 0.46084  0.07390  0.90020  Biso   1.000  N
  N28      1.0000 0.53916  0.07390  0.59980  Biso   1.000  N
  N29      1.0000 0.03916  0.42610  0.09980  Biso   1.000  N
  N30      1.0000 0.96084  0.42610  0.40020  Biso   1.000  N
  N31      1.0000 0.53916  0.92610  0.09980  Biso   1.000  N
  N32      1.0000 0.46084  0.92610  0.40020  Biso   1.000  N
  C1       1.0000 0.73270  0.63980  0.59100  Biso   1.000  C
  C2       1.0000 0.26730  0.63980  0.90900  Biso   1.000  C
  C3       1.0000 0.23270  0.13980  0.59100  Biso   1.000  C
  C4       1.0000 0.76730  0.13980  0.90900  Biso   1.000  C
  C5       1.0000 0.26730  0.36020  0.40900  Biso   1.000  C
  C6       1.0000 0.73270  0.36020  0.09100  Biso   1.000  C
  C7       1.0000 0.76730  0.86020  0.40900  Biso   1.000  C
  C8       1.0000 0.23270  0.86020  0.09100  Biso   1.000  C
  N33      1.0000 0.53520  0.88910  0.53390  Biso   1.000  N
  N34      1.0000 0.46480  0.88910  0.96610  Biso   1.000  N
  N35      1.0000 0.03520  0.38910  0.53390  Biso   1.000  N
  N36      1.0000 0.96480  0.38910  0.96610  Biso   1.000  N
  N37      1.0000 0.46480  0.11090  0.46610  Biso   1.000  N
  N38      1.0000 0.53520  0.11090  0.03390  Biso   1.000  N
  N39      1.0000 0.96480  0.61090  0.46610  Biso   1.000  N
  N40      1.0000 0.03520  0.61090  0.03390  Biso   1.000  N
  C9       1.0000 0.70620  0.52220  0.47180  Biso   1.000  C
  C10      1.0000 0.29380  0.52220  0.02820  Biso   1.000  C
  C11      1.0000 0.20620  0.02220  0.47180  Biso   1.000  C
  C12      1.0000 0.79380  0.02220  0.02820  Biso   1.000  C
  C13      1.0000 0.29380  0.47780  0.52820  Biso   1.000  C
  C14      1.0000 0.70620  0.47780  0.97180  Biso   1.000  C
  C15      1.0000 0.79380  0.97780  0.52820  Biso   1.000  C
  C16      1.0000 0.20620  0.97780  0.97180  Biso   1.000  C
  C17      1.0000 0.76720  0.64420  0.56430  Biso   1.000  C
  C18      1.0000 0.23280  0.64420  0.93570  Biso   1.000  C
  C19      1.0000 0.26720  0.14420  0.56430  Biso   1.000  C
  C20      1.0000 0.73280  0.14420  0.93570  Biso   1.000  C
  C21      1.0000 0.23280  0.35580  0.43570  Biso   1.000  C
  C22      1.0000 0.76720  0.35580  0.06430  Biso   1.000  C
  C23      1.0000 0.73280  0.85580  0.43570  Biso   1.000  C
  C24      1.0000 0.26720  0.85580  0.06430  Biso   1.000  C
  C25      1.0000 0.74220  0.52230  0.45360  Biso   1.000  C
  C26      1.0000 0.25780  0.52230  0.04640  Biso   1.000  C
  C27      1.0000 0.24220  0.02230  0.45360  Biso   1.000  C
  C28      1.0000 0.75780  0.02230  0.04640  Biso   1.000  C
  C29      1.0000 0.25780  0.47770  0.54640  Biso   1.000  C
  C30      1.0000 0.74220  0.47770  0.95360  Biso   1.000  C
  C31      1.0000 0.75780  0.97770  0.54640  Biso   1.000  C
  C32      1.0000 0.24220  0.97770  0.95360  Biso   1.000  C
  C33      1.0000 0.77290  0.58300  0.50080  Biso   1.000  C
  C34      1.0000 0.22710  0.58300  0.99920  Biso   1.000  C
  C35      1.0000 0.27290  0.08300  0.50080  Biso   1.000  C
  C36      1.0000 0.72710  0.08300  0.99920  Biso   1.000  C
  C37      1.0000 0.22710  0.41700  0.49920  Biso   1.000  C
  C38      1.0000 0.77290  0.41700  0.00080  Biso   1.000  C
  C39      1.0000 0.72710  0.91700  0.49920  Biso   1.000  C
  C40      1.0000 0.27290  0.91700  0.00080  Biso   1.000  C
  C41      1.0000 0.90160  0.66150  0.76290  Biso   1.000  C
  C42      1.0000 0.09840  0.66150  0.73710  Biso   1.000  C
  C43      1.0000 0.40160  0.16150  0.76290  Biso   1.000  C
  C44      1.0000 0.59840  0.16150  0.73710  Biso   1.000  C
  C45      1.0000 0.09840  0.33850  0.23710  Biso   1.000  C
  C46      1.0000 0.90160  0.33850  0.26290  Biso   1.000  C
  C47      1.0000 0.59840  0.83850  0.23710  Biso   1.000  C
  C48      1.0000 0.40160  0.83850  0.26290  Biso   1.000  C
  C49      1.0000 0.70280  0.57530  0.54480  Biso   1.000  C
  C50      1.0000 0.29720  0.57530  0.95520  Biso   1.000  C
  C51      1.0000 0.20280  0.07530  0.54480  Biso   1.000  C
  C52      1.0000 0.79720  0.07530  0.95520  Biso   1.000  C
  C53      1.0000 0.29720  0.42470  0.45520  Biso   1.000  C
  C54      1.0000 0.70280  0.42470  0.04480  Biso   1.000  C
  C55      1.0000 0.79720  0.92470  0.45520  Biso   1.000  C
  C56      1.0000 0.20280  0.92470  0.04480  Biso   1.000  C
  C57      1.0000 0.78400  0.49970  0.27330  Biso   1.000  C
  C58      1.0000 0.21600  0.49970  0.22670  Biso   1.000  C
  C59      1.0000 0.28400  0.99970  0.27330  Biso   1.000  C
  C60      1.0000 0.71600  0.99970  0.22670  Biso   1.000  C
  C61      1.0000 0.21600  0.50030  0.72670  Biso   1.000  C
  C62      1.0000 0.78400  0.50030  0.77330  Biso   1.000  C
  C63      1.0000 0.71600  0.00030  0.72670  Biso   1.000  C
  C64      1.0000 0.28400  0.00030  0.77330  Biso   1.000  C
  C65      1.0000 0.66750  0.56190  0.57840  Biso   1.000  C
  C66      1.0000 0.33250  0.56190  0.92160  Biso   1.000  C
  C67      1.0000 0.16750  0.06190  0.57840  Biso   1.000  C
  C68      1.0000 0.83250  0.06190  0.92160  Biso   1.000  C
  C69      1.0000 0.33250  0.43810  0.42160  Biso   1.000  C
  C70      1.0000 0.66750  0.43810  0.07840  Biso   1.000  C
  C71      1.0000 0.83250  0.93810  0.42160  Biso   1.000  C
  C72      1.0000 0.16750  0.93810  0.07840  Biso   1.000  C
  H25      1.0000 0.65400  0.50300  0.55250  Biso   1.000  H
  H26      1.0000 0.34600  0.50300  0.94750  Biso   1.000  H
  H27      1.0000 0.15400  0.00300  0.55250  Biso   1.000  H
  H28      1.0000 0.84600  0.00300  0.94750  Biso   1.000  H
  H29      1.0000 0.34600  0.49700  0.44750  Biso   1.000  H
  H30      1.0000 0.65400  0.49700  0.05250  Biso   1.000  H
  H31      1.0000 0.84600  0.99700  0.44750  Biso   1.000  H
  H32      1.0000 0.15400  0.99700  0.05250  Biso   1.000  H
  H33      1.0000 0.67720  0.55510  0.64580  Biso   1.000  H
  H34      1.0000 0.32280  0.55510  0.85420  Biso   1.000  H
  H35      1.0000 0.17720  0.05510  0.64580  Biso   1.000  H
  H36      1.0000 0.82280  0.05510  0.85420  Biso   1.000  H
  H37      1.0000 0.32280  0.44490  0.35420  Biso   1.000  H
  H38      1.0000 0.67720  0.44490  0.14580  Biso   1.000  H
  H39      1.0000 0.82280  0.94490  0.35420  Biso   1.000  H
  H40      1.0000 0.17720  0.94490  0.14580  Biso   1.000  H
  O25      1.0000 0.61890  0.61470  0.67630  Biso   1.000  O
  O26      1.0000 0.38110  0.61470  0.82370  Biso   1.000  O
  O27      1.0000 0.11890  0.11470  0.67630  Biso   1.000  O
  O28      1.0000 0.88110  0.11470  0.82370  Biso   1.000  O
  O29      1.0000 0.38110  0.38530  0.32370  Biso   1.000  O
  O30      1.0000 0.61890  0.38530  0.17630  Biso   1.000  O
  O31      1.0000 0.88110  0.88530  0.32370  Biso   1.000  O
  O32      1.0000 0.11890  0.88530  0.17630  Biso   1.000  O
  C73      1.0000 0.86990  0.71170  0.68650  Biso   1.000  C
  C74      1.0000 0.13010  0.71170  0.81350  Biso   1.000  C
  C75      1.0000 0.36990  0.21170  0.68650  Biso   1.000  C
  C76      1.0000 0.63010  0.21170  0.81350  Biso   1.000  C
  C77      1.0000 0.13010  0.28830  0.31350  Biso   1.000  C
  C78      1.0000 0.86990  0.28830  0.18650  Biso   1.000  C
  C79      1.0000 0.63010  0.78830  0.31350  Biso   1.000  C
  C80      1.0000 0.36990  0.78830  0.18650  Biso   1.000  C
  C81      1.0000 0.74800  0.45990  0.38180  Biso   1.000  C
  C82      1.0000 0.25200  0.45990  0.11820  Biso   1.000  C
  C83      1.0000 0.24800  0.95990  0.38180  Biso   1.000  C
  C84      1.0000 0.75200  0.95990  0.11820  Biso   1.000  C
  C85      1.0000 0.25200  0.54010  0.61820  Biso   1.000  C
  C86      1.0000 0.74800  0.54010  0.88180  Biso   1.000  C
  C87      1.0000 0.75200  0.04010  0.61820  Biso   1.000  C
  C88      1.0000 0.24800  0.04010  0.88180  Biso   1.000  C
  H41      1.0000 0.77170  0.42050  0.40890  Biso   1.000  H
  H42      1.0000 0.22830  0.42050  0.09110  Biso   1.000  H
  H43      1.0000 0.27170  0.92050  0.40890  Biso   1.000  H
  H44      1.0000 0.72830  0.92050  0.09110  Biso   1.000  H
  H45      1.0000 0.22830  0.57950  0.59110  Biso   1.000  H
  H46      1.0000 0.77170  0.57950  0.90890  Biso   1.000  H
  H47      1.0000 0.72830  0.07950  0.59110  Biso   1.000  H
  H48      1.0000 0.27170  0.07950  0.90890  Biso   1.000  H
  H49      1.0000 0.72470  0.41790  0.35950  Biso   1.000  H
  H50      1.0000 0.27530  0.41790  0.14050  Biso   1.000  H
  H51      1.0000 0.22470  0.91790  0.35950  Biso   1.000  H
  H52      1.0000 0.77530  0.91790  0.14050  Biso   1.000  H
  H53      1.0000 0.27530  0.58210  0.64050  Biso   1.000  H
  H54      1.0000 0.72470  0.58210  0.85950  Biso   1.000  H
  H55      1.0000 0.77530  0.08210  0.64050  Biso   1.000  H
  H56      1.0000 0.22470  0.08210  0.85950  Biso   1.000  H
  C89      1.0000 0.78970  0.56490  0.20830  Biso   1.000  C
  C90      1.0000 0.21030  0.56490  0.29170  Biso   1.000  C
  C91      1.0000 0.28970  0.06490  0.20830  Biso   1.000  C
  C92      1.0000 0.71030  0.06490  0.29170  Biso   1.000  C
  C93      1.0000 0.21030  0.43510  0.79170  Biso   1.000  C
  C94      1.0000 0.78970  0.43510  0.70830  Biso   1.000  C
  C95      1.0000 0.71030  0.93510  0.79170  Biso   1.000  C
  C96      1.0000 0.28970  0.93510  0.70830  Biso   1.000  C
  C97      1.0000 0.58800  0.73780  0.58050  Biso   1.000  C
  C98      1.0000 0.41200  0.73780  0.91950  Biso   1.000  C
  C99      1.0000 0.08800  0.23780  0.58050  Biso   1.000  C
  C100     1.0000 0.91200  0.23780  0.91950  Biso   1.000  C
  C101     1.0000 0.41200  0.26220  0.41950  Biso   1.000  C
  C102     1.0000 0.58800  0.26220  0.08050  Biso   1.000  C
  C103     1.0000 0.91200  0.76220  0.41950  Biso   1.000  C
  C104     1.0000 0.08800  0.76220  0.08050  Biso   1.000  C
  C105     1.0000 0.61590  0.65650  0.60510  Biso   1.000  C
  C106     1.0000 0.38410  0.65650  0.89490  Biso   1.000  C
  C107     1.0000 0.11590  0.15650  0.60510  Biso   1.000  C
  C108     1.0000 0.88410  0.15650  0.89490  Biso   1.000  C
  C109     1.0000 0.38410  0.34350  0.39490  Biso   1.000  C
  C110     1.0000 0.61590  0.34350  0.10510  Biso   1.000  C
  C111     1.0000 0.88410  0.84350  0.39490  Biso   1.000  C
  C112     1.0000 0.11590  0.84350  0.10510  Biso   1.000  C
  C113     1.0000 0.79870  0.72100  0.60480  Biso   1.000  C
  C114     1.0000 0.20130  0.72100  0.89520  Biso   1.000  C
  C115     1.0000 0.29870  0.22100  0.60480  Biso   1.000  C
  C116     1.0000 0.70130  0.22100  0.89520  Biso   1.000  C
  C117     1.0000 0.20130  0.27900  0.39520  Biso   1.000  C
  C118     1.0000 0.79870  0.27900  0.10480  Biso   1.000  C
  C119     1.0000 0.70130  0.77900  0.39520  Biso   1.000  C
  C120     1.0000 0.29870  0.77900  0.10480  Biso   1.000  C
  H57      1.0000 0.80790  0.74750  0.55560  Biso   1.000  H
  H58      1.0000 0.19210  0.74750  0.94440  Biso   1.000  H
  H59      1.0000 0.30790  0.24750  0.55560  Biso   1.000  H
  H60      1.0000 0.69210  0.24750  0.94440  Biso   1.000  H
  H61      1.0000 0.19210  0.25250  0.44440  Biso   1.000  H
  H62      1.0000 0.80790  0.25250  0.05560  Biso   1.000  H
  H63      1.0000 0.69210  0.75250  0.44440  Biso   1.000  H
  H64      1.0000 0.30790  0.75250  0.05560  Biso   1.000  H
  H65      1.0000 0.78650  0.77210  0.63020  Biso   1.000  H
  H66      1.0000 0.21350  0.77210  0.86980  Biso   1.000  H
  H67      1.0000 0.28650  0.27210  0.63020  Biso   1.000  H
  H68      1.0000 0.71350  0.27210  0.86980  Biso   1.000  H
  H69      1.0000 0.21350  0.22790  0.36980  Biso   1.000  H
  H70      1.0000 0.78650  0.22790  0.13020  Biso   1.000  H
  H71      1.0000 0.71350  0.72790  0.36980  Biso   1.000  H
  H72      1.0000 0.28650  0.72790  0.13020  Biso   1.000  H
  C121     1.0000 0.75870  0.62250  0.15390  Biso   1.000  C
  C122     1.0000 0.24130  0.62250  0.34610  Biso   1.000  C
  C123     1.0000 0.25870  0.12250  0.15390  Biso   1.000  C
  C124     1.0000 0.74130  0.12250  0.34610  Biso   1.000  C
  C125     1.0000 0.24130  0.37750  0.84610  Biso   1.000  C
  C126     1.0000 0.75870  0.37750  0.65390  Biso   1.000  C
  C127     1.0000 0.74130  0.87750  0.84610  Biso   1.000  C
  C128     1.0000 0.25870  0.87750  0.65390  Biso   1.000  C
  H73      1.0000 0.73270  0.61790  0.15820  Biso   1.000  H
  H74      1.0000 0.26730  0.61790  0.34180  Biso   1.000  H
  H75      1.0000 0.23270  0.11790  0.15820  Biso   1.000  H
  H76      1.0000 0.76730  0.11790  0.34180  Biso   1.000  H
  H77      1.0000 0.26730  0.38210  0.84180  Biso   1.000  H
  H78      1.0000 0.73270  0.38210  0.65820  Biso   1.000  H
  H79      1.0000 0.76730  0.88210  0.84180  Biso   1.000  H
  H80      1.0000 0.23270  0.88210  0.65820  Biso   1.000  H
  C129     1.0000 0.72900  0.70020  0.66670  Biso   1.000  C
  C130     1.0000 0.27100  0.70020  0.83330  Biso   1.000  C
  C131     1.0000 0.22900  0.20020  0.66670  Biso   1.000  C
  C132     1.0000 0.77100  0.20020  0.83330  Biso   1.000  C
  C133     1.0000 0.27100  0.29980  0.33330  Biso   1.000  C
  C134     1.0000 0.72900  0.29980  0.16670  Biso   1.000  C
  C135     1.0000 0.77100  0.79980  0.33330  Biso   1.000  C
  C136     1.0000 0.22900  0.79980  0.16670  Biso   1.000  C
  H81      1.0000 0.75490  0.70600  0.71380  Biso   1.000  H
  H82      1.0000 0.24510  0.70600  0.78620  Biso   1.000  H
  H83      1.0000 0.25490  0.20600  0.71380  Biso   1.000  H
  H84      1.0000 0.74510  0.20600  0.78620  Biso   1.000  H
  H85      1.0000 0.24510  0.29400  0.28620  Biso   1.000  H
  H86      1.0000 0.75490  0.29400  0.21380  Biso   1.000  H
  H87      1.0000 0.74510  0.79400  0.28620  Biso   1.000  H
  H88      1.0000 0.25490  0.79400  0.21380  Biso   1.000  H
  H89      1.0000 0.71000  0.67210  0.69350  Biso   1.000  H
  H90      1.0000 0.29000  0.67210  0.80650  Biso   1.000  H
  H91      1.0000 0.21000  0.17210  0.69350  Biso   1.000  H
  H92      1.0000 0.79000  0.17210  0.80650  Biso   1.000  H
  H93      1.0000 0.29000  0.32790  0.30650  Biso   1.000  H
  H94      1.0000 0.71000  0.32790  0.19350  Biso   1.000  H
  H95      1.0000 0.79000  0.82790  0.30650  Biso   1.000  H
  H96      1.0000 0.21000  0.82790  0.19350  Biso   1.000  H
  H97      1.0000 0.71950  0.76230  0.64260  Biso   1.000  H
  H98      1.0000 0.28050  0.76230  0.85740  Biso   1.000  H
  H99      1.0000 0.21950  0.26230  0.64260  Biso   1.000  H
  H100     1.0000 0.78050  0.26230  0.85740  Biso   1.000  H
  H101     1.0000 0.28050  0.23770  0.35740  Biso   1.000  H
  H102     1.0000 0.71950  0.23770  0.14260  Biso   1.000  H
  H103     1.0000 0.78050  0.73770  0.35740  Biso   1.000  H
  H104     1.0000 0.21950  0.73770  0.14260  Biso   1.000  H
  C137     1.0000 0.81310  0.57880  0.48340  Biso   1.000  C
  C138     1.0000 0.18690  0.57880  0.01660  Biso   1.000  C
  C139     1.0000 0.31310  0.07880  0.48340  Biso   1.000  C
  C140     1.0000 0.68690  0.07880  0.01660  Biso   1.000  C
  C141     1.0000 0.18690  0.42120  0.51660  Biso   1.000  C
  C142     1.0000 0.81310  0.42120  0.98340  Biso   1.000  C
  C143     1.0000 0.68690  0.92120  0.51660  Biso   1.000  C
  C144     1.0000 0.31310  0.92120  0.98340  Biso   1.000  C
  H105     1.0000 0.81080  0.60760  0.42420  Biso   1.000  H
  H106     1.0000 0.18920  0.60760  0.07580  Biso   1.000  H
  H107     1.0000 0.31080  0.10760  0.42420  Biso   1.000  H
  H108     1.0000 0.68920  0.10760  0.07580  Biso   1.000  H
  H109     1.0000 0.18920  0.39240  0.57580  Biso   1.000  H
  H110     1.0000 0.81080  0.39240  0.92420  Biso   1.000  H
  H111     1.0000 0.68920  0.89240  0.57580  Biso   1.000  H
  H112     1.0000 0.31080  0.89240  0.92420  Biso   1.000  H
  H113     1.0000 0.82130  0.51340  0.48290  Biso   1.000  H
  H114     1.0000 0.17870  0.51340  0.01710  Biso   1.000  H
  H115     1.0000 0.32130  0.01340  0.48290  Biso   1.000  H
  H116     1.0000 0.67870  0.01340  0.01710  Biso   1.000  H
  H117     1.0000 0.17870  0.48660  0.51710  Biso   1.000  H
  H118     1.0000 0.82130  0.48660  0.98290  Biso   1.000  H
  H119     1.0000 0.67870  0.98660  0.51710  Biso   1.000  H
  H120     1.0000 0.32130  0.98660  0.98290  Biso   1.000  H
  H121     1.0000 0.83300  0.61260  0.53210  Biso   1.000  H
  H122     1.0000 0.16700  0.61260  0.96790  Biso   1.000  H
  H123     1.0000 0.33300  0.11260  0.53210  Biso   1.000  H
  H124     1.0000 0.66700  0.11260  0.96790  Biso   1.000  H
  H125     1.0000 0.16700  0.38740  0.46790  Biso   1.000  H
  H126     1.0000 0.83300  0.38740  0.03210  Biso   1.000  H
  H127     1.0000 0.66700  0.88740  0.46790  Biso   1.000  H
  H128     1.0000 0.33300  0.88740  0.03210  Biso   1.000  H
  C145     1.0000 0.67220  0.46640  0.41470  Biso   1.000  C
  C146     1.0000 0.32780  0.46640  0.08530  Biso   1.000  C
  C147     1.0000 0.17220  0.96640  0.41470  Biso   1.000  C
  C148     1.0000 0.82780  0.96640  0.08530  Biso   1.000  C
  C149     1.0000 0.32780  0.53360  0.58530  Biso   1.000  C
  C150     1.0000 0.67220  0.53360  0.91470  Biso   1.000  C
  C151     1.0000 0.82780  0.03360  0.58530  Biso   1.000  C
  C152     1.0000 0.17220  0.03360  0.91470  Biso   1.000  C
  H129     1.0000 0.67200  0.46750  0.35090  Biso   1.000  H
  H130     1.0000 0.32800  0.46750  0.14910  Biso   1.000  H
  H131     1.0000 0.17200  0.96750  0.35090  Biso   1.000  H
  H132     1.0000 0.82800  0.96750  0.14910  Biso   1.000  H
  H133     1.0000 0.32800  0.53250  0.64910  Biso   1.000  H
  H134     1.0000 0.67200  0.53250  0.85090  Biso   1.000  H
  H135     1.0000 0.82800  0.03250  0.64910  Biso   1.000  H
  H136     1.0000 0.17200  0.03250  0.85090  Biso   1.000  H
  H137     1.0000 0.64740  0.49300  0.41870  Biso   1.000  H
  H138     1.0000 0.35260  0.49300  0.08130  Biso   1.000  H
  H139     1.0000 0.14740  0.99300  0.41870  Biso   1.000  H
  H140     1.0000 0.85260  0.99300  0.08130  Biso   1.000  H
  H141     1.0000 0.35260  0.50700  0.58130  Biso   1.000  H
  H142     1.0000 0.64740  0.50700  0.91870  Biso   1.000  H
  H143     1.0000 0.85260  0.00700  0.58130  Biso   1.000  H
  H144     1.0000 0.14740  0.00700  0.91870  Biso   1.000  H
  H145     1.0000 0.67480  0.40170  0.43670  Biso   1.000  H
  H146     1.0000 0.32520  0.40170  0.06330  Biso   1.000  H
  H147     1.0000 0.17480  0.90170  0.43670  Biso   1.000  H
  H148     1.0000 0.82520  0.90170  0.06330  Biso   1.000  H
  H149     1.0000 0.32520  0.59830  0.56330  Biso   1.000  H
  H150     1.0000 0.67480  0.59830  0.93670  Biso   1.000  H
  H151     1.0000 0.82520  0.09830  0.56330  Biso   1.000  H
  H152     1.0000 0.17480  0.09830  0.93670  Biso   1.000  H
  N41      1.0000 0.80130  0.69910  0.08310  Biso   1.000  N
  N42      1.0000 0.19870  0.69910  0.41690  Biso   1.000  N
  N43      1.0000 0.30130  0.19910  0.08310  Biso   1.000  N
  N44      1.0000 0.69870  0.19910  0.41690  Biso   1.000  N
  N45      1.0000 0.19870  0.30090  0.91690  Biso   1.000  N
  N46      1.0000 0.80130  0.30090  0.58310  Biso   1.000  N
  N47      1.0000 0.69870  0.80090  0.91690  Biso   1.000  N
  N48      1.0000 0.30130  0.80090  0.58310  Biso   1.000  N
  N49      1.0000 0.44200  0.90980  0.63050  Biso   1.000  N
  N50      1.0000 0.55800  0.90980  0.86950  Biso   1.000  N
  N51      1.0000 0.94200  0.40980  0.63050  Biso   1.000  N
  N52      1.0000 0.05800  0.40980  0.86950  Biso   1.000  N
  N53      1.0000 0.55800  0.09020  0.36950  Biso   1.000  N
  N54      1.0000 0.44200  0.09020  0.13050  Biso   1.000  N
  N55      1.0000 0.05800  0.59020  0.36950  Biso   1.000  N
  N56      1.0000 0.94200  0.59020  0.13050  Biso   1.000  N
  C153     1.0000 0.76700  0.68420  0.09550  Biso   1.000  C
  C154     1.0000 0.23300  0.68420  0.40450  Biso   1.000  C
  C155     1.0000 0.26700  0.18420  0.09550  Biso   1.000  C
  C156     1.0000 0.73300  0.18420  0.40450  Biso   1.000  C
  C157     1.0000 0.23300  0.31580  0.90450  Biso   1.000  C
  C158     1.0000 0.76700  0.31580  0.59550  Biso   1.000  C
  C159     1.0000 0.73300  0.81580  0.90450  Biso   1.000  C
  C160     1.0000 0.26700  0.81580  0.59550  Biso   1.000  C
  H153     1.0000 0.74540  0.72090  0.05950  Biso   1.000  H
  H154     1.0000 0.25460  0.72090  0.44050  Biso   1.000  H
  H155     1.0000 0.24540  0.22090  0.05950  Biso   1.000  H
  H156     1.0000 0.75460  0.22090  0.44050  Biso   1.000  H
  H157     1.0000 0.25460  0.27910  0.94050  Biso   1.000  H
  H158     1.0000 0.74540  0.27910  0.55950  Biso   1.000  H
  H159     1.0000 0.75460  0.77910  0.94050  Biso   1.000  H
  H160     1.0000 0.24540  0.77910  0.55950  Biso   1.000  H
  C161     1.0000 0.82590  0.58160  0.19700  Biso   1.000  C
  C162     1.0000 0.17410  0.58160  0.30300  Biso   1.000  C
  C163     1.0000 0.32590  0.08160  0.19700  Biso   1.000  C
  C164     1.0000 0.67410  0.08160  0.30300  Biso   1.000  C
  C165     1.0000 0.17410  0.41840  0.80300  Biso   1.000  C
  C166     1.0000 0.82590  0.41840  0.69700  Biso   1.000  C
  C167     1.0000 0.67410  0.91840  0.80300  Biso   1.000  C
  C168     1.0000 0.32590  0.91840  0.69700  Biso   1.000  C
  H161     1.0000 0.84850  0.54950  0.23510  Biso   1.000  H
  H162     1.0000 0.15150  0.54950  0.26490  Biso   1.000  H
  H163     1.0000 0.34850  0.04950  0.23510  Biso   1.000  H
  H164     1.0000 0.65150  0.04950  0.26490  Biso   1.000  H
  H165     1.0000 0.15150  0.45050  0.76490  Biso   1.000  H
  H166     1.0000 0.84850  0.45050  0.73510  Biso   1.000  H
  H167     1.0000 0.65150  0.95050  0.76490  Biso   1.000  H
  H168     1.0000 0.34850  0.95050  0.73510  Biso   1.000  H
  C169     1.0000 0.83060  0.64210  0.13350  Biso   1.000  C
  C170     1.0000 0.16940  0.64210  0.36650  Biso   1.000  C
  C171     1.0000 0.33060  0.14210  0.13350  Biso   1.000  C
  C172     1.0000 0.66940  0.14210  0.36650  Biso   1.000  C
  C173     1.0000 0.16940  0.35790  0.86650  Biso   1.000  C
  C174     1.0000 0.83060  0.35790  0.63350  Biso   1.000  C
  C175     1.0000 0.66940  0.85790  0.86650  Biso   1.000  C
  C176     1.0000 0.33060  0.85790  0.63350  Biso   1.000  C
  H169     1.0000 0.85570  0.64470  0.12380  Biso   1.000  H
  H170     1.0000 0.14430  0.64470  0.37620  Biso   1.000  H
  H171     1.0000 0.35570  0.14470  0.12380  Biso   1.000  H
  H172     1.0000 0.64430  0.14470  0.37620  Biso   1.000  H
  H173     1.0000 0.14430  0.35530  0.87620  Biso   1.000  H
  H174     1.0000 0.85570  0.35530  0.62380  Biso   1.000  H
  H175     1.0000 0.64430  0.85530  0.87620  Biso   1.000  H
  H176     1.0000 0.35570  0.85530  0.62380  Biso   1.000  H
  C177     1.0000 0.89520  0.61800  0.83550  Biso   1.000  C
  C178     1.0000 0.10480  0.61800  0.66450  Biso   1.000  C
  C179     1.0000 0.39520  0.11800  0.83550  Biso   1.000  C
  C180     1.0000 0.60480  0.11800  0.66450  Biso   1.000  C
  C181     1.0000 0.10480  0.38200  0.16450  Biso   1.000  C
  C182     1.0000 0.89520  0.38200  0.33550  Biso   1.000  C
  C183     1.0000 0.60480  0.88200  0.16450  Biso   1.000  C
  C184     1.0000 0.39520  0.88200  0.33550  Biso   1.000  C
  H177     1.0000 0.86940  0.61790  0.84150  Biso   1.000  H
  H178     1.0000 0.13060  0.61790  0.65850  Biso   1.000  H
  H179     1.0000 0.36940  0.11790  0.84150  Biso   1.000  H
  H180     1.0000 0.63060  0.11790  0.65850  Biso   1.000  H
  H181     1.0000 0.13060  0.38210  0.15850  Biso   1.000  H
  H182     1.0000 0.86940  0.38210  0.34150  Biso   1.000  H
  H183     1.0000 0.63060  0.88210  0.15850  Biso   1.000  H
  H184     1.0000 0.36940  0.88210  0.34150  Biso   1.000  H
  C185     1.0000 0.57470  0.78400  0.64690  Biso   1.000  C
  C186     1.0000 0.42530  0.78400  0.85310  Biso   1.000  C
  C187     1.0000 0.07470  0.28400  0.64690  Biso   1.000  C
  C188     1.0000 0.92530  0.28400  0.85310  Biso   1.000  C
  C189     1.0000 0.42530  0.21600  0.35310  Biso   1.000  C
  C190     1.0000 0.57470  0.21600  0.14690  Biso   1.000  C
  C191     1.0000 0.92530  0.71600  0.35310  Biso   1.000  C
  C192     1.0000 0.07470  0.71600  0.14690  Biso   1.000  C
  H185     1.0000 0.58620  0.77070  0.71030  Biso   1.000  H
  H186     1.0000 0.41380  0.77070  0.78970  Biso   1.000  H
  H187     1.0000 0.08620  0.27070  0.71030  Biso   1.000  H
  H188     1.0000 0.91380  0.27070  0.78970  Biso   1.000  H
  H189     1.0000 0.41380  0.22930  0.28970  Biso   1.000  H
  H190     1.0000 0.58620  0.22930  0.21030  Biso   1.000  H
  H191     1.0000 0.91380  0.72930  0.28970  Biso   1.000  H
  H192     1.0000 0.08620  0.72930  0.21030  Biso   1.000  H
  C193     1.0000 0.94330  0.67200  0.76880  Biso   1.000  C
  C194     1.0000 0.05670  0.67200  0.73120  Biso   1.000  C
  C195     1.0000 0.44330  0.17200  0.76880  Biso   1.000  C
  C196     1.0000 0.55670  0.17200  0.73120  Biso   1.000  C
  C197     1.0000 0.05670  0.32800  0.23120  Biso   1.000  C
  C198     1.0000 0.94330  0.32800  0.26880  Biso   1.000  C
  C199     1.0000 0.55670  0.82800  0.23120  Biso   1.000  C
  C200     1.0000 0.44330  0.82800  0.26880  Biso   1.000  C
  H193     1.0000 0.95120  0.70860  0.72610  Biso   1.000  H
  H194     1.0000 0.04880  0.70860  0.77390  Biso   1.000  H
  H195     1.0000 0.45120  0.20860  0.72610  Biso   1.000  H
  H196     1.0000 0.54880  0.20860  0.77390  Biso   1.000  H
  H197     1.0000 0.04880  0.29140  0.27390  Biso   1.000  H
  H198     1.0000 0.95120  0.29140  0.22610  Biso   1.000  H
  H199     1.0000 0.54880  0.79140  0.27390  Biso   1.000  H
  H200     1.0000 0.45120  0.79140  0.22610  Biso   1.000  H
  C201     1.0000 0.57080  0.76460  0.49060  Biso   1.000  C
  C202     1.0000 0.42920  0.76460  0.00940  Biso   1.000  C
  C203     1.0000 0.07080  0.26460  0.49060  Biso   1.000  C
  C204     1.0000 0.92920  0.26460  0.00940  Biso   1.000  C
  C205     1.0000 0.42920  0.23540  0.50940  Biso   1.000  C
  C206     1.0000 0.57080  0.23540  0.99060  Biso   1.000  C
  C207     1.0000 0.92920  0.73540  0.50940  Biso   1.000  C
  C208     1.0000 0.07080  0.73540  0.99060  Biso   1.000  C
  H201     1.0000 0.57760  0.73340  0.44310  Biso   1.000  H
  H202     1.0000 0.42240  0.73340  0.05690  Biso   1.000  H
  H203     1.0000 0.07760  0.23340  0.44310  Biso   1.000  H
  H204     1.0000 0.92240  0.23340  0.05690  Biso   1.000  H
  H205     1.0000 0.42240  0.26660  0.55690  Biso   1.000  H
  H206     1.0000 0.57760  0.26660  0.94310  Biso   1.000  H
  H207     1.0000 0.92240  0.76660  0.55690  Biso   1.000  H
  H208     1.0000 0.07760  0.76660  0.94310  Biso   1.000  H
  C209     1.0000 0.97070  0.62550  0.84040  Biso   1.000  C
  C210     1.0000 0.02930  0.62550  0.65960  Biso   1.000  C
  C211     1.0000 0.47070  0.12550  0.84040  Biso   1.000  C
  C212     1.0000 0.52930  0.12550  0.65960  Biso   1.000  C
  C213     1.0000 0.02930  0.37450  0.15960  Biso   1.000  C
  C214     1.0000 0.97070  0.37450  0.34040  Biso   1.000  C
  C215     1.0000 0.52930  0.87450  0.15960  Biso   1.000  C
  C216     1.0000 0.47070  0.87450  0.34040  Biso   1.000  C
  H209     1.0000 0.99800  0.63140  0.84640  Biso   1.000  H
  H210     1.0000 0.00200  0.63140  0.65360  Biso   1.000  H
  H211     1.0000 0.49800  0.13140  0.84640  Biso   1.000  H
  H212     1.0000 0.50200  0.13140  0.65360  Biso   1.000  H
  H213     1.0000 0.00200  0.36860  0.15360  Biso   1.000  H
  H214     1.0000 0.99800  0.36860  0.34640  Biso   1.000  H
  H215     1.0000 0.50200  0.86860  0.15360  Biso   1.000  H
  H216     1.0000 0.49800  0.86860  0.34640  Biso   1.000  H
  C217     1.0000 0.92500  0.57540  0.89850  Biso   1.000  C
  C218     1.0000 0.07500  0.57540  0.60150  Biso   1.000  C
  C219     1.0000 0.42500  0.07540  0.89850  Biso   1.000  C
  C220     1.0000 0.57500  0.07540  0.60150  Biso   1.000  C
  C221     1.0000 0.07500  0.42460  0.10150  Biso   1.000  C
  C222     1.0000 0.92500  0.42460  0.39850  Biso   1.000  C
  C223     1.0000 0.57500  0.92460  0.10150  Biso   1.000  C
  C224     1.0000 0.42500  0.92460  0.39850  Biso   1.000  C
  H217     1.0000 0.91870  0.54330  0.94620  Biso   1.000  H
  H218     1.0000 0.08130  0.54330  0.55380  Biso   1.000  H
  H219     1.0000 0.41870  0.04330  0.94620  Biso   1.000  H
  H220     1.0000 0.58130  0.04330  0.55380  Biso   1.000  H
  H221     1.0000 0.08130  0.45670  0.05380  Biso   1.000  H
  H222     1.0000 0.91870  0.45670  0.44620  Biso   1.000  H
  H223     1.0000 0.58130  0.95670  0.05380  Biso   1.000  H
  H224     1.0000 0.41870  0.95670  0.44620  Biso   1.000  H
  C225     1.0000 0.54450  0.83430  0.47030  Biso   1.000  C
  C226     1.0000 0.45550  0.83430  0.02970  Biso   1.000  C
  C227     1.0000 0.04450  0.33430  0.47030  Biso   1.000  C
  C228     1.0000 0.95550  0.33430  0.02970  Biso   1.000  C
  C229     1.0000 0.45550  0.16570  0.52970  Biso   1.000  C
  C230     1.0000 0.54450  0.16570  0.97030  Biso   1.000  C
  C231     1.0000 0.95550  0.66570  0.52970  Biso   1.000  C
  C232     1.0000 0.04450  0.66570  0.97030  Biso   1.000  C
  H225     1.0000 0.53130  0.84700  0.40750  Biso   1.000  H
  H226     1.0000 0.46870  0.84700  0.09250  Biso   1.000  H
  H227     1.0000 0.03130  0.34700  0.40750  Biso   1.000  H
  H228     1.0000 0.96870  0.34700  0.09250  Biso   1.000  H
  H229     1.0000 0.46870  0.15300  0.59250  Biso   1.000  H
  H230     1.0000 0.53130  0.15300  0.90750  Biso   1.000  H
  H231     1.0000 0.96870  0.65300  0.59250  Biso   1.000  H
  H232     1.0000 0.03130  0.65300  0.90750  Biso   1.000  H
  O33      1.0000 0.44600  0.82300  0.62740  Biso   1.000  O
  O34      1.0000 0.55400  0.82300  0.87260  Biso   1.000  O
  O35      1.0000 0.94600  0.32300  0.62740  Biso   1.000  O
  O36      1.0000 0.05400  0.32300  0.87260  Biso   1.000  O
  O37      1.0000 0.55400  0.17700  0.37260  Biso   1.000  O
  O38      1.0000 0.44600  0.17700  0.12740  Biso   1.000  O
  O39      1.0000 0.05400  0.67700  0.37260  Biso   1.000  O
  O40      1.0000 0.94600  0.67700  0.12740  Biso   1.000  O
  O41      1.0000 0.42130  0.95270  0.66900  Biso   1.000  O
  O42      1.0000 0.57870  0.95270  0.83100  Biso   1.000  O
  O43      1.0000 0.92130  0.45270  0.66900  Biso   1.000  O
  O44      1.0000 0.07870  0.45270  0.83100  Biso   1.000  O
  O45      1.0000 0.57870  0.04730  0.33100  Biso   1.000  O
  O46      1.0000 0.42130  0.04730  0.16900  Biso   1.000  O
  O47      1.0000 0.07870  0.54730  0.33100  Biso   1.000  O
  O48      1.0000 0.92130  0.54730  0.16900  Biso   1.000  O
  C233     1.0000 0.54720  0.84360  0.61930  Biso   1.000  C
  C234     1.0000 0.45280  0.84360  0.88070  Biso   1.000  C
  C235     1.0000 0.04720  0.34360  0.61930  Biso   1.000  C
  C236     1.0000 0.95280  0.34360  0.88070  Biso   1.000  C
  C237     1.0000 0.45280  0.15640  0.38070  Biso   1.000  C
  C238     1.0000 0.54720  0.15640  0.11930  Biso   1.000  C
  C239     1.0000 0.95280  0.65640  0.38070  Biso   1.000  C
  C240     1.0000 0.04720  0.65640  0.11930  Biso   1.000  C
  H233     1.0000 0.53310  0.85930  0.66060  Biso   1.000  H
  H234     1.0000 0.46690  0.85930  0.83940  Biso   1.000  H
  H235     1.0000 0.03310  0.35930  0.66060  Biso   1.000  H
  H236     1.0000 0.96690  0.35930  0.83940  Biso   1.000  H
  H237     1.0000 0.46690  0.14070  0.33940  Biso   1.000  H
  H238     1.0000 0.53310  0.14070  0.16060  Biso   1.000  H
  H239     1.0000 0.96690  0.64070  0.33940  Biso   1.000  H
  H240     1.0000 0.03310  0.64070  0.16060  Biso   1.000  H
  C241     1.0000 0.52820  0.81200  0.57100  Biso   1.000  C
  C242     1.0000 0.47180  0.81200  0.92900  Biso   1.000  C
  C243     1.0000 0.02820  0.31200  0.57100  Biso   1.000  C
  C244     1.0000 0.97180  0.31200  0.92900  Biso   1.000  C
  C245     1.0000 0.47180  0.18800  0.42900  Biso   1.000  C
  C246     1.0000 0.52820  0.18800  0.07100  Biso   1.000  C
  C247     1.0000 0.97180  0.68800  0.42900  Biso   1.000  C
  C248     1.0000 0.02820  0.68800  0.07100  Biso   1.000  C
  H241     1.0000 0.50350  0.80830  0.58220  Biso   1.000  H
  H242     1.0000 0.49650  0.80830  0.91780  Biso   1.000  H
  H243     1.0000 0.00350  0.30830  0.58220  Biso   1.000  H
  H244     1.0000 0.99650  0.30830  0.91780  Biso   1.000  H
  H245     1.0000 0.49650  0.19170  0.41780  Biso   1.000  H
  H246     1.0000 0.50350  0.19170  0.08220  Biso   1.000  H
  H247     1.0000 0.99650  0.69170  0.41780  Biso   1.000  H
  H248     1.0000 0.00350  0.69170  0.08220  Biso   1.000  H
  C249     1.0000 0.92350  0.60370  0.74110  Biso   1.000  C
  C250     1.0000 0.07650  0.60370  0.75890  Biso   1.000  C
  C251     1.0000 0.42350  0.10370  0.74110  Biso   1.000  C
  C252     1.0000 0.57650  0.10370  0.75890  Biso   1.000  C
  C253     1.0000 0.07650  0.39630  0.25890  Biso   1.000  C
  C254     1.0000 0.92350  0.39630  0.24110  Biso   1.000  C
  C255     1.0000 0.57650  0.89630  0.25890  Biso   1.000  C
  C256     1.0000 0.42350  0.89630  0.24110  Biso   1.000  C
  H249     1.0000 0.92100  0.59290  0.67860  Biso   1.000  H
  H250     1.0000 0.07900  0.59290  0.82140  Biso   1.000  H
  H251     1.0000 0.42100  0.09290  0.67860  Biso   1.000  H
  H252     1.0000 0.57900  0.09290  0.82140  Biso   1.000  H
  H253     1.0000 0.07900  0.40710  0.32140  Biso   1.000  H
  H254     1.0000 0.92100  0.40710  0.17860  Biso   1.000  H
  H255     1.0000 0.57900  0.90710  0.32140  Biso   1.000  H
  H256     1.0000 0.42100  0.90710  0.17860  Biso   1.000  H
  C257     1.0000 0.59800  0.81200  0.53920  Biso   1.000  C
  C258     1.0000 0.40200  0.81200  0.96080  Biso   1.000  C
  C259     1.0000 0.09800  0.31200  0.53920  Biso   1.000  C
  C260     1.0000 0.90200  0.31200  0.96080  Biso   1.000  C
  C261     1.0000 0.40200  0.18800  0.46080  Biso   1.000  C
  C262     1.0000 0.59800  0.18800  0.03920  Biso   1.000  C
  C263     1.0000 0.90200  0.68800  0.46080  Biso   1.000  C
  C264     1.0000 0.09800  0.68800  0.03920  Biso   1.000  C
  H257     1.0000 0.62160  0.81130  0.52290  Biso   1.000  H
  H258     1.0000 0.37840  0.81130  0.97710  Biso   1.000  H
  H259     1.0000 0.12160  0.31130  0.52290  Biso   1.000  H
  H260     1.0000 0.87840  0.31130  0.97710  Biso   1.000  H
  H261     1.0000 0.37840  0.18870  0.47710  Biso   1.000  H
  H262     1.0000 0.62160  0.18870  0.02290  Biso   1.000  H
  H263     1.0000 0.87840  0.68870  0.47710  Biso   1.000  H
  H264     1.0000 0.12160  0.68870  0.02290  Biso   1.000  H
  C265     1.0000 0.55260  0.73710  0.59400  Biso   1.000  C
  C266     1.0000 0.44740  0.73710  0.90600  Biso   1.000  C
  C267     1.0000 0.05260  0.23710  0.59400  Biso   1.000  C
  C268     1.0000 0.94740  0.23710  0.90600  Biso   1.000  C
  C269     1.0000 0.44740  0.26290  0.40600  Biso   1.000  C
  C270     1.0000 0.55260  0.26290  0.09400  Biso   1.000  C
  C271     1.0000 0.94740  0.76290  0.40600  Biso   1.000  C
  C272     1.0000 0.05260  0.76290  0.09400  Biso   1.000  C
  H265     1.0000 0.54460  0.68370  0.62060  Biso   1.000  H
  H266     1.0000 0.45540  0.68370  0.87940  Biso   1.000  H
  H267     1.0000 0.04460  0.18370  0.62060  Biso   1.000  H
  H268     1.0000 0.95540  0.18370  0.87940  Biso   1.000  H
  H269     1.0000 0.45540  0.31630  0.37940  Biso   1.000  H
  H270     1.0000 0.54460  0.31630  0.12060  Biso   1.000  H
  H271     1.0000 0.95540  0.81630  0.37940  Biso   1.000  H
  H272     1.0000 0.04460  0.81630  0.12060  Biso   1.000  H
  C273     1.0000 0.95200  0.55500  0.81080  Biso   1.000  C
  C274     1.0000 0.04800  0.55500  0.68920  Biso   1.000  C
  C275     1.0000 0.45200  0.05500  0.81080  Biso   1.000  C
  C276     1.0000 0.54800  0.05500  0.68920  Biso   1.000  C
  C277     1.0000 0.04800  0.44500  0.18920  Biso   1.000  C
  C278     1.0000 0.95200  0.44500  0.31080  Biso   1.000  C
  C279     1.0000 0.54800  0.94500  0.18920  Biso   1.000  C
  C280     1.0000 0.45200  0.94500  0.31080  Biso   1.000  C
  H273     1.0000 0.96590  0.50550  0.79340  Biso   1.000  H
  H274     1.0000 0.03410  0.50550  0.70660  Biso   1.000  H
  H275     1.0000 0.46590  0.00550  0.79340  Biso   1.000  H
  H276     1.0000 0.53410  0.00550  0.70660  Biso   1.000  H
  H277     1.0000 0.03410  0.49450  0.20660  Biso   1.000  H
  H278     1.0000 0.96590  0.49450  0.29340  Biso   1.000  H
  H279     1.0000 0.53410  0.99450  0.20660  Biso   1.000  H
  H280     1.0000 0.46590  0.99450  0.29340  Biso   1.000  H
  C281     1.0000 0.90640  0.69000  0.84930  Biso   1.000  C
  C282     1.0000 0.09360  0.69000  0.65070  Biso   1.000  C
  C283     1.0000 0.40640  0.19000  0.84930  Biso   1.000  C
  C284     1.0000 0.59360  0.19000  0.65070  Biso   1.000  C
  C285     1.0000 0.09360  0.31000  0.15070  Biso   1.000  C
  C286     1.0000 0.90640  0.31000  0.34930  Biso   1.000  C
  C287     1.0000 0.59360  0.81000  0.15070  Biso   1.000  C
  C288     1.0000 0.40640  0.81000  0.34930  Biso   1.000  C
  H281     1.0000 0.89100  0.73810  0.86430  Biso   1.000  H
  H282     1.0000 0.10900  0.73810  0.63570  Biso   1.000  H
  H283     1.0000 0.39100  0.23810  0.86430  Biso   1.000  H
  H284     1.0000 0.60900  0.23810  0.63570  Biso   1.000  H
  H285     1.0000 0.10900  0.26190  0.13570  Biso   1.000  H
  H286     1.0000 0.89100  0.26190  0.36430  Biso   1.000  H
  H287     1.0000 0.60900  0.76190  0.13570  Biso   1.000  H
  H288     1.0000 0.39100  0.76190  0.36430  Biso   1.000  H
  C289     1.0000 0.93710  0.64060  0.91550  Biso   1.000  C
  C290     1.0000 0.06290  0.64060  0.58450  Biso   1.000  C
  C291     1.0000 0.43710  0.14060  0.91550  Biso   1.000  C
  C292     1.0000 0.56290  0.14060  0.58450  Biso   1.000  C
  C293     1.0000 0.06290  0.35940  0.08450  Biso   1.000  C
  C294     1.0000 0.93710  0.35940  0.41550  Biso   1.000  C
  C295     1.0000 0.56290  0.85940  0.08450  Biso   1.000  C
  C296     1.0000 0.43710  0.85940  0.41550  Biso   1.000  C
  H289     1.0000 0.94130  0.65670  0.97780  Biso   1.000  H
  H290     1.0000 0.05870  0.65670  0.52220  Biso   1.000  H
  H291     1.0000 0.44130  0.15670  0.97780  Biso   1.000  H
  H292     1.0000 0.55870  0.15670  0.52220  Biso   1.000  H
  H293     1.0000 0.05870  0.34330  0.02220  Biso   1.000  H
  H294     1.0000 0.94130  0.34330  0.47780  Biso   1.000  H
  H295     1.0000 0.55870  0.84330  0.02220  Biso   1.000  H
  H296     1.0000 0.44130  0.84330  0.47780  Biso   1.000  H
  C297     1.0000 0.57310  0.89050  0.52010  Biso   1.000  C
  C298     1.0000 0.42690  0.89050  0.97990  Biso   1.000  C
  C299     1.0000 0.07310  0.39050  0.52010  Biso   1.000  C
  C300     1.0000 0.92690  0.39050  0.97990  Biso   1.000  C
  C301     1.0000 0.42690  0.10950  0.47990  Biso   1.000  C
  C302     1.0000 0.57310  0.10950  0.02010  Biso   1.000  C
  C303     1.0000 0.92690  0.60950  0.47990  Biso   1.000  C
  C304     1.0000 0.07310  0.60950  0.02010  Biso   1.000  C
  H297     1.0000 0.58160  0.94580  0.49760  Biso   1.000  H
  H298     1.0000 0.41840  0.94580  0.00240  Biso   1.000  H
  H299     1.0000 0.08160  0.44580  0.49760  Biso   1.000  H
  H300     1.0000 0.91840  0.44580  0.00240  Biso   1.000  H
  H301     1.0000 0.41840  0.05420  0.50240  Biso   1.000  H
  H302     1.0000 0.58160  0.05420  0.99760  Biso   1.000  H
  H303     1.0000 0.91840  0.55420  0.50240  Biso   1.000  H
  H304     1.0000 0.08160  0.55420  0.99760  Biso   1.000  H
  O49      1.0000 0.40670  0.93930  0.58200  Biso   1.000  O
  O50      1.0000 0.59330  0.93930  0.91800  Biso   1.000  O
  O51      1.0000 0.90670  0.43930  0.58200  Biso   1.000  O
  O52      1.0000 0.09330  0.43930  0.91800  Biso   1.000  O
  O53      1.0000 0.59330  0.06070  0.41800  Biso   1.000  O
  O54      1.0000 0.40670  0.06070  0.08200  Biso   1.000  O
  O55      1.0000 0.09330  0.56070  0.41800  Biso   1.000  O
  O56      1.0000 0.90670  0.56070  0.08200  Biso   1.000  O
  O57      1.0000 0.44190  0.85000  0.68300  Biso   1.000  O
  O58      1.0000 0.55810  0.85000  0.81700  Biso   1.000  O
  O59      1.0000 0.94190  0.35000  0.68300  Biso   1.000  O
  O60      1.0000 0.05810  0.35000  0.81700  Biso   1.000  O
  O61      1.0000 0.55810  0.15000  0.31700  Biso   1.000  O
  O62      1.0000 0.44190  0.15000  0.18300  Biso   1.000  O
  O63      1.0000 0.05810  0.65000  0.31700  Biso   1.000  O
  O64      1.0000 0.94190  0.65000  0.18300  Biso   1.000  O
