data_image0
_cell_length_a       36.068
_cell_length_b       14.096
_cell_length_c       16.023
_cell_angle_alpha    90
_cell_angle_beta     109.397
_cell_angle_gamma    90

_symmetry_space_group_name_H-M    "P 1"
_symmetry_int_tables_number       1

loop_
  _symmetry_equiv_pos_as_xyz
  'x, y, z'

loop_
  _atom_site_label
  _atom_site_occupancy
  _atom_site_fract_x
  _atom_site_fract_y
  _atom_site_fract_z
  _atom_site_thermal_displace_type
  _atom_site_B_iso_or_equiv
  _atom_site_type_symbol
  Cu1      1.0000 0.50000  0.00000  0.00000  Biso   1.000  Cu
  Cu2      1.0000 0.50000  0.00000  0.50000  Biso   1.000  Cu
  Cu3      1.0000 0.00000  0.50000  0.00000  Biso   1.000  Cu
  Cu4      1.0000 0.00000  0.50000  0.50000  Biso   1.000  Cu
  C1       1.0000 0.75669  0.02260  0.54940  Biso   1.000  C
  C2       1.0000 0.24331  0.02260  0.95060  Biso   1.000  C
  C3       1.0000 0.25669  0.52260  0.54940  Biso   1.000  C
  C4       1.0000 0.74331  0.52260  0.95060  Biso   1.000  C
  C5       1.0000 0.24331  0.97740  0.45060  Biso   1.000  C
  C6       1.0000 0.75669  0.97740  0.04940  Biso   1.000  C
  C7       1.0000 0.74331  0.47740  0.45060  Biso   1.000  C
  C8       1.0000 0.25669  0.47740  0.04940  Biso   1.000  C
  C9       1.0000 0.73137  0.14280  0.43630  Biso   1.000  C
  C10      1.0000 0.26863  0.14280  0.06370  Biso   1.000  C
  C11      1.0000 0.23137  0.64280  0.43630  Biso   1.000  C
  C12      1.0000 0.76863  0.64280  0.06370  Biso   1.000  C
  C13      1.0000 0.26863  0.85720  0.56370  Biso   1.000  C
  C14      1.0000 0.73137  0.85720  0.93630  Biso   1.000  C
  C15      1.0000 0.76863  0.35720  0.56370  Biso   1.000  C
  C16      1.0000 0.23137  0.35720  0.93630  Biso   1.000  C
  C17      1.0000 0.79586  0.07710  0.46130  Biso   1.000  C
  C18      1.0000 0.20414  0.07710  0.03870  Biso   1.000  C
  C19      1.0000 0.29586  0.57710  0.46130  Biso   1.000  C
  C20      1.0000 0.70414  0.57710  0.03870  Biso   1.000  C
  C21      1.0000 0.20414  0.92290  0.53870  Biso   1.000  C
  C22      1.0000 0.79586  0.92290  0.96130  Biso   1.000  C
  C23      1.0000 0.70414  0.42290  0.53870  Biso   1.000  C
  C24      1.0000 0.29586  0.42290  0.96130  Biso   1.000  C
  C25      1.0000 0.79262  0.02270  0.53330  Biso   1.000  C
  C26      1.0000 0.20738  0.02270  0.96670  Biso   1.000  C
  C27      1.0000 0.29262  0.52270  0.53330  Biso   1.000  C
  C28      1.0000 0.70738  0.52270  0.96670  Biso   1.000  C
  C29      1.0000 0.20738  0.97730  0.46670  Biso   1.000  C
  C30      1.0000 0.79262  0.97730  0.03330  Biso   1.000  C
  C31      1.0000 0.70738  0.47730  0.46670  Biso   1.000  C
  C32      1.0000 0.29262  0.47730  0.03330  Biso   1.000  C
  C33      1.0000 0.72574  0.08070  0.49850  Biso   1.000  C
  C34      1.0000 0.27426  0.08070  0.00150  Biso   1.000  C
  C35      1.0000 0.22574  0.58070  0.49850  Biso   1.000  C
  C36      1.0000 0.77426  0.58070  0.00150  Biso   1.000  C
  C37      1.0000 0.27426  0.91930  0.50150  Biso   1.000  C
  C38      1.0000 0.72574  0.91930  0.99850  Biso   1.000  C
  C39      1.0000 0.77426  0.41930  0.50150  Biso   1.000  C
  C40      1.0000 0.22574  0.41930  0.99850  Biso   1.000  C
  C41      1.0000 0.76599  0.13770  0.41520  Biso   1.000  C
  C42      1.0000 0.23401  0.13770  0.08480  Biso   1.000  C
  C43      1.0000 0.26599  0.63770  0.41520  Biso   1.000  C
  C44      1.0000 0.73401  0.63770  0.08480  Biso   1.000  C
  C45      1.0000 0.23401  0.86230  0.58480  Biso   1.000  C
  C46      1.0000 0.76599  0.86230  0.91520  Biso   1.000  C
  C47      1.0000 0.73401  0.36230  0.58480  Biso   1.000  C
  C48      1.0000 0.26599  0.36230  0.91520  Biso   1.000  C
  C49      1.0000 0.59904  0.15800  0.23730  Biso   1.000  C
  C50      1.0000 0.40096  0.15800  0.26270  Biso   1.000  C
  C51      1.0000 0.09904  0.65800  0.23730  Biso   1.000  C
  C52      1.0000 0.90096  0.65800  0.26270  Biso   1.000  C
  C53      1.0000 0.40096  0.84200  0.76270  Biso   1.000  C
  C54      1.0000 0.59904  0.84200  0.73730  Biso   1.000  C
  C55      1.0000 0.90096  0.34200  0.76270  Biso   1.000  C
  C56      1.0000 0.09904  0.34200  0.73730  Biso   1.000  C
  C57      1.0000 0.71667  0.00020  0.72440  Biso   1.000  C
  C58      1.0000 0.28333  0.00020  0.77560  Biso   1.000  C
  C59      1.0000 0.21667  0.50020  0.72440  Biso   1.000  C
  C60      1.0000 0.78333  0.50020  0.77560  Biso   1.000  C
  C61      1.0000 0.28333  0.99980  0.27560  Biso   1.000  C
  C62      1.0000 0.71667  0.99980  0.22440  Biso   1.000  C
  C63      1.0000 0.78333  0.49980  0.27560  Biso   1.000  C
  C64      1.0000 0.21667  0.49980  0.22440  Biso   1.000  C
  C65      1.0000 0.75084  0.95850  0.61970  Biso   1.000  C
  C66      1.0000 0.24916  0.95850  0.88030  Biso   1.000  C
  C67      1.0000 0.25084  0.45850  0.61970  Biso   1.000  C
  C68      1.0000 0.74916  0.45850  0.88030  Biso   1.000  C
  C69      1.0000 0.24916  0.04150  0.38030  Biso   1.000  C
  C70      1.0000 0.75084  0.04150  0.11970  Biso   1.000  C
  C71      1.0000 0.74916  0.54150  0.38030  Biso   1.000  C
  C72      1.0000 0.25084  0.54150  0.11970  Biso   1.000  C
  H1       1.0000 0.72720  0.91870  0.59320  Biso   1.000  H
  H2       1.0000 0.27280  0.91870  0.90680  Biso   1.000  H
  H3       1.0000 0.22720  0.41870  0.59320  Biso   1.000  H
  H4       1.0000 0.77280  0.41870  0.90680  Biso   1.000  H
  H5       1.0000 0.27280  0.08130  0.40680  Biso   1.000  H
  H6       1.0000 0.72720  0.08130  0.09320  Biso   1.000  H
  H7       1.0000 0.77280  0.58130  0.40680  Biso   1.000  H
  H8       1.0000 0.22720  0.58130  0.09320  Biso   1.000  H
  H9       1.0000 0.77380  0.91580  0.64250  Biso   1.000  H
  H10      1.0000 0.22620  0.91580  0.85750  Biso   1.000  H
  H11      1.0000 0.27380  0.41580  0.64250  Biso   1.000  H
  H12      1.0000 0.72620  0.41580  0.85750  Biso   1.000  H
  H13      1.0000 0.22620  0.08420  0.35750  Biso   1.000  H
  H14      1.0000 0.77380  0.08420  0.14250  Biso   1.000  H
  H15      1.0000 0.72620  0.58420  0.35750  Biso   1.000  H
  H16      1.0000 0.27380  0.58420  0.14250  Biso   1.000  H
  C73      1.0000 0.71237  0.07050  0.79000  Biso   1.000  C
  C74      1.0000 0.28763  0.07050  0.71000  Biso   1.000  C
  C75      1.0000 0.21237  0.57050  0.79000  Biso   1.000  C
  C76      1.0000 0.78763  0.57050  0.71000  Biso   1.000  C
  C77      1.0000 0.28763  0.92950  0.21000  Biso   1.000  C
  C78      1.0000 0.71237  0.92950  0.29000  Biso   1.000  C
  C79      1.0000 0.78763  0.42950  0.21000  Biso   1.000  C
  C80      1.0000 0.21237  0.42950  0.29000  Biso   1.000  C
  C81      1.0000 0.70040  0.21590  0.39500  Biso   1.000  C
  C82      1.0000 0.29960  0.21590  0.10500  Biso   1.000  C
  C83      1.0000 0.20040  0.71590  0.39500  Biso   1.000  C
  C84      1.0000 0.79960  0.71590  0.10500  Biso   1.000  C
  C85      1.0000 0.29960  0.78410  0.60500  Biso   1.000  C
  C86      1.0000 0.70040  0.78410  0.89500  Biso   1.000  C
  C87      1.0000 0.79960  0.28410  0.60500  Biso   1.000  C
  C88      1.0000 0.20040  0.28410  0.89500  Biso   1.000  C
  H17      1.0000 0.69090  0.24280  0.44130  Biso   1.000  H
  H18      1.0000 0.30910  0.24280  0.05870  Biso   1.000  H
  H19      1.0000 0.19090  0.74280  0.44130  Biso   1.000  H
  H20      1.0000 0.80910  0.74280  0.05870  Biso   1.000  H
  H21      1.0000 0.30910  0.75720  0.55870  Biso   1.000  H
  H22      1.0000 0.69090  0.75720  0.94130  Biso   1.000  H
  H23      1.0000 0.80910  0.25720  0.55870  Biso   1.000  H
  H24      1.0000 0.19090  0.25720  0.94130  Biso   1.000  H
  H25      1.0000 0.71230  0.26810  0.37130  Biso   1.000  H
  H26      1.0000 0.28770  0.26810  0.12870  Biso   1.000  H
  H27      1.0000 0.21230  0.76810  0.37130  Biso   1.000  H
  H28      1.0000 0.78770  0.76810  0.12870  Biso   1.000  H
  H29      1.0000 0.28770  0.73190  0.62870  Biso   1.000  H
  H30      1.0000 0.71230  0.73190  0.87130  Biso   1.000  H
  H31      1.0000 0.78770  0.23190  0.62870  Biso   1.000  H
  H32      1.0000 0.21230  0.23190  0.87130  Biso   1.000  H
  C89      1.0000 0.83158  0.06170  0.43320  Biso   1.000  C
  C90      1.0000 0.16842  0.06170  0.06680  Biso   1.000  C
  C91      1.0000 0.33158  0.56170  0.43320  Biso   1.000  C
  C92      1.0000 0.66842  0.56170  0.06680  Biso   1.000  C
  C93      1.0000 0.16842  0.93830  0.56680  Biso   1.000  C
  C94      1.0000 0.83158  0.93830  0.93320  Biso   1.000  C
  C95      1.0000 0.66842  0.43830  0.56680  Biso   1.000  C
  C96      1.0000 0.33158  0.43830  0.93320  Biso   1.000  C
  H33      1.0000 0.84500  0.00280  0.46120  Biso   1.000  H
  H34      1.0000 0.15500  0.00280  0.03880  Biso   1.000  H
  H35      1.0000 0.34500  0.50280  0.46120  Biso   1.000  H
  H36      1.0000 0.65500  0.50280  0.03880  Biso   1.000  H
  H37      1.0000 0.15500  0.99720  0.53880  Biso   1.000  H
  H38      1.0000 0.84500  0.99720  0.96120  Biso   1.000  H
  H39      1.0000 0.65500  0.49720  0.53880  Biso   1.000  H
  H40      1.0000 0.34500  0.49720  0.96120  Biso   1.000  H
  H41      1.0000 0.82270  0.05240  0.36830  Biso   1.000  H
  H42      1.0000 0.17730  0.05240  0.13170  Biso   1.000  H
  H43      1.0000 0.32270  0.55240  0.36830  Biso   1.000  H
  H44      1.0000 0.67730  0.55240  0.13170  Biso   1.000  H
  H45      1.0000 0.17730  0.94760  0.63170  Biso   1.000  H
  H46      1.0000 0.82270  0.94760  0.86830  Biso   1.000  H
  H47      1.0000 0.67730  0.44760  0.63170  Biso   1.000  H
  H48      1.0000 0.32270  0.44760  0.86830  Biso   1.000  H
  C97      1.0000 0.74393  0.11980  0.84660  Biso   1.000  C
  C98      1.0000 0.25607  0.11980  0.65340  Biso   1.000  C
  C99      1.0000 0.24393  0.61980  0.84660  Biso   1.000  C
  C100     1.0000 0.75607  0.61980  0.65340  Biso   1.000  C
  C101     1.0000 0.25607  0.88020  0.15340  Biso   1.000  C
  C102     1.0000 0.74393  0.88020  0.34660  Biso   1.000  C
  C103     1.0000 0.75607  0.38020  0.15340  Biso   1.000  C
  C104     1.0000 0.24393  0.38020  0.34660  Biso   1.000  C
  H49      1.0000 0.76970  0.11020  0.84480  Biso   1.000  H
  H50      1.0000 0.23030  0.11020  0.65520  Biso   1.000  H
  H51      1.0000 0.26970  0.61020  0.84480  Biso   1.000  H
  H52      1.0000 0.73030  0.61020  0.65520  Biso   1.000  H
  H53      1.0000 0.23030  0.88980  0.15520  Biso   1.000  H
  H54      1.0000 0.76970  0.88980  0.34480  Biso   1.000  H
  H55      1.0000 0.73030  0.38980  0.15520  Biso   1.000  H
  H56      1.0000 0.26970  0.38980  0.34480  Biso   1.000  H
  C105     1.0000 0.68629  0.07630  0.51330  Biso   1.000  C
  C106     1.0000 0.31371  0.07630  0.98670  Biso   1.000  C
  C107     1.0000 0.18629  0.57630  0.51330  Biso   1.000  C
  C108     1.0000 0.81371  0.57630  0.98670  Biso   1.000  C
  C109     1.0000 0.31371  0.92370  0.48670  Biso   1.000  C
  C110     1.0000 0.68629  0.92370  0.01330  Biso   1.000  C
  C111     1.0000 0.81371  0.42370  0.48670  Biso   1.000  C
  C112     1.0000 0.18629  0.42370  0.01330  Biso   1.000  C
  H57      1.0000 0.68480  0.01810  0.54560  Biso   1.000  H
  H58      1.0000 0.31520  0.01810  0.95440  Biso   1.000  H
  H59      1.0000 0.18480  0.51810  0.54560  Biso   1.000  H
  H60      1.0000 0.81520  0.51810  0.95440  Biso   1.000  H
  H61      1.0000 0.31520  0.98190  0.45440  Biso   1.000  H
  H62      1.0000 0.68480  0.98190  0.04560  Biso   1.000  H
  H63      1.0000 0.81520  0.48190  0.45440  Biso   1.000  H
  H64      1.0000 0.18480  0.48190  0.04560  Biso   1.000  H
  H65      1.0000 0.66510  0.07640  0.45600  Biso   1.000  H
  H66      1.0000 0.33490  0.07640  0.04400  Biso   1.000  H
  H67      1.0000 0.16510  0.57640  0.45600  Biso   1.000  H
  H68      1.0000 0.83490  0.57640  0.04400  Biso   1.000  H
  H69      1.0000 0.33490  0.92360  0.54400  Biso   1.000  H
  H70      1.0000 0.66510  0.92360  0.95600  Biso   1.000  H
  H71      1.0000 0.83490  0.42360  0.54400  Biso   1.000  H
  H72      1.0000 0.16510  0.42360  0.95600  Biso   1.000  H
  H73      1.0000 0.68350  0.13160  0.54780  Biso   1.000  H
  H74      1.0000 0.31650  0.13160  0.95220  Biso   1.000  H
  H75      1.0000 0.18350  0.63160  0.54780  Biso   1.000  H
  H76      1.0000 0.81650  0.63160  0.95220  Biso   1.000  H
  H77      1.0000 0.31650  0.86840  0.45220  Biso   1.000  H
  H78      1.0000 0.68350  0.86840  0.04780  Biso   1.000  H
  H79      1.0000 0.81650  0.36840  0.45220  Biso   1.000  H
  H80      1.0000 0.18350  0.36840  0.04780  Biso   1.000  H
  C113     1.0000 0.63035  0.20470  0.31240  Biso   1.000  C
  C114     1.0000 0.36965  0.20470  0.18760  Biso   1.000  C
  C115     1.0000 0.13035  0.70470  0.31240  Biso   1.000  C
  C116     1.0000 0.86965  0.70470  0.18760  Biso   1.000  C
  C117     1.0000 0.36965  0.79530  0.68760  Biso   1.000  C
  C118     1.0000 0.63035  0.79530  0.81240  Biso   1.000  C
  C119     1.0000 0.86965  0.29530  0.68760  Biso   1.000  C
  C120     1.0000 0.13035  0.29530  0.81240  Biso   1.000  C
  C121     1.0000 0.91086  0.23870  0.43260  Biso   1.000  C
  C122     1.0000 0.08914  0.23870  0.06740  Biso   1.000  C
  C123     1.0000 0.41086  0.73870  0.43260  Biso   1.000  C
  C124     1.0000 0.58914  0.73870  0.06740  Biso   1.000  C
  C125     1.0000 0.08914  0.76130  0.56740  Biso   1.000  C
  C126     1.0000 0.91086  0.76130  0.93260  Biso   1.000  C
  C127     1.0000 0.58914  0.26130  0.56740  Biso   1.000  C
  C128     1.0000 0.41086  0.26130  0.93260  Biso   1.000  C
  C129     1.0000 0.77051  0.19880  0.34120  Biso   1.000  C
  C130     1.0000 0.22949  0.19880  0.15880  Biso   1.000  C
  C131     1.0000 0.27051  0.69880  0.34120  Biso   1.000  C
  C132     1.0000 0.72949  0.69880  0.15880  Biso   1.000  C
  C133     1.0000 0.22949  0.80120  0.65880  Biso   1.000  C
  C134     1.0000 0.77051  0.80120  0.84120  Biso   1.000  C
  C135     1.0000 0.72949  0.30120  0.65880  Biso   1.000  C
  C136     1.0000 0.27051  0.30120  0.84120  Biso   1.000  C
  H81      1.0000 0.74720  0.19160  0.28830  Biso   1.000  H
  H82      1.0000 0.25280  0.19160  0.21170  Biso   1.000  H
  H83      1.0000 0.24720  0.69160  0.28830  Biso   1.000  H
  H84      1.0000 0.75280  0.69160  0.21170  Biso   1.000  H
  H85      1.0000 0.25280  0.80840  0.71170  Biso   1.000  H
  H86      1.0000 0.74720  0.80840  0.78830  Biso   1.000  H
  H87      1.0000 0.75280  0.30840  0.71170  Biso   1.000  H
  H88      1.0000 0.24720  0.30840  0.78830  Biso   1.000  H
  H89      1.0000 0.79390  0.17880  0.32770  Biso   1.000  H
  H90      1.0000 0.20610  0.17880  0.17230  Biso   1.000  H
  H91      1.0000 0.29390  0.67880  0.32770  Biso   1.000  H
  H92      1.0000 0.70610  0.67880  0.17230  Biso   1.000  H
  H93      1.0000 0.20610  0.82120  0.67230  Biso   1.000  H
  H94      1.0000 0.79390  0.82120  0.82770  Biso   1.000  H
  H95      1.0000 0.70610  0.32120  0.67230  Biso   1.000  H
  H96      1.0000 0.29390  0.32120  0.82770  Biso   1.000  H
  H97      1.0000 0.77330  0.26540  0.35970  Biso   1.000  H
  H98      1.0000 0.22670  0.26540  0.14030  Biso   1.000  H
  H99      1.0000 0.27330  0.76540  0.35970  Biso   1.000  H
  H100     1.0000 0.72670  0.76540  0.14030  Biso   1.000  H
  H101     1.0000 0.22670  0.73460  0.64030  Biso   1.000  H
  H102     1.0000 0.77330  0.73460  0.85970  Biso   1.000  H
  H103     1.0000 0.72670  0.23460  0.64030  Biso   1.000  H
  H104     1.0000 0.27330  0.23460  0.85970  Biso   1.000  H
  C137     1.0000 0.88215  0.15640  0.40620  Biso   1.000  C
  C138     1.0000 0.11785  0.15640  0.09380  Biso   1.000  C
  C139     1.0000 0.38215  0.65640  0.40620  Biso   1.000  C
  C140     1.0000 0.61785  0.65640  0.09380  Biso   1.000  C
  C141     1.0000 0.11785  0.84360  0.59380  Biso   1.000  C
  C142     1.0000 0.88215  0.84360  0.90620  Biso   1.000  C
  C143     1.0000 0.61785  0.34360  0.59380  Biso   1.000  C
  C144     1.0000 0.38215  0.34360  0.90620  Biso   1.000  C
  C145     1.0000 0.73721  0.18360  0.90610  Biso   1.000  C
  C146     1.0000 0.26279  0.18360  0.59390  Biso   1.000  C
  C147     1.0000 0.23721  0.68360  0.90610  Biso   1.000  C
  C148     1.0000 0.76279  0.68360  0.59390  Biso   1.000  C
  C149     1.0000 0.26279  0.81640  0.09390  Biso   1.000  C
  C150     1.0000 0.73721  0.81640  0.40610  Biso   1.000  C
  C151     1.0000 0.76279  0.31640  0.09390  Biso   1.000  C
  C152     1.0000 0.23721  0.31640  0.40610  Biso   1.000  C
  H105     1.0000 0.75930  0.21550  0.94560  Biso   1.000  H
  H106     1.0000 0.24070  0.21550  0.55440  Biso   1.000  H
  H107     1.0000 0.25930  0.71550  0.94560  Biso   1.000  H
  H108     1.0000 0.74070  0.71550  0.55440  Biso   1.000  H
  H109     1.0000 0.24070  0.78450  0.05440  Biso   1.000  H
  H110     1.0000 0.75930  0.78450  0.44560  Biso   1.000  H
  H111     1.0000 0.74070  0.28450  0.05440  Biso   1.000  H
  H112     1.0000 0.25930  0.28450  0.44560  Biso   1.000  H
  C153     1.0000 0.82690  0.96510  0.59260  Biso   1.000  C
  C154     1.0000 0.17310  0.96510  0.90740  Biso   1.000  C
  C155     1.0000 0.32690  0.46510  0.59260  Biso   1.000  C
  C156     1.0000 0.67310  0.46510  0.90740  Biso   1.000  C
  C157     1.0000 0.17310  0.03490  0.40740  Biso   1.000  C
  C158     1.0000 0.82690  0.03490  0.09260  Biso   1.000  C
  C159     1.0000 0.67310  0.53490  0.40740  Biso   1.000  C
  C160     1.0000 0.32690  0.53490  0.09260  Biso   1.000  C
  H113     1.0000 0.82950  0.97620  0.65470  Biso   1.000  H
  H114     1.0000 0.17050  0.97620  0.84530  Biso   1.000  H
  H115     1.0000 0.32950  0.47620  0.65470  Biso   1.000  H
  H116     1.0000 0.67050  0.47620  0.84530  Biso   1.000  H
  H117     1.0000 0.17050  0.02380  0.34530  Biso   1.000  H
  H118     1.0000 0.82950  0.02380  0.15470  Biso   1.000  H
  H119     1.0000 0.67050  0.52380  0.34530  Biso   1.000  H
  H120     1.0000 0.32950  0.52380  0.15470  Biso   1.000  H
  H121     1.0000 0.85120  0.98440  0.58240  Biso   1.000  H
  H122     1.0000 0.14880  0.98440  0.91760  Biso   1.000  H
  H123     1.0000 0.35120  0.48440  0.58240  Biso   1.000  H
  H124     1.0000 0.64880  0.48440  0.91760  Biso   1.000  H
  H125     1.0000 0.14880  0.01560  0.41760  Biso   1.000  H
  H126     1.0000 0.85120  0.01560  0.08240  Biso   1.000  H
  H127     1.0000 0.64880  0.51560  0.41760  Biso   1.000  H
  H128     1.0000 0.35120  0.51560  0.08240  Biso   1.000  H
  H129     1.0000 0.82210  0.89750  0.57890  Biso   1.000  H
  H130     1.0000 0.17790  0.89750  0.92110  Biso   1.000  H
  H131     1.0000 0.32210  0.39750  0.57890  Biso   1.000  H
  H132     1.0000 0.67790  0.39750  0.92110  Biso   1.000  H
  H133     1.0000 0.17790  0.10250  0.42110  Biso   1.000  H
  H134     1.0000 0.82210  0.10250  0.07890  Biso   1.000  H
  H135     1.0000 0.67790  0.60250  0.42110  Biso   1.000  H
  H136     1.0000 0.32210  0.60250  0.07890  Biso   1.000  H
  C161     1.0000 0.67581  0.08740  0.79650  Biso   1.000  C
  C162     1.0000 0.32419  0.08740  0.70350  Biso   1.000  C
  C163     1.0000 0.17581  0.58740  0.79650  Biso   1.000  C
  C164     1.0000 0.82419  0.58740  0.70350  Biso   1.000  C
  C165     1.0000 0.32419  0.91260  0.20350  Biso   1.000  C
  C166     1.0000 0.67581  0.91260  0.29650  Biso   1.000  C
  C167     1.0000 0.82419  0.41260  0.20350  Biso   1.000  C
  C168     1.0000 0.17581  0.41260  0.29650  Biso   1.000  C
  H137     1.0000 0.65330  0.05500  0.75950  Biso   1.000  H
  H138     1.0000 0.34670  0.05500  0.74050  Biso   1.000  H
  H139     1.0000 0.15330  0.55500  0.75950  Biso   1.000  H
  H140     1.0000 0.84670  0.55500  0.74050  Biso   1.000  H
  H141     1.0000 0.34670  0.94500  0.24050  Biso   1.000  H
  H142     1.0000 0.65330  0.94500  0.25950  Biso   1.000  H
  H143     1.0000 0.84670  0.44500  0.24050  Biso   1.000  H
  H144     1.0000 0.15330  0.44500  0.25950  Biso   1.000  H
  C169     1.0000 0.67268  0.15320  0.85870  Biso   1.000  C
  C170     1.0000 0.32732  0.15320  0.64130  Biso   1.000  C
  C171     1.0000 0.17268  0.65320  0.85870  Biso   1.000  C
  C172     1.0000 0.82732  0.65320  0.64130  Biso   1.000  C
  C173     1.0000 0.32732  0.84680  0.14130  Biso   1.000  C
  C174     1.0000 0.67268  0.84680  0.35870  Biso   1.000  C
  C175     1.0000 0.82732  0.34680  0.14130  Biso   1.000  C
  C176     1.0000 0.17268  0.34680  0.35870  Biso   1.000  C
  H145     1.0000 0.64740  0.16310  0.86340  Biso   1.000  H
  H146     1.0000 0.35260  0.16310  0.63660  Biso   1.000  H
  H147     1.0000 0.14740  0.66310  0.86340  Biso   1.000  H
  H148     1.0000 0.85260  0.66310  0.63660  Biso   1.000  H
  H149     1.0000 0.35260  0.83690  0.13660  Biso   1.000  H
  H150     1.0000 0.64740  0.83690  0.36340  Biso   1.000  H
  H151     1.0000 0.85260  0.33690  0.13660  Biso   1.000  H
  H152     1.0000 0.14740  0.33690  0.36340  Biso   1.000  H
  N1       1.0000 0.66686  0.17770  0.32362  Biso   1.000  N
  N2       1.0000 0.33314  0.17770  0.17638  Biso   1.000  N
  N3       1.0000 0.16686  0.67770  0.32362  Biso   1.000  N
  N4       1.0000 0.83314  0.67770  0.17638  Biso   1.000  N
  N5       1.0000 0.33314  0.82230  0.67638  Biso   1.000  N
  N6       1.0000 0.66686  0.82230  0.82362  Biso   1.000  N
  N7       1.0000 0.83314  0.32230  0.67638  Biso   1.000  N
  N8       1.0000 0.16686  0.32230  0.82362  Biso   1.000  N
  H153     1.0000 0.67110  0.13570  0.28720  Biso   1.000  H
  H154     1.0000 0.32890  0.13570  0.21280  Biso   1.000  H
  H155     1.0000 0.17110  0.63570  0.28720  Biso   1.000  H
  H156     1.0000 0.82890  0.63570  0.21280  Biso   1.000  H
  H157     1.0000 0.32890  0.86430  0.71280  Biso   1.000  H
  H158     1.0000 0.67110  0.86430  0.78720  Biso   1.000  H
  H159     1.0000 0.82890  0.36430  0.71280  Biso   1.000  H
  H160     1.0000 0.17110  0.36430  0.78720  Biso   1.000  H
  N9       1.0000 0.74613  0.01340  0.69284  Biso   1.000  N
  N10      1.0000 0.25387  0.01340  0.80716  Biso   1.000  N
  N11      1.0000 0.24613  0.51340  0.69284  Biso   1.000  N
  N12      1.0000 0.75387  0.51340  0.80716  Biso   1.000  N
  N13      1.0000 0.25387  0.98660  0.30716  Biso   1.000  N
  N14      1.0000 0.74613  0.98660  0.19284  Biso   1.000  N
  N15      1.0000 0.75387  0.48660  0.30716  Biso   1.000  N
  N16      1.0000 0.24613  0.48660  0.19284  Biso   1.000  N
  H161     1.0000 0.76370  0.05750  0.71730  Biso   1.000  H
  H162     1.0000 0.23630  0.05750  0.78270  Biso   1.000  H
  H163     1.0000 0.26370  0.55750  0.71730  Biso   1.000  H
  H164     1.0000 0.73630  0.55750  0.78270  Biso   1.000  H
  H165     1.0000 0.23630  0.94250  0.28270  Biso   1.000  H
  H166     1.0000 0.76370  0.94250  0.21730  Biso   1.000  H
  H167     1.0000 0.73630  0.44250  0.28270  Biso   1.000  H
  H168     1.0000 0.26370  0.44250  0.21730  Biso   1.000  H
  N17      1.0000 0.53977  0.07030  0.10176  Biso   1.000  N
  N18      1.0000 0.46023  0.07030  0.39824  Biso   1.000  N
  N19      1.0000 0.03977  0.57030  0.10176  Biso   1.000  N
  N20      1.0000 0.96023  0.57030  0.39824  Biso   1.000  N
  N21      1.0000 0.46023  0.92970  0.89824  Biso   1.000  N
  N22      1.0000 0.53977  0.92970  0.60176  Biso   1.000  N
  N23      1.0000 0.96023  0.42970  0.89824  Biso   1.000  N
  N24      1.0000 0.03977  0.42970  0.60176  Biso   1.000  N
  N25      1.0000 0.85998  0.14000  0.45650  Biso   1.000  N
  N26      1.0000 0.14002  0.14000  0.04350  Biso   1.000  N
  N27      1.0000 0.35998  0.64000  0.45650  Biso   1.000  N
  N28      1.0000 0.64002  0.64000  0.04350  Biso   1.000  N
  N29      1.0000 0.14002  0.86000  0.54350  Biso   1.000  N
  N30      1.0000 0.85998  0.86000  0.95650  Biso   1.000  N
  N31      1.0000 0.64002  0.36000  0.54350  Biso   1.000  N
  N32      1.0000 0.35998  0.36000  0.95650  Biso   1.000  N
  H169     1.0000 0.86230  0.17570  0.50300  Biso   1.000  H
  H170     1.0000 0.13770  0.17570  0.99700  Biso   1.000  H
  H171     1.0000 0.36230  0.67570  0.50300  Biso   1.000  H
  H172     1.0000 0.63770  0.67570  0.99700  Biso   1.000  H
  H173     1.0000 0.13770  0.82430  0.49700  Biso   1.000  H
  H174     1.0000 0.86230  0.82430  0.00300  Biso   1.000  H
  H175     1.0000 0.63770  0.32430  0.49700  Biso   1.000  H
  H176     1.0000 0.36230  0.32430  0.00300  Biso   1.000  H
  N33      1.0000 0.70218  0.20280  0.91150  Biso   1.000  N
  N34      1.0000 0.29782  0.20280  0.58850  Biso   1.000  N
  N35      1.0000 0.20218  0.70280  0.91150  Biso   1.000  N
  N36      1.0000 0.79782  0.70280  0.58850  Biso   1.000  N
  N37      1.0000 0.29782  0.79720  0.08850  Biso   1.000  N
  N38      1.0000 0.70218  0.79720  0.41150  Biso   1.000  N
  N39      1.0000 0.79782  0.29720  0.08850  Biso   1.000  N
  N40      1.0000 0.20218  0.29720  0.41150  Biso   1.000  N
  N41      1.0000 0.96419  0.38710  0.47330  Biso   1.000  N
  N42      1.0000 0.03581  0.38710  0.02670  Biso   1.000  N
  N43      1.0000 0.46419  0.88710  0.47330  Biso   1.000  N
  N44      1.0000 0.53581  0.88710  0.02670  Biso   1.000  N
  N45      1.0000 0.03581  0.61290  0.52670  Biso   1.000  N
  N46      1.0000 0.96419  0.61290  0.97330  Biso   1.000  N
  N47      1.0000 0.53581  0.11290  0.52670  Biso   1.000  N
  N48      1.0000 0.46419  0.11290  0.97330  Biso   1.000  N
  C177     1.0000 0.95370  0.34470  0.53530  Biso   1.000  C
  C178     1.0000 0.04630  0.34470  0.96470  Biso   1.000  C
  C179     1.0000 0.45370  0.84470  0.53530  Biso   1.000  C
  C180     1.0000 0.54630  0.84470  0.96470  Biso   1.000  C
  C181     1.0000 0.04630  0.65530  0.46470  Biso   1.000  C
  C182     1.0000 0.95370  0.65530  0.03530  Biso   1.000  C
  C183     1.0000 0.54630  0.15530  0.46470  Biso   1.000  C
  C184     1.0000 0.45370  0.15530  0.03530  Biso   1.000  C
  H177     1.0000 0.96600  0.36290  0.59520  Biso   1.000  H
  H178     1.0000 0.03400  0.36290  0.90480  Biso   1.000  H
  H179     1.0000 0.46600  0.86290  0.59520  Biso   1.000  H
  H180     1.0000 0.53400  0.86290  0.90480  Biso   1.000  H
  H181     1.0000 0.03400  0.63710  0.40480  Biso   1.000  H
  H182     1.0000 0.96600  0.63710  0.09520  Biso   1.000  H
  H183     1.0000 0.53400  0.13710  0.40480  Biso   1.000  H
  H184     1.0000 0.46600  0.13710  0.09520  Biso   1.000  H
  O1       1.0000 0.69265  0.93582  0.69829  Biso   1.000  O
  O2       1.0000 0.30735  0.93582  0.80171  Biso   1.000  O
  O3       1.0000 0.19265  0.43582  0.69829  Biso   1.000  O
  O4       1.0000 0.80735  0.43582  0.80171  Biso   1.000  O
  O5       1.0000 0.30735  0.06418  0.30171  Biso   1.000  O
  O6       1.0000 0.69265  0.06418  0.19829  Biso   1.000  O
  O7       1.0000 0.80735  0.56418  0.30171  Biso   1.000  O
  O8       1.0000 0.19265  0.56418  0.19829  Biso   1.000  O
  O9       1.0000 0.62144  0.26190  0.35960  Biso   1.000  O
  O10      1.0000 0.37856  0.26190  0.14040  Biso   1.000  O
  O11      1.0000 0.12144  0.76190  0.35960  Biso   1.000  O
  O12      1.0000 0.87856  0.76190  0.14040  Biso   1.000  O
  O13      1.0000 0.37856  0.73810  0.64040  Biso   1.000  O
  O14      1.0000 0.62144  0.73810  0.85960  Biso   1.000  O
  O15      1.0000 0.87856  0.23810  0.64040  Biso   1.000  O
  O16      1.0000 0.12144  0.23810  0.85960  Biso   1.000  O
  O17      1.0000 0.88012  0.11040  0.34200  Biso   1.000  O
  O18      1.0000 0.11988  0.11040  0.15800  Biso   1.000  O
  O19      1.0000 0.38012  0.61040  0.34200  Biso   1.000  O
  O20      1.0000 0.61988  0.61040  0.15800  Biso   1.000  O
  O21      1.0000 0.11988  0.88960  0.65800  Biso   1.000  O
  O22      1.0000 0.88012  0.88960  0.84200  Biso   1.000  O
  O23      1.0000 0.61988  0.38960  0.65800  Biso   1.000  O
  O24      1.0000 0.38012  0.38960  0.84200  Biso   1.000  O
  O25      1.0000 0.53248  0.05760  0.88760  Biso   1.000  O
  O26      1.0000 0.46752  0.05760  0.61240  Biso   1.000  O
  O27      1.0000 0.03248  0.55760  0.88760  Biso   1.000  O
  O28      1.0000 0.96752  0.55760  0.61240  Biso   1.000  O
  O29      1.0000 0.46752  0.94240  0.11240  Biso   1.000  O
  O30      1.0000 0.53248  0.94240  0.38760  Biso   1.000  O
  O31      1.0000 0.96752  0.44240  0.11240  Biso   1.000  O
  O32      1.0000 0.03248  0.44240  0.38760  Biso   1.000  O
  C185     1.0000 0.92520  0.27380  0.51560  Biso   1.000  C
  C186     1.0000 0.07480  0.27380  0.98440  Biso   1.000  C
  C187     1.0000 0.42520  0.77380  0.51560  Biso   1.000  C
  C188     1.0000 0.57480  0.77380  0.98440  Biso   1.000  C
  C189     1.0000 0.07480  0.72620  0.48440  Biso   1.000  C
  C190     1.0000 0.92520  0.72620  0.01560  Biso   1.000  C
  C191     1.0000 0.57480  0.22620  0.48440  Biso   1.000  C
  C192     1.0000 0.42520  0.22620  0.01560  Biso   1.000  C
  H185     1.0000 0.91580  0.25020  0.56040  Biso   1.000  H
  H186     1.0000 0.08420  0.25020  0.93960  Biso   1.000  H
  H187     1.0000 0.41580  0.75020  0.56040  Biso   1.000  H
  H188     1.0000 0.58420  0.75020  0.93960  Biso   1.000  H
  H189     1.0000 0.08420  0.74980  0.43960  Biso   1.000  H
  H190     1.0000 0.91580  0.74980  0.06040  Biso   1.000  H
  H191     1.0000 0.58420  0.24980  0.43960  Biso   1.000  H
  H192     1.0000 0.41580  0.24980  0.06040  Biso   1.000  H
  C193     1.0000 0.92570  0.27310  0.37120  Biso   1.000  C
  C194     1.0000 0.07430  0.27310  0.12880  Biso   1.000  C
  C195     1.0000 0.42570  0.77310  0.37120  Biso   1.000  C
  C196     1.0000 0.57430  0.77310  0.12880  Biso   1.000  C
  C197     1.0000 0.07430  0.72690  0.62880  Biso   1.000  C
  C198     1.0000 0.92570  0.72690  0.87120  Biso   1.000  C
  C199     1.0000 0.57430  0.22690  0.62880  Biso   1.000  C
  C200     1.0000 0.42570  0.22690  0.87120  Biso   1.000  C
  H193     1.0000 0.91680  0.24860  0.31270  Biso   1.000  H
  H194     1.0000 0.08320  0.24860  0.18730  Biso   1.000  H
  H195     1.0000 0.41680  0.74860  0.31270  Biso   1.000  H
  H196     1.0000 0.58320  0.74860  0.18730  Biso   1.000  H
  H197     1.0000 0.08320  0.75140  0.68730  Biso   1.000  H
  H198     1.0000 0.91680  0.75140  0.81270  Biso   1.000  H
  H199     1.0000 0.58320  0.25140  0.68730  Biso   1.000  H
  H200     1.0000 0.41680  0.25140  0.81270  Biso   1.000  H
  C201     1.0000 0.95340  0.34290  0.39400  Biso   1.000  C
  C202     1.0000 0.04660  0.34290  0.10600  Biso   1.000  C
  C203     1.0000 0.45340  0.84290  0.39400  Biso   1.000  C
  C204     1.0000 0.54660  0.84290  0.10600  Biso   1.000  C
  C205     1.0000 0.04660  0.65710  0.60600  Biso   1.000  C
  C206     1.0000 0.95340  0.65710  0.89400  Biso   1.000  C
  C207     1.0000 0.54660  0.15710  0.60600  Biso   1.000  C
  C208     1.0000 0.45340  0.15710  0.89400  Biso   1.000  C
  H201     1.0000 0.96570  0.36120  0.35240  Biso   1.000  H
  H202     1.0000 0.03430  0.36120  0.14760  Biso   1.000  H
  H203     1.0000 0.46570  0.86120  0.35240  Biso   1.000  H
  H204     1.0000 0.53430  0.86120  0.14760  Biso   1.000  H
  H205     1.0000 0.03430  0.63880  0.64760  Biso   1.000  H
  H206     1.0000 0.96570  0.63880  0.85240  Biso   1.000  H
  H207     1.0000 0.53430  0.13880  0.64760  Biso   1.000  H
  H208     1.0000 0.46570  0.13880  0.85240  Biso   1.000  H
  C209     1.0000 0.53026  0.11790  0.16120  Biso   1.000  C
  C210     1.0000 0.46974  0.11790  0.33880  Biso   1.000  C
  C211     1.0000 0.03026  0.61790  0.16120  Biso   1.000  C
  C212     1.0000 0.96974  0.61790  0.33880  Biso   1.000  C
  C213     1.0000 0.46974  0.88210  0.83880  Biso   1.000  C
  C214     1.0000 0.53026  0.88210  0.66120  Biso   1.000  C
  C215     1.0000 0.96974  0.38210  0.83880  Biso   1.000  C
  C216     1.0000 0.03026  0.38210  0.66120  Biso   1.000  C
  H209     1.0000 0.50360  0.11880  0.15900  Biso   1.000  H
  H210     1.0000 0.49640  0.11880  0.34100  Biso   1.000  H
  H211     1.0000 0.00360  0.61880  0.15900  Biso   1.000  H
  H212     1.0000 0.99640  0.61880  0.34100  Biso   1.000  H
  H213     1.0000 0.49640  0.88120  0.84100  Biso   1.000  H
  H214     1.0000 0.50360  0.88120  0.65900  Biso   1.000  H
  H215     1.0000 0.99640  0.38120  0.84100  Biso   1.000  H
  H216     1.0000 0.00360  0.38120  0.65900  Biso   1.000  H
  C217     1.0000 0.60527  0.10950  0.16800  Biso   1.000  C
  C218     1.0000 0.39473  0.10950  0.33200  Biso   1.000  C
  C219     1.0000 0.10527  0.60950  0.16800  Biso   1.000  C
  C220     1.0000 0.89473  0.60950  0.33200  Biso   1.000  C
  C221     1.0000 0.39473  0.89050  0.83200  Biso   1.000  C
  C222     1.0000 0.60527  0.89050  0.66800  Biso   1.000  C
  C223     1.0000 0.89473  0.39050  0.83200  Biso   1.000  C
  C224     1.0000 0.10527  0.39050  0.66800  Biso   1.000  C
  H217     1.0000 0.63110  0.10680  0.16510  Biso   1.000  H
  H218     1.0000 0.36890  0.10680  0.33490  Biso   1.000  H
  H219     1.0000 0.13110  0.60680  0.16510  Biso   1.000  H
  H220     1.0000 0.86890  0.60680  0.33490  Biso   1.000  H
  H221     1.0000 0.36890  0.89320  0.83490  Biso   1.000  H
  H222     1.0000 0.63110  0.89320  0.66510  Biso   1.000  H
  H223     1.0000 0.86890  0.39320  0.83490  Biso   1.000  H
  H224     1.0000 0.13110  0.39320  0.66510  Biso   1.000  H
  C225     1.0000 0.55780  0.16700  0.22710  Biso   1.000  C
  C226     1.0000 0.44220  0.16700  0.27290  Biso   1.000  C
  C227     1.0000 0.05780  0.66700  0.22710  Biso   1.000  C
  C228     1.0000 0.94220  0.66700  0.27290  Biso   1.000  C
  C229     1.0000 0.44220  0.83300  0.77290  Biso   1.000  C
  C230     1.0000 0.55780  0.83300  0.72710  Biso   1.000  C
  C231     1.0000 0.94220  0.33300  0.77290  Biso   1.000  C
  C232     1.0000 0.05780  0.33300  0.72710  Biso   1.000  C
  H225     1.0000 0.54990  0.20690  0.26590  Biso   1.000  H
  H226     1.0000 0.45010  0.20690  0.23410  Biso   1.000  H
  H227     1.0000 0.04990  0.70690  0.26590  Biso   1.000  H
  H228     1.0000 0.95010  0.70690  0.23410  Biso   1.000  H
  H229     1.0000 0.45010  0.79310  0.73410  Biso   1.000  H
  H230     1.0000 0.54990  0.79310  0.76590  Biso   1.000  H
  H231     1.0000 0.95010  0.29310  0.73410  Biso   1.000  H
  H232     1.0000 0.04990  0.29310  0.76590  Biso   1.000  H
  C233     1.0000 0.57543  0.06540  0.10340  Biso   1.000  C
  C234     1.0000 0.42457  0.06540  0.39660  Biso   1.000  C
  C235     1.0000 0.07543  0.56540  0.10340  Biso   1.000  C
  C236     1.0000 0.92457  0.56540  0.39660  Biso   1.000  C
  C237     1.0000 0.42457  0.93460  0.89660  Biso   1.000  C
  C238     1.0000 0.57543  0.93460  0.60340  Biso   1.000  C
  C239     1.0000 0.92457  0.43460  0.89660  Biso   1.000  C
  C240     1.0000 0.07543  0.43460  0.60340  Biso   1.000  C
  H233     1.0000 0.58140  0.03030  0.05880  Biso   1.000  H
  H234     1.0000 0.41860  0.03030  0.44120  Biso   1.000  H
  H235     1.0000 0.08140  0.53030  0.05880  Biso   1.000  H
  H236     1.0000 0.91860  0.53030  0.44120  Biso   1.000  H
  H237     1.0000 0.41860  0.96970  0.94120  Biso   1.000  H
  H238     1.0000 0.58140  0.96970  0.55880  Biso   1.000  H
  H239     1.0000 0.91860  0.46970  0.94120  Biso   1.000  H
  H240     1.0000 0.08140  0.46970  0.55880  Biso   1.000  H
  Cl1      1.0000 0.55930  0.11490  0.87110  Biso   1.000  Cl
  Cl2      1.0000 0.44070  0.11490  0.62890  Biso   1.000  Cl
  Cl3      1.0000 0.05930  0.61490  0.87110  Biso   1.000  Cl
  Cl4      1.0000 0.94070  0.61490  0.62890  Biso   1.000  Cl
  Cl5      1.0000 0.44070  0.88510  0.12890  Biso   1.000  Cl
  Cl6      1.0000 0.55930  0.88510  0.37110  Biso   1.000  Cl
  Cl7      1.0000 0.94070  0.38510  0.12890  Biso   1.000  Cl
  Cl8      1.0000 0.05930  0.38510  0.37110  Biso   1.000  Cl
  O33      1.0000 0.55940  0.15260  0.79420  Biso   1.000  O
  O34      1.0000 0.44060  0.15260  0.70580  Biso   1.000  O
  O35      1.0000 0.05940  0.65260  0.79420  Biso   1.000  O
  O36      1.0000 0.94060  0.65260  0.70580  Biso   1.000  O
  O37      1.0000 0.44060  0.84740  0.20580  Biso   1.000  O
  O38      1.0000 0.55940  0.84740  0.29420  Biso   1.000  O
  O39      1.0000 0.94060  0.34740  0.20580  Biso   1.000  O
  O40      1.0000 0.05940  0.34740  0.29420  Biso   1.000  O
  O41      1.0000 0.54960  0.21850  0.90050  Biso   1.000  O
  O42      1.0000 0.45040  0.21850  0.59950  Biso   1.000  O
  O43      1.0000 0.04960  0.71850  0.90050  Biso   1.000  O
  O44      1.0000 0.95040  0.71850  0.59950  Biso   1.000  O
  O45      1.0000 0.45040  0.78150  0.09950  Biso   1.000  O
  O46      1.0000 0.54960  0.78150  0.40050  Biso   1.000  O
  O47      1.0000 0.95040  0.28150  0.09950  Biso   1.000  O
  O48      1.0000 0.04960  0.28150  0.40050  Biso   1.000  O
  O49      1.0000 0.60020  0.09840  0.93780  Biso   1.000  O
  O50      1.0000 0.39980  0.09840  0.56220  Biso   1.000  O
  O51      1.0000 0.10020  0.59840  0.93780  Biso   1.000  O
  O52      1.0000 0.89980  0.59840  0.56220  Biso   1.000  O
  O53      1.0000 0.39980  0.90160  0.06220  Biso   1.000  O
  O54      1.0000 0.60020  0.90160  0.43780  Biso   1.000  O
  O55      1.0000 0.89980  0.40160  0.06220  Biso   1.000  O
  O56      1.0000 0.10020  0.40160  0.43780  Biso   1.000  O
  C241     1.0000 0.55880  0.15140  0.09190  Biso   1.000  C
  C242     1.0000 0.44120  0.15140  0.40810  Biso   1.000  C
  C243     1.0000 0.05880  0.65140  0.09190  Biso   1.000  C
  C244     1.0000 0.94120  0.65140  0.40810  Biso   1.000  C
  C245     1.0000 0.44120  0.84860  0.90810  Biso   1.000  C
  C246     1.0000 0.55880  0.84860  0.59190  Biso   1.000  C
  C247     1.0000 0.94120  0.34860  0.90810  Biso   1.000  C
  C248     1.0000 0.05880  0.34860  0.59190  Biso   1.000  C
  H241     1.0000 0.55140  0.17840  0.03430  Biso   1.000  H
  H242     1.0000 0.44860  0.17840  0.46570  Biso   1.000  H
  H243     1.0000 0.05140  0.67840  0.03430  Biso   1.000  H
  H244     1.0000 0.94860  0.67840  0.46570  Biso   1.000  H
  H245     1.0000 0.44860  0.82160  0.96570  Biso   1.000  H
  H246     1.0000 0.55140  0.82160  0.53430  Biso   1.000  H
  H247     1.0000 0.94860  0.32160  0.96570  Biso   1.000  H
  H248     1.0000 0.05140  0.32160  0.53430  Biso   1.000  H
  C249     1.0000 0.58090  0.07920  0.25550  Biso   1.000  C
  C250     1.0000 0.41910  0.07920  0.24450  Biso   1.000  C
  C251     1.0000 0.08090  0.57920  0.25550  Biso   1.000  C
  C252     1.0000 0.91910  0.57920  0.24450  Biso   1.000  C
  C253     1.0000 0.41910  0.92080  0.74450  Biso   1.000  C
  C254     1.0000 0.58090  0.92080  0.75550  Biso   1.000  C
  C255     1.0000 0.91910  0.42080  0.74450  Biso   1.000  C
  C256     1.0000 0.08090  0.42080  0.75550  Biso   1.000  C
  H249     1.0000 0.58760  0.05280  0.31320  Biso   1.000  H
  H250     1.0000 0.41240  0.05280  0.18680  Biso   1.000  H
  H251     1.0000 0.08760  0.55280  0.31320  Biso   1.000  H
  H252     1.0000 0.91240  0.55280  0.18680  Biso   1.000  H
  H253     1.0000 0.41240  0.94720  0.68680  Biso   1.000  H
  H254     1.0000 0.58760  0.94720  0.81320  Biso   1.000  H
  H255     1.0000 0.91240  0.44720  0.68680  Biso   1.000  H
  H256     1.0000 0.08760  0.44720  0.81320  Biso   1.000  H
  C257     1.0000 0.58780  0.19750  0.15790  Biso   1.000  C
  C258     1.0000 0.41220  0.19750  0.34210  Biso   1.000  C
  C259     1.0000 0.08780  0.69750  0.15790  Biso   1.000  C
  C260     1.0000 0.91220  0.69750  0.34210  Biso   1.000  C
  C261     1.0000 0.41220  0.80250  0.84210  Biso   1.000  C
  C262     1.0000 0.58780  0.80250  0.65790  Biso   1.000  C
  C263     1.0000 0.91220  0.30250  0.84210  Biso   1.000  C
  C264     1.0000 0.08780  0.30250  0.65790  Biso   1.000  C
  H257     1.0000 0.59920  0.25490  0.14690  Biso   1.000  H
  H258     1.0000 0.40080  0.25490  0.35310  Biso   1.000  H
  H259     1.0000 0.09920  0.75490  0.14690  Biso   1.000  H
  H260     1.0000 0.90080  0.75490  0.35310  Biso   1.000  H
  H261     1.0000 0.40080  0.74510  0.85310  Biso   1.000  H
  H262     1.0000 0.59920  0.74510  0.64690  Biso   1.000  H
  H263     1.0000 0.90080  0.24510  0.85310  Biso   1.000  H
  H264     1.0000 0.09920  0.24510  0.64690  Biso   1.000  H
  C265     1.0000 0.55200  0.04120  0.18310  Biso   1.000  C
  C266     1.0000 0.44800  0.04120  0.31690  Biso   1.000  C
  C267     1.0000 0.05200  0.54120  0.18310  Biso   1.000  C
  C268     1.0000 0.94800  0.54120  0.31690  Biso   1.000  C
  C269     1.0000 0.44800  0.95880  0.81690  Biso   1.000  C
  C270     1.0000 0.55200  0.95880  0.68310  Biso   1.000  C
  C271     1.0000 0.94800  0.45880  0.81690  Biso   1.000  C
  C272     1.0000 0.05200  0.45880  0.68310  Biso   1.000  C
  H265     1.0000 0.53930  0.98610  0.19460  Biso   1.000  H
  H266     1.0000 0.46070  0.98610  0.30540  Biso   1.000  H
  H267     1.0000 0.03930  0.48610  0.19460  Biso   1.000  H
  H268     1.0000 0.96070  0.48610  0.30540  Biso   1.000  H
  H269     1.0000 0.46070  0.01390  0.80540  Biso   1.000  H
  H270     1.0000 0.53930  0.01390  0.69460  Biso   1.000  H
  H271     1.0000 0.96070  0.51390  0.80540  Biso   1.000  H
  H272     1.0000 0.03930  0.51390  0.69460  Biso   1.000  H
  Cl9      1.0000 0.56439  0.09780  0.87250  Biso   1.000  Cl
  Cl10     1.0000 0.43561  0.09780  0.62750  Biso   1.000  Cl
  Cl11     1.0000 0.06439  0.59780  0.87250  Biso   1.000  Cl
  Cl12     1.0000 0.93561  0.59780  0.62750  Biso   1.000  Cl
  Cl13     1.0000 0.43561  0.90220  0.12750  Biso   1.000  Cl
  Cl14     1.0000 0.56439  0.90220  0.37250  Biso   1.000  Cl
  Cl15     1.0000 0.93561  0.40220  0.12750  Biso   1.000  Cl
  Cl16     1.0000 0.06439  0.40220  0.37250  Biso   1.000  Cl
  O57      1.0000 0.59890  0.03140  0.92070  Biso   1.000  O
  O58      1.0000 0.40110  0.03140  0.57930  Biso   1.000  O
  O59      1.0000 0.09890  0.53140  0.92070  Biso   1.000  O
  O60      1.0000 0.90110  0.53140  0.57930  Biso   1.000  O
  O61      1.0000 0.40110  0.96860  0.07930  Biso   1.000  O
  O62      1.0000 0.59890  0.96860  0.42070  Biso   1.000  O
  O63      1.0000 0.90110  0.46860  0.07930  Biso   1.000  O
  O64      1.0000 0.09890  0.46860  0.42070  Biso   1.000  O
  O65      1.0000 0.57100  0.06550  0.79860  Biso   1.000  O
  O66      1.0000 0.42900  0.06550  0.70140  Biso   1.000  O
  O67      1.0000 0.07100  0.56550  0.79860  Biso   1.000  O
  O68      1.0000 0.92900  0.56550  0.70140  Biso   1.000  O
  O69      1.0000 0.42900  0.93450  0.20140  Biso   1.000  O
  O70      1.0000 0.57100  0.93450  0.29860  Biso   1.000  O
  O71      1.0000 0.92900  0.43450  0.20140  Biso   1.000  O
  O72      1.0000 0.07100  0.43450  0.29860  Biso   1.000  O
  O73      1.0000 0.58300  0.18000  0.92280  Biso   1.000  O
  O74      1.0000 0.41700  0.18000  0.57720  Biso   1.000  O
  O75      1.0000 0.08300  0.68000  0.92280  Biso   1.000  O
  O76      1.0000 0.91700  0.68000  0.57720  Biso   1.000  O
  O77      1.0000 0.41700  0.82000  0.07720  Biso   1.000  O
  O78      1.0000 0.58300  0.82000  0.42280  Biso   1.000  O
  O79      1.0000 0.91700  0.32000  0.07720  Biso   1.000  O
  O80      1.0000 0.08300  0.32000  0.42280  Biso   1.000  O
  C273     1.0000 0.92550  0.39930  0.47730  Biso   1.000  C
  C274     1.0000 0.07450  0.39930  0.02270  Biso   1.000  C
  C275     1.0000 0.42550  0.89930  0.47730  Biso   1.000  C
  C276     1.0000 0.57450  0.89930  0.02270  Biso   1.000  C
  C277     1.0000 0.07450  0.60070  0.52270  Biso   1.000  C
  C278     1.0000 0.92550  0.60070  0.97730  Biso   1.000  C
  C279     1.0000 0.57450  0.10070  0.52270  Biso   1.000  C
  C280     1.0000 0.42550  0.10070  0.97730  Biso   1.000  C
  H273     1.0000 0.91720  0.45930  0.49140  Biso   1.000  H
  H274     1.0000 0.08280  0.45930  0.00860  Biso   1.000  H
  H275     1.0000 0.41720  0.95930  0.49140  Biso   1.000  H
  H276     1.0000 0.58280  0.95930  0.00860  Biso   1.000  H
  H277     1.0000 0.08280  0.54070  0.50860  Biso   1.000  H
  H278     1.0000 0.91720  0.54070  0.99140  Biso   1.000  H
  H279     1.0000 0.58280  0.04070  0.50860  Biso   1.000  H
  H280     1.0000 0.41720  0.04070  0.99140  Biso   1.000  H
  C281     1.0000 0.90000  0.32050  0.45980  Biso   1.000  C
  C282     1.0000 0.10000  0.32050  0.04020  Biso   1.000  C
  C283     1.0000 0.40000  0.82050  0.45980  Biso   1.000  C
  C284     1.0000 0.60000  0.82050  0.04020  Biso   1.000  C
  C285     1.0000 0.10000  0.67950  0.54020  Biso   1.000  C
  C286     1.0000 0.90000  0.67950  0.95980  Biso   1.000  C
  C287     1.0000 0.60000  0.17950  0.54020  Biso   1.000  C
  C288     1.0000 0.40000  0.17950  0.95980  Biso   1.000  C
  H281     1.0000 0.87510  0.32560  0.46750  Biso   1.000  H
  H282     1.0000 0.12490  0.32560  0.03250  Biso   1.000  H
  H283     1.0000 0.37510  0.82560  0.46750  Biso   1.000  H
  H284     1.0000 0.62490  0.82560  0.03250  Biso   1.000  H
  H285     1.0000 0.12490  0.67440  0.53250  Biso   1.000  H
  H286     1.0000 0.87510  0.67440  0.96750  Biso   1.000  H
  H287     1.0000 0.62490  0.17440  0.53250  Biso   1.000  H
  H288     1.0000 0.37510  0.17440  0.96750  Biso   1.000  H
  C289     1.0000 0.97210  0.30960  0.44970  Biso   1.000  C
  C290     1.0000 0.02790  0.30960  0.05030  Biso   1.000  C
  C291     1.0000 0.47210  0.80960  0.44970  Biso   1.000  C
  C292     1.0000 0.52790  0.80960  0.05030  Biso   1.000  C
  C293     1.0000 0.02790  0.69040  0.55030  Biso   1.000  C
  C294     1.0000 0.97210  0.69040  0.94970  Biso   1.000  C
  C295     1.0000 0.52790  0.19040  0.55030  Biso   1.000  C
  C296     1.0000 0.47210  0.19040  0.94970  Biso   1.000  C
  H289     1.0000 0.99770  0.30180  0.44640  Biso   1.000  H
  H290     1.0000 0.00230  0.30180  0.05360  Biso   1.000  H
  H291     1.0000 0.49770  0.80180  0.44640  Biso   1.000  H
  H292     1.0000 0.50230  0.80180  0.05360  Biso   1.000  H
  H293     1.0000 0.00230  0.69820  0.55360  Biso   1.000  H
  H294     1.0000 0.99770  0.69820  0.94640  Biso   1.000  H
  H295     1.0000 0.50230  0.19820  0.55360  Biso   1.000  H
  H296     1.0000 0.49770  0.19820  0.94640  Biso   1.000  H
  C297     1.0000 0.94720  0.23190  0.42710  Biso   1.000  C
  C298     1.0000 0.05280  0.23190  0.07290  Biso   1.000  C
  C299     1.0000 0.44720  0.73190  0.42710  Biso   1.000  C
  C300     1.0000 0.55280  0.73190  0.07290  Biso   1.000  C
  C301     1.0000 0.05280  0.76810  0.57290  Biso   1.000  C
  C302     1.0000 0.94720  0.76810  0.92710  Biso   1.000  C
  C303     1.0000 0.55280  0.26810  0.57290  Biso   1.000  C
  C304     1.0000 0.44720  0.26810  0.92710  Biso   1.000  C
  H297     1.0000 0.95560  0.17450  0.40800  Biso   1.000  H
  H298     1.0000 0.04440  0.17450  0.09200  Biso   1.000  H
  H299     1.0000 0.45560  0.67450  0.40800  Biso   1.000  H
  H300     1.0000 0.54440  0.67450  0.09200  Biso   1.000  H
  H301     1.0000 0.04440  0.82550  0.59200  Biso   1.000  H
  H302     1.0000 0.95560  0.82550  0.90800  Biso   1.000  H
  H303     1.0000 0.54440  0.32550  0.59200  Biso   1.000  H
  H304     1.0000 0.45560  0.32550  0.90800  Biso   1.000  H
