data_image0
_cell_length_a       29.5532
_cell_length_b       29.5532
_cell_length_c       36.1951
_cell_angle_alpha    90
_cell_angle_beta     90
_cell_angle_gamma    120

_symmetry_space_group_name_H-M    "P 1"
_symmetry_int_tables_number       1

loop_
  _symmetry_equiv_pos_as_xyz
  'x, y, z'

loop_
  _atom_site_label
  _atom_site_occupancy
  _atom_site_fract_x
  _atom_site_fract_y
  _atom_site_fract_z
  _atom_site_thermal_displace_type
  _atom_site_B_iso_or_equiv
  _atom_site_type_symbol
  Cl1      1.0000 0.00000  0.00000  0.00000  Biso   1.000  Cl
  Cl2      1.0000 0.66667  0.33333  0.33333  Biso   1.000  Cl
  Cl3      1.0000 0.33333  0.66667  0.66667  Biso   1.000  Cl
  N1       1.0000 0.77290  0.88940  0.06010  Biso   1.000  N
  N2       1.0000 0.11060  0.88350  0.06010  Biso   1.000  N
  N3       1.0000 0.11650  0.22710  0.06010  Biso   1.000  N
  N4       1.0000 0.43957  0.22273  0.39343  Biso   1.000  N
  N5       1.0000 0.77727  0.21683  0.39343  Biso   1.000  N
  N6       1.0000 0.78317  0.56043  0.39343  Biso   1.000  N
  N7       1.0000 0.10623  0.55607  0.72677  Biso   1.000  N
  N8       1.0000 0.44393  0.55017  0.72677  Biso   1.000  N
  N9       1.0000 0.44983  0.89377  0.72677  Biso   1.000  N
  N10      1.0000 0.22710  0.11060  0.93990  Biso   1.000  N
  N11      1.0000 0.88940  0.11650  0.93990  Biso   1.000  N
  N12      1.0000 0.88350  0.77290  0.93990  Biso   1.000  N
  N13      1.0000 0.89377  0.44393  0.27323  Biso   1.000  N
  N14      1.0000 0.55607  0.44983  0.27323  Biso   1.000  N
  N15      1.0000 0.55017  0.10623  0.27323  Biso   1.000  N
  N16      1.0000 0.56043  0.77727  0.60657  Biso   1.000  N
  N17      1.0000 0.22273  0.78317  0.60657  Biso   1.000  N
  N18      1.0000 0.21683  0.43957  0.60657  Biso   1.000  N
  O1       1.0000 0.75050  0.86830  0.01890  Biso   1.000  O
  O2       1.0000 0.13170  0.88220  0.01890  Biso   1.000  O
  O3       1.0000 0.11780  0.24950  0.01890  Biso   1.000  O
  O4       1.0000 0.41717  0.20163  0.35223  Biso   1.000  O
  O5       1.0000 0.79837  0.21553  0.35223  Biso   1.000  O
  O6       1.0000 0.78447  0.58283  0.35223  Biso   1.000  O
  O7       1.0000 0.08383  0.53497  0.68557  Biso   1.000  O
  O8       1.0000 0.46503  0.54887  0.68557  Biso   1.000  O
  O9       1.0000 0.45113  0.91617  0.68557  Biso   1.000  O
  O10      1.0000 0.24950  0.13170  0.98110  Biso   1.000  O
  O11      1.0000 0.86830  0.11780  0.98110  Biso   1.000  O
  O12      1.0000 0.88220  0.75050  0.98110  Biso   1.000  O
  O13      1.0000 0.91617  0.46503  0.31443  Biso   1.000  O
  O14      1.0000 0.53497  0.45113  0.31443  Biso   1.000  O
  O15      1.0000 0.54887  0.08383  0.31443  Biso   1.000  O
  O16      1.0000 0.58283  0.79837  0.64777  Biso   1.000  O
  O17      1.0000 0.20163  0.78447  0.64777  Biso   1.000  O
  O18      1.0000 0.21553  0.41717  0.64777  Biso   1.000  O
  O19      1.0000 0.77660  0.84760  0.07560  Biso   1.000  O
  O20      1.0000 0.15240  0.92900  0.07560  Biso   1.000  O
  O21      1.0000 0.07100  0.22340  0.07560  Biso   1.000  O
  O22      1.0000 0.44327  0.18093  0.40893  Biso   1.000  O
  O23      1.0000 0.81907  0.26233  0.40893  Biso   1.000  O
  O24      1.0000 0.73767  0.55673  0.40893  Biso   1.000  O
  O25      1.0000 0.10993  0.51427  0.74227  Biso   1.000  O
  O26      1.0000 0.48573  0.59567  0.74227  Biso   1.000  O
  O27      1.0000 0.40433  0.89007  0.74227  Biso   1.000  O
  O28      1.0000 0.22340  0.15240  0.92440  Biso   1.000  O
  O29      1.0000 0.84760  0.07100  0.92440  Biso   1.000  O
  O30      1.0000 0.92900  0.77660  0.92440  Biso   1.000  O
  O31      1.0000 0.89007  0.48573  0.25773  Biso   1.000  O
  O32      1.0000 0.51427  0.40433  0.25773  Biso   1.000  O
  O33      1.0000 0.59567  0.10993  0.25773  Biso   1.000  O
  O34      1.0000 0.55673  0.81907  0.59107  Biso   1.000  O
  O35      1.0000 0.18093  0.73767  0.59107  Biso   1.000  O
  O36      1.0000 0.26233  0.44327  0.59107  Biso   1.000  O
  O37      1.0000 0.78020  0.93980  0.08160  Biso   1.000  O
  O38      1.0000 0.06020  0.84040  0.08160  Biso   1.000  O
  O39      1.0000 0.15960  0.21980  0.08160  Biso   1.000  O
  O40      1.0000 0.44687  0.27313  0.41493  Biso   1.000  O
  O41      1.0000 0.72687  0.17373  0.41493  Biso   1.000  O
  O42      1.0000 0.82627  0.55313  0.41493  Biso   1.000  O
  O43      1.0000 0.11353  0.60647  0.74827  Biso   1.000  O
  O44      1.0000 0.39353  0.50707  0.74827  Biso   1.000  O
  O45      1.0000 0.49293  0.88647  0.74827  Biso   1.000  O
  O46      1.0000 0.21980  0.06020  0.91840  Biso   1.000  O
  O47      1.0000 0.93980  0.15960  0.91840  Biso   1.000  O
  O48      1.0000 0.84040  0.78020  0.91840  Biso   1.000  O
  O49      1.0000 0.88647  0.39353  0.25173  Biso   1.000  O
  O50      1.0000 0.60647  0.49293  0.25173  Biso   1.000  O
  O51      1.0000 0.50707  0.11353  0.25173  Biso   1.000  O
  O52      1.0000 0.55313  0.72687  0.58507  Biso   1.000  O
  O53      1.0000 0.27313  0.82627  0.58507  Biso   1.000  O
  O54      1.0000 0.17373  0.44687  0.58507  Biso   1.000  O
  N19      1.0000 0.00000  0.00000  0.17330  Biso   1.000  N
  N20      1.0000 0.66667  0.33333  0.50663  Biso   1.000  N
  N21      1.0000 0.33333  0.66667  0.83997  Biso   1.000  N
  N22      1.0000 0.00000  0.00000  0.82670  Biso   1.000  N
  N23      1.0000 0.66667  0.33333  0.16003  Biso   1.000  N
  N24      1.0000 0.33333  0.66667  0.49337  Biso   1.000  N
  O55      1.0000 0.96440  0.94050  0.17330  Biso   1.000  O
  O56      1.0000 0.05950  0.02390  0.17330  Biso   1.000  O
  O57      1.0000 0.97610  0.03560  0.17330  Biso   1.000  O
  O58      1.0000 0.63107  0.27383  0.50663  Biso   1.000  O
  O59      1.0000 0.72617  0.35723  0.50663  Biso   1.000  O
  O60      1.0000 0.64277  0.36893  0.50663  Biso   1.000  O
  O61      1.0000 0.29773  0.60717  0.83997  Biso   1.000  O
  O62      1.0000 0.39283  0.69057  0.83997  Biso   1.000  O
  O63      1.0000 0.30943  0.70227  0.83997  Biso   1.000  O
  O64      1.0000 0.03560  0.05950  0.82670  Biso   1.000  O
  O65      1.0000 0.94050  0.97610  0.82670  Biso   1.000  O
  O66      1.0000 0.02390  0.96440  0.82670  Biso   1.000  O
  O67      1.0000 0.70227  0.39283  0.16003  Biso   1.000  O
  O68      1.0000 0.60717  0.30943  0.16003  Biso   1.000  O
  O69      1.0000 0.69057  0.29773  0.16003  Biso   1.000  O
  O70      1.0000 0.36893  0.72617  0.49337  Biso   1.000  O
  O71      1.0000 0.27383  0.64277  0.49337  Biso   1.000  O
  O72      1.0000 0.35723  0.63107  0.49337  Biso   1.000  O
  Gd1      1.0000 0.92011  0.84244  0.07872  Biso   1.000  Gd
  Gd2      1.0000 0.15756  0.07766  0.07872  Biso   1.000  Gd
  Gd3      1.0000 0.92234  0.07989  0.07872  Biso   1.000  Gd
  Gd4      1.0000 0.58677  0.17578  0.41206  Biso   1.000  Gd
  Gd5      1.0000 0.82422  0.41100  0.41206  Biso   1.000  Gd
  Gd6      1.0000 0.58900  0.41323  0.41206  Biso   1.000  Gd
  Gd7      1.0000 0.25344  0.50911  0.74539  Biso   1.000  Gd
  Gd8      1.0000 0.49089  0.74433  0.74539  Biso   1.000  Gd
  Gd9      1.0000 0.25567  0.74656  0.74539  Biso   1.000  Gd
  Gd10     1.0000 0.07989  0.15756  0.92128  Biso   1.000  Gd
  Gd11     1.0000 0.84244  0.92234  0.92128  Biso   1.000  Gd
  Gd12     1.0000 0.07766  0.92011  0.92128  Biso   1.000  Gd
  Gd13     1.0000 0.74656  0.49089  0.25461  Biso   1.000  Gd
  Gd14     1.0000 0.50911  0.25567  0.25461  Biso   1.000  Gd
  Gd15     1.0000 0.74433  0.25344  0.25461  Biso   1.000  Gd
  Gd16     1.0000 0.41323  0.82422  0.58794  Biso   1.000  Gd
  Gd17     1.0000 0.17578  0.58900  0.58794  Biso   1.000  Gd
  Gd18     1.0000 0.41100  0.58677  0.58794  Biso   1.000  Gd
  Cu1      1.0000 0.88591  0.88587  0.99981  Biso   1.000  Cu
  Cu2      1.0000 0.11413  0.00004  0.99981  Biso   1.000  Cu
  Cu3      1.0000 0.99996  0.11409  0.99981  Biso   1.000  Cu
  Cu4      1.0000 0.55258  0.21920  0.33314  Biso   1.000  Cu
  Cu5      1.0000 0.78080  0.33337  0.33314  Biso   1.000  Cu
  Cu6      1.0000 0.66663  0.44742  0.33314  Biso   1.000  Cu
  Cu7      1.0000 0.21924  0.55254  0.66648  Biso   1.000  Cu
  Cu8      1.0000 0.44746  0.66671  0.66648  Biso   1.000  Cu
  Cu9      1.0000 0.33329  0.78076  0.66648  Biso   1.000  Cu
  Cu10     1.0000 0.11409  0.11413  0.00019  Biso   1.000  Cu
  Cu11     1.0000 0.88587  0.99996  0.00019  Biso   1.000  Cu
  Cu12     1.0000 0.00004  0.88591  0.00019  Biso   1.000  Cu
  Cu13     1.0000 0.78076  0.44746  0.33352  Biso   1.000  Cu
  Cu14     1.0000 0.55254  0.33329  0.33352  Biso   1.000  Cu
  Cu15     1.0000 0.66671  0.21924  0.33352  Biso   1.000  Cu
  Cu16     1.0000 0.44742  0.78080  0.66686  Biso   1.000  Cu
  Cu17     1.0000 0.21920  0.66663  0.66686  Biso   1.000  Cu
  Cu18     1.0000 0.33337  0.55258  0.66686  Biso   1.000  Cu
  Cu19     1.0000 0.92386  0.96207  0.07585  Biso   1.000  Cu
  Cu20     1.0000 0.03793  0.96179  0.07585  Biso   1.000  Cu
  Cu21     1.0000 0.03821  0.07614  0.07585  Biso   1.000  Cu
  Cu22     1.0000 0.59053  0.29540  0.40918  Biso   1.000  Cu
  Cu23     1.0000 0.70460  0.29512  0.40918  Biso   1.000  Cu
  Cu24     1.0000 0.70488  0.40947  0.40918  Biso   1.000  Cu
  Cu25     1.0000 0.25719  0.62874  0.74252  Biso   1.000  Cu
  Cu26     1.0000 0.37126  0.62846  0.74252  Biso   1.000  Cu
  Cu27     1.0000 0.37154  0.74281  0.74252  Biso   1.000  Cu
  Cu28     1.0000 0.07614  0.03793  0.92415  Biso   1.000  Cu
  Cu29     1.0000 0.96207  0.03821  0.92415  Biso   1.000  Cu
  Cu30     1.0000 0.96179  0.92386  0.92415  Biso   1.000  Cu
  Cu31     1.0000 0.74281  0.37126  0.25748  Biso   1.000  Cu
  Cu32     1.0000 0.62874  0.37154  0.25748  Biso   1.000  Cu
  Cu33     1.0000 0.62846  0.25719  0.25748  Biso   1.000  Cu
  Cu34     1.0000 0.40947  0.70460  0.59082  Biso   1.000  Cu
  Cu35     1.0000 0.29540  0.70488  0.59082  Biso   1.000  Cu
  Cu36     1.0000 0.29512  0.59053  0.59082  Biso   1.000  Cu
  Cu37     1.0000 0.80401  0.71788  0.08604  Biso   1.000  Cu
  Cu38     1.0000 0.28212  0.08613  0.08604  Biso   1.000  Cu
  Cu39     1.0000 0.91387  0.19599  0.08604  Biso   1.000  Cu
  Cu40     1.0000 0.47068  0.05121  0.41937  Biso   1.000  Cu
  Cu41     1.0000 0.94879  0.41946  0.41937  Biso   1.000  Cu
  Cu42     1.0000 0.58054  0.52932  0.41937  Biso   1.000  Cu
  Cu43     1.0000 0.13734  0.38455  0.75271  Biso   1.000  Cu
  Cu44     1.0000 0.61545  0.75280  0.75271  Biso   1.000  Cu
  Cu45     1.0000 0.24720  0.86266  0.75271  Biso   1.000  Cu
  Cu46     1.0000 0.19599  0.28212  0.91396  Biso   1.000  Cu
  Cu47     1.0000 0.71788  0.91387  0.91396  Biso   1.000  Cu
  Cu48     1.0000 0.08613  0.80401  0.91396  Biso   1.000  Cu
  Cu49     1.0000 0.86266  0.61545  0.24729  Biso   1.000  Cu
  Cu50     1.0000 0.38455  0.24720  0.24729  Biso   1.000  Cu
  Cu51     1.0000 0.75280  0.13734  0.24729  Biso   1.000  Cu
  Cu52     1.0000 0.52932  0.94879  0.58063  Biso   1.000  Cu
  Cu53     1.0000 0.05121  0.58054  0.58063  Biso   1.000  Cu
  Cu54     1.0000 0.41946  0.47068  0.58063  Biso   1.000  Cu
  Cu55     1.0000 0.83938  0.79080  0.15882  Biso   1.000  Cu
  Cu56     1.0000 0.20920  0.04858  0.15882  Biso   1.000  Cu
  Cu57     1.0000 0.95142  0.16062  0.15882  Biso   1.000  Cu
  Cu58     1.0000 0.50605  0.12413  0.49215  Biso   1.000  Cu
  Cu59     1.0000 0.87587  0.38191  0.49215  Biso   1.000  Cu
  Cu60     1.0000 0.61809  0.49395  0.49215  Biso   1.000  Cu
  Cu61     1.0000 0.17271  0.45747  0.82549  Biso   1.000  Cu
  Cu62     1.0000 0.54253  0.71525  0.82549  Biso   1.000  Cu
  Cu63     1.0000 0.28475  0.82729  0.82549  Biso   1.000  Cu
  Cu64     1.0000 0.16062  0.20920  0.84118  Biso   1.000  Cu
  Cu65     1.0000 0.79080  0.95142  0.84118  Biso   1.000  Cu
  Cu66     1.0000 0.04858  0.83938  0.84118  Biso   1.000  Cu
  Cu67     1.0000 0.82729  0.54253  0.17451  Biso   1.000  Cu
  Cu68     1.0000 0.45747  0.28475  0.17451  Biso   1.000  Cu
  Cu69     1.0000 0.71525  0.17271  0.17451  Biso   1.000  Cu
  Cu70     1.0000 0.49395  0.87587  0.50785  Biso   1.000  Cu
  Cu71     1.0000 0.12413  0.61809  0.50785  Biso   1.000  Cu
  Cu72     1.0000 0.38191  0.50605  0.50785  Biso   1.000  Cu
  Na1      1.0000 0.75239  0.61591  0.24710  Biso   1.000  Na
  Na2      1.0000 0.38409  0.13648  0.24710  Biso   1.000  Na
  Na3      1.0000 0.86352  0.24761  0.24710  Biso   1.000  Na
  Na4      1.0000 0.41906  0.94924  0.58043  Biso   1.000  Na
  Na5      1.0000 0.05076  0.46981  0.58043  Biso   1.000  Na
  Na6      1.0000 0.53019  0.58094  0.58043  Biso   1.000  Na
  Na7      1.0000 0.08572  0.28258  0.91377  Biso   1.000  Na
  Na8      1.0000 0.71742  0.80315  0.91377  Biso   1.000  Na
  Na9      1.0000 0.19685  0.91428  0.91377  Biso   1.000  Na
  Na10     1.0000 0.24761  0.38409  0.75290  Biso   1.000  Na
  Na11     1.0000 0.61591  0.86352  0.75290  Biso   1.000  Na
  Na12     1.0000 0.13648  0.75239  0.75290  Biso   1.000  Na
  Na13     1.0000 0.91428  0.71742  0.08623  Biso   1.000  Na
  Na14     1.0000 0.28258  0.19685  0.08623  Biso   1.000  Na
  Na15     1.0000 0.80315  0.08572  0.08623  Biso   1.000  Na
  Na16     1.0000 0.58094  0.05076  0.41957  Biso   1.000  Na
  Na17     1.0000 0.94924  0.53019  0.41957  Biso   1.000  Na
  Na18     1.0000 0.46981  0.41906  0.41957  Biso   1.000  Na
  Na19     1.0000 0.71628  0.54268  0.17324  Biso   1.000  Na
  Na20     1.0000 0.45732  0.17360  0.17324  Biso   1.000  Na
  Na21     1.0000 0.82640  0.28372  0.17324  Biso   1.000  Na
  Na22     1.0000 0.38295  0.87601  0.50657  Biso   1.000  Na
  Na23     1.0000 0.12399  0.50693  0.50657  Biso   1.000  Na
  Na24     1.0000 0.49307  0.61705  0.50657  Biso   1.000  Na
  Na25     1.0000 0.04961  0.20935  0.83991  Biso   1.000  Na
  Na26     1.0000 0.79065  0.84027  0.83991  Biso   1.000  Na
  Na27     1.0000 0.15973  0.95039  0.83991  Biso   1.000  Na
  Na28     1.0000 0.28372  0.45732  0.82676  Biso   1.000  Na
  Na29     1.0000 0.54268  0.82640  0.82676  Biso   1.000  Na
  Na30     1.0000 0.17360  0.71628  0.82676  Biso   1.000  Na
  Na31     1.0000 0.95039  0.79065  0.16009  Biso   1.000  Na
  Na32     1.0000 0.20935  0.15973  0.16009  Biso   1.000  Na
  Na33     1.0000 0.84027  0.04961  0.16009  Biso   1.000  Na
  Na34     1.0000 0.61705  0.12399  0.49343  Biso   1.000  Na
  Na35     1.0000 0.87601  0.49307  0.49343  Biso   1.000  Na
  Na36     1.0000 0.50693  0.38295  0.49343  Biso   1.000  Na
  N25      1.0000 0.80930  0.82570  0.19140  Biso   1.000  N
  N26      1.0000 0.17430  0.98360  0.19140  Biso   1.000  N
  N27      1.0000 0.01640  0.19070  0.19140  Biso   1.000  N
  N28      1.0000 0.47597  0.15903  0.52473  Biso   1.000  N
  N29      1.0000 0.84097  0.31693  0.52473  Biso   1.000  N
  N30      1.0000 0.68307  0.52403  0.52473  Biso   1.000  N
  N31      1.0000 0.14263  0.49237  0.85807  Biso   1.000  N
  N32      1.0000 0.50763  0.65027  0.85807  Biso   1.000  N
  N33      1.0000 0.34973  0.85737  0.85807  Biso   1.000  N
  N34      1.0000 0.19070  0.17430  0.80860  Biso   1.000  N
  N35      1.0000 0.82570  0.01640  0.80860  Biso   1.000  N
  N36      1.0000 0.98360  0.80930  0.80860  Biso   1.000  N
  N37      1.0000 0.85737  0.50763  0.14193  Biso   1.000  N
  N38      1.0000 0.49237  0.34973  0.14193  Biso   1.000  N
  N39      1.0000 0.65027  0.14263  0.14193  Biso   1.000  N
  N40      1.0000 0.52403  0.84097  0.47527  Biso   1.000  N
  N41      1.0000 0.15903  0.68307  0.47527  Biso   1.000  N
  N42      1.0000 0.31693  0.47597  0.47527  Biso   1.000  N
  H1       1.0000 0.77750  0.81140  0.17890  Biso   1.000  H
  H2       1.0000 0.18860  0.96610  0.17890  Biso   1.000  H
  H3       1.0000 0.03390  0.22250  0.17890  Biso   1.000  H
  H4       1.0000 0.44417  0.14473  0.51223  Biso   1.000  H
  H5       1.0000 0.85527  0.29943  0.51223  Biso   1.000  H
  H6       1.0000 0.70057  0.55583  0.51223  Biso   1.000  H
  H7       1.0000 0.11083  0.47807  0.84557  Biso   1.000  H
  H8       1.0000 0.52193  0.63277  0.84557  Biso   1.000  H
  H9       1.0000 0.36723  0.88917  0.84557  Biso   1.000  H
  H10      1.0000 0.22250  0.18860  0.82110  Biso   1.000  H
  H11      1.0000 0.81140  0.03390  0.82110  Biso   1.000  H
  H12      1.0000 0.96610  0.77750  0.82110  Biso   1.000  H
  H13      1.0000 0.88917  0.52193  0.15443  Biso   1.000  H
  H14      1.0000 0.47807  0.36723  0.15443  Biso   1.000  H
  H15      1.0000 0.63277  0.11083  0.15443  Biso   1.000  H
  H16      1.0000 0.55583  0.85527  0.48777  Biso   1.000  H
  H17      1.0000 0.14473  0.70057  0.48777  Biso   1.000  H
  H18      1.0000 0.29943  0.44417  0.48777  Biso   1.000  H
  N43      1.0000 0.74370  0.68840  0.05280  Biso   1.000  N
  N44      1.0000 0.31160  0.05530  0.05280  Biso   1.000  N
  N45      1.0000 0.94470  0.25630  0.05280  Biso   1.000  N
  N46      1.0000 0.41037  0.02173  0.38613  Biso   1.000  N
  N47      1.0000 0.97827  0.38863  0.38613  Biso   1.000  N
  N48      1.0000 0.61137  0.58963  0.38613  Biso   1.000  N
  N49      1.0000 0.07703  0.35507  0.71947  Biso   1.000  N
  N50      1.0000 0.64493  0.72197  0.71947  Biso   1.000  N
  N51      1.0000 0.27803  0.92297  0.71947  Biso   1.000  N
  N52      1.0000 0.25630  0.31160  0.94720  Biso   1.000  N
  N53      1.0000 0.68840  0.94470  0.94720  Biso   1.000  N
  N54      1.0000 0.05530  0.74370  0.94720  Biso   1.000  N
  N55      1.0000 0.92297  0.64493  0.28053  Biso   1.000  N
  N56      1.0000 0.35507  0.27803  0.28053  Biso   1.000  N
  N57      1.0000 0.72197  0.07703  0.28053  Biso   1.000  N
  N58      1.0000 0.58963  0.97827  0.61387  Biso   1.000  N
  N59      1.0000 0.02173  0.61137  0.61387  Biso   1.000  N
  N60      1.0000 0.38863  0.41037  0.61387  Biso   1.000  N
  H19      1.0000 0.72260  0.69620  0.06740  Biso   1.000  H
  H20      1.0000 0.30380  0.02640  0.06740  Biso   1.000  H
  H21      1.0000 0.97360  0.27740  0.06740  Biso   1.000  H
  H22      1.0000 0.38927  0.02953  0.40073  Biso   1.000  H
  H23      1.0000 0.97047  0.35973  0.40073  Biso   1.000  H
  H24      1.0000 0.64027  0.61073  0.40073  Biso   1.000  H
  H25      1.0000 0.05593  0.36287  0.73407  Biso   1.000  H
  H26      1.0000 0.63713  0.69307  0.73407  Biso   1.000  H
  H27      1.0000 0.30693  0.94407  0.73407  Biso   1.000  H
  H28      1.0000 0.27740  0.30380  0.93260  Biso   1.000  H
  H29      1.0000 0.69620  0.97360  0.93260  Biso   1.000  H
  H30      1.0000 0.02640  0.72260  0.93260  Biso   1.000  H
  H31      1.0000 0.94407  0.63713  0.26593  Biso   1.000  H
  H32      1.0000 0.36287  0.30693  0.26593  Biso   1.000  H
  H33      1.0000 0.69307  0.05593  0.26593  Biso   1.000  H
  H34      1.0000 0.61073  0.97047  0.59927  Biso   1.000  H
  H35      1.0000 0.02953  0.64027  0.59927  Biso   1.000  H
  H36      1.0000 0.35973  0.38927  0.59927  Biso   1.000  H
  C1       1.0000 0.78710  0.74620  0.22230  Biso   1.000  C
  C2       1.0000 0.25380  0.04090  0.22230  Biso   1.000  C
  C3       1.0000 0.95910  0.21290  0.22230  Biso   1.000  C
  C4       1.0000 0.45377  0.07953  0.55563  Biso   1.000  C
  C5       1.0000 0.92047  0.37423  0.55563  Biso   1.000  C
  C6       1.0000 0.62577  0.54623  0.55563  Biso   1.000  C
  C7       1.0000 0.12043  0.41287  0.88897  Biso   1.000  C
  C8       1.0000 0.58713  0.70757  0.88897  Biso   1.000  C
  C9       1.0000 0.29243  0.87957  0.88897  Biso   1.000  C
  C10      1.0000 0.21290  0.25380  0.77770  Biso   1.000  C
  C11      1.0000 0.74620  0.95910  0.77770  Biso   1.000  C
  C12      1.0000 0.04090  0.78710  0.77770  Biso   1.000  C
  C13      1.0000 0.87957  0.58713  0.11103  Biso   1.000  C
  C14      1.0000 0.41287  0.29243  0.11103  Biso   1.000  C
  C15      1.0000 0.70757  0.12043  0.11103  Biso   1.000  C
  C16      1.0000 0.54623  0.92047  0.44437  Biso   1.000  C
  C17      1.0000 0.07953  0.62577  0.44437  Biso   1.000  C
  C18      1.0000 0.37423  0.45377  0.44437  Biso   1.000  C
  C19      1.0000 0.78630  0.80040  0.22660  Biso   1.000  C
  C20      1.0000 0.19960  0.98590  0.22660  Biso   1.000  C
  C21      1.0000 0.01410  0.21370  0.22660  Biso   1.000  C
  C22      1.0000 0.45297  0.13373  0.55993  Biso   1.000  C
  C23      1.0000 0.86627  0.31923  0.55993  Biso   1.000  C
  C24      1.0000 0.68077  0.54703  0.55993  Biso   1.000  C
  C25      1.0000 0.11963  0.46707  0.89327  Biso   1.000  C
  C26      1.0000 0.53293  0.65257  0.89327  Biso   1.000  C
  C27      1.0000 0.34743  0.88037  0.89327  Biso   1.000  C
  C28      1.0000 0.21370  0.19960  0.77340  Biso   1.000  C
  C29      1.0000 0.80040  0.01410  0.77340  Biso   1.000  C
  C30      1.0000 0.98590  0.78630  0.77340  Biso   1.000  C
  C31      1.0000 0.88037  0.53293  0.10673  Biso   1.000  C
  C32      1.0000 0.46707  0.34743  0.10673  Biso   1.000  C
  C33      1.0000 0.65257  0.11963  0.10673  Biso   1.000  C
  C34      1.0000 0.54703  0.86627  0.44007  Biso   1.000  C
  C35      1.0000 0.13373  0.68077  0.44007  Biso   1.000  C
  C36      1.0000 0.31923  0.45297  0.44007  Biso   1.000  C
  H37      1.0000 0.75030  0.79410  0.22950  Biso   1.000  H
  H38      1.0000 0.20590  0.95620  0.22950  Biso   1.000  H
  H39      1.0000 0.04380  0.24970  0.22950  Biso   1.000  H
  H40      1.0000 0.41697  0.12743  0.56283  Biso   1.000  H
  H41      1.0000 0.87257  0.28953  0.56283  Biso   1.000  H
  H42      1.0000 0.71047  0.58303  0.56283  Biso   1.000  H
  H43      1.0000 0.08363  0.46077  0.89617  Biso   1.000  H
  H44      1.0000 0.53923  0.62287  0.89617  Biso   1.000  H
  H45      1.0000 0.37713  0.91637  0.89617  Biso   1.000  H
  H46      1.0000 0.24970  0.20590  0.77050  Biso   1.000  H
  H47      1.0000 0.79410  0.04380  0.77050  Biso   1.000  H
  H48      1.0000 0.95620  0.75030  0.77050  Biso   1.000  H
  H49      1.0000 0.91637  0.53923  0.10383  Biso   1.000  H
  H50      1.0000 0.46077  0.37713  0.10383  Biso   1.000  H
  H51      1.0000 0.62287  0.08363  0.10383  Biso   1.000  H
  H52      1.0000 0.58303  0.87257  0.43717  Biso   1.000  H
  H53      1.0000 0.12743  0.71047  0.43717  Biso   1.000  H
  H54      1.0000 0.28953  0.41697  0.43717  Biso   1.000  H
  H55      1.0000 0.80780  0.82130  0.24780  Biso   1.000  H
  H56      1.0000 0.17870  0.98650  0.24780  Biso   1.000  H
  H57      1.0000 0.01350  0.19220  0.24780  Biso   1.000  H
  H58      1.0000 0.47447  0.15463  0.58113  Biso   1.000  H
  H59      1.0000 0.84537  0.31983  0.58113  Biso   1.000  H
  H60      1.0000 0.68017  0.52553  0.58113  Biso   1.000  H
  H61      1.0000 0.14113  0.48797  0.91447  Biso   1.000  H
  H62      1.0000 0.51203  0.65317  0.91447  Biso   1.000  H
  H63      1.0000 0.34683  0.85887  0.91447  Biso   1.000  H
  H64      1.0000 0.19220  0.17870  0.75220  Biso   1.000  H
  H65      1.0000 0.82130  0.01350  0.75220  Biso   1.000  H
  H66      1.0000 0.98650  0.80780  0.75220  Biso   1.000  H
  H67      1.0000 0.85887  0.51203  0.08553  Biso   1.000  H
  H68      1.0000 0.48797  0.34683  0.08553  Biso   1.000  H
  H69      1.0000 0.65317  0.14113  0.08553  Biso   1.000  H
  H70      1.0000 0.52553  0.84537  0.41887  Biso   1.000  H
  H71      1.0000 0.15463  0.68017  0.41887  Biso   1.000  H
  H72      1.0000 0.31983  0.47447  0.41887  Biso   1.000  H
  C37      1.0000 0.80770  0.90820  0.18950  Biso   1.000  C
  C38      1.0000 0.09180  0.89950  0.18950  Biso   1.000  C
  C39      1.0000 0.10050  0.19230  0.18950  Biso   1.000  C
  C40      1.0000 0.47437  0.24153  0.52283  Biso   1.000  C
  C41      1.0000 0.75847  0.23283  0.52283  Biso   1.000  C
  C42      1.0000 0.76717  0.52563  0.52283  Biso   1.000  C
  C43      1.0000 0.14103  0.57487  0.85617  Biso   1.000  C
  C44      1.0000 0.42513  0.56617  0.85617  Biso   1.000  C
  C45      1.0000 0.43383  0.85897  0.85617  Biso   1.000  C
  C46      1.0000 0.19230  0.09180  0.81050  Biso   1.000  C
  C47      1.0000 0.90820  0.10050  0.81050  Biso   1.000  C
  C48      1.0000 0.89950  0.80770  0.81050  Biso   1.000  C
  C49      1.0000 0.85897  0.42513  0.14383  Biso   1.000  C
  C50      1.0000 0.57487  0.43383  0.14383  Biso   1.000  C
  C51      1.0000 0.56617  0.14103  0.14383  Biso   1.000  C
  C52      1.0000 0.52563  0.75847  0.47717  Biso   1.000  C
  C53      1.0000 0.24153  0.76717  0.47717  Biso   1.000  C
  C54      1.0000 0.23283  0.47437  0.47717  Biso   1.000  C
  H73      1.0000 0.79060  0.89800  0.21370  Biso   1.000  H
  H74      1.0000 0.10200  0.89260  0.21370  Biso   1.000  H
  H75      1.0000 0.10740  0.20940  0.21370  Biso   1.000  H
  H76      1.0000 0.45727  0.23133  0.54703  Biso   1.000  H
  H77      1.0000 0.76867  0.22593  0.54703  Biso   1.000  H
  H78      1.0000 0.77407  0.54273  0.54703  Biso   1.000  H
  H79      1.0000 0.12393  0.56467  0.88037  Biso   1.000  H
  H80      1.0000 0.43533  0.55927  0.88037  Biso   1.000  H
  H81      1.0000 0.44073  0.87607  0.88037  Biso   1.000  H
  H82      1.0000 0.20940  0.10200  0.78630  Biso   1.000  H
  H83      1.0000 0.89800  0.10740  0.78630  Biso   1.000  H
  H84      1.0000 0.89260  0.79060  0.78630  Biso   1.000  H
  H85      1.0000 0.87607  0.43533  0.11963  Biso   1.000  H
  H86      1.0000 0.56467  0.44073  0.11963  Biso   1.000  H
  H87      1.0000 0.55927  0.12393  0.11963  Biso   1.000  H
  H88      1.0000 0.54273  0.76867  0.45297  Biso   1.000  H
  H89      1.0000 0.23133  0.77407  0.45297  Biso   1.000  H
  H90      1.0000 0.22593  0.45727  0.45297  Biso   1.000  H
  H91      1.0000 0.78240  0.90580  0.17100  Biso   1.000  H
  H92      1.0000 0.09420  0.87660  0.17100  Biso   1.000  H
  H93      1.0000 0.12340  0.21760  0.17100  Biso   1.000  H
  H94      1.0000 0.44907  0.23913  0.50433  Biso   1.000  H
  H95      1.0000 0.76087  0.20993  0.50433  Biso   1.000  H
  H96      1.0000 0.79007  0.55093  0.50433  Biso   1.000  H
  H97      1.0000 0.11573  0.57247  0.83767  Biso   1.000  H
  H98      1.0000 0.42753  0.54327  0.83767  Biso   1.000  H
  H99      1.0000 0.45673  0.88427  0.83767  Biso   1.000  H
  H100     1.0000 0.21760  0.09420  0.82900  Biso   1.000  H
  H101     1.0000 0.90580  0.12340  0.82900  Biso   1.000  H
  H102     1.0000 0.87660  0.78240  0.82900  Biso   1.000  H
  H103     1.0000 0.88427  0.42753  0.16233  Biso   1.000  H
  H104     1.0000 0.57247  0.45673  0.16233  Biso   1.000  H
  H105     1.0000 0.54327  0.11573  0.16233  Biso   1.000  H
  H106     1.0000 0.55093  0.76087  0.49567  Biso   1.000  H
  H107     1.0000 0.23913  0.79007  0.49567  Biso   1.000  H
  H108     1.0000 0.20993  0.44907  0.49567  Biso   1.000  H
  H109     1.0000 0.83690  0.94420  0.19070  Biso   1.000  H
  H110     1.0000 0.05580  0.89270  0.19070  Biso   1.000  H
  H111     1.0000 0.10730  0.16310  0.19070  Biso   1.000  H
  H112     1.0000 0.50357  0.27753  0.52403  Biso   1.000  H
  H113     1.0000 0.72247  0.22603  0.52403  Biso   1.000  H
  H114     1.0000 0.77397  0.49643  0.52403  Biso   1.000  H
  H115     1.0000 0.17023  0.61087  0.85737  Biso   1.000  H
  H116     1.0000 0.38913  0.55937  0.85737  Biso   1.000  H
  H117     1.0000 0.44063  0.82977  0.85737  Biso   1.000  H
  H118     1.0000 0.16310  0.05580  0.80930  Biso   1.000  H
  H119     1.0000 0.94420  0.10730  0.80930  Biso   1.000  H
  H120     1.0000 0.89270  0.83690  0.80930  Biso   1.000  H
  H121     1.0000 0.82977  0.38913  0.14263  Biso   1.000  H
  H122     1.0000 0.61087  0.44063  0.14263  Biso   1.000  H
  H123     1.0000 0.55937  0.17023  0.14263  Biso   1.000  H
  H124     1.0000 0.49643  0.72247  0.47597  Biso   1.000  H
  H125     1.0000 0.27753  0.77397  0.47597  Biso   1.000  H
  H126     1.0000 0.22603  0.50357  0.47597  Biso   1.000  H
  C55      1.0000 0.82610  0.87540  0.18000  Biso   1.000  C
  C56      1.0000 0.12460  0.95070  0.18000  Biso   1.000  C
  C57      1.0000 0.04930  0.17390  0.18000  Biso   1.000  C
  C58      1.0000 0.49277  0.20873  0.51333  Biso   1.000  C
  C59      1.0000 0.79127  0.28403  0.51333  Biso   1.000  C
  C60      1.0000 0.71597  0.50723  0.51333  Biso   1.000  C
  C61      1.0000 0.15943  0.54207  0.84667  Biso   1.000  C
  C62      1.0000 0.45793  0.61737  0.84667  Biso   1.000  C
  C63      1.0000 0.38263  0.84057  0.84667  Biso   1.000  C
  C64      1.0000 0.17390  0.12460  0.82000  Biso   1.000  C
  C65      1.0000 0.87540  0.04930  0.82000  Biso   1.000  C
  C66      1.0000 0.95070  0.82610  0.82000  Biso   1.000  C
  C67      1.0000 0.84057  0.45793  0.15333  Biso   1.000  C
  C68      1.0000 0.54207  0.38263  0.15333  Biso   1.000  C
  C69      1.0000 0.61737  0.15943  0.15333  Biso   1.000  C
  C70      1.0000 0.50723  0.79127  0.48667  Biso   1.000  C
  C71      1.0000 0.20873  0.71597  0.48667  Biso   1.000  C
  C72      1.0000 0.28403  0.49277  0.48667  Biso   1.000  C
  H127     1.0000 0.85840  0.89250  0.19560  Biso   1.000  H
  H128     1.0000 0.10750  0.96590  0.19560  Biso   1.000  H
  H129     1.0000 0.03410  0.14160  0.19560  Biso   1.000  H
  H130     1.0000 0.52507  0.22583  0.52893  Biso   1.000  H
  H131     1.0000 0.77417  0.29923  0.52893  Biso   1.000  H
  H132     1.0000 0.70077  0.47493  0.52893  Biso   1.000  H
  H133     1.0000 0.19173  0.55917  0.86227  Biso   1.000  H
  H134     1.0000 0.44083  0.63257  0.86227  Biso   1.000  H
  H135     1.0000 0.36743  0.80827  0.86227  Biso   1.000  H
  H136     1.0000 0.14160  0.10750  0.80440  Biso   1.000  H
  H137     1.0000 0.89250  0.03410  0.80440  Biso   1.000  H
  H138     1.0000 0.96590  0.85840  0.80440  Biso   1.000  H
  H139     1.0000 0.80827  0.44083  0.13773  Biso   1.000  H
  H140     1.0000 0.55917  0.36743  0.13773  Biso   1.000  H
  H141     1.0000 0.63257  0.19173  0.13773  Biso   1.000  H
  H142     1.0000 0.47493  0.77417  0.47107  Biso   1.000  H
  H143     1.0000 0.22583  0.70077  0.47107  Biso   1.000  H
  H144     1.0000 0.29923  0.52507  0.47107  Biso   1.000  H
  C73      1.0000 0.85500  0.88600  0.14130  Biso   1.000  C
  C74      1.0000 0.11400  0.96900  0.14130  Biso   1.000  C
  C75      1.0000 0.03100  0.14500  0.14130  Biso   1.000  C
  C76      1.0000 0.52167  0.21933  0.47463  Biso   1.000  C
  C77      1.0000 0.78067  0.30233  0.47463  Biso   1.000  C
  C78      1.0000 0.69767  0.47833  0.47463  Biso   1.000  C
  C79      1.0000 0.18833  0.55267  0.80797  Biso   1.000  C
  C80      1.0000 0.44733  0.63567  0.80797  Biso   1.000  C
  C81      1.0000 0.36433  0.81167  0.80797  Biso   1.000  C
  C82      1.0000 0.14500  0.11400  0.85870  Biso   1.000  C
  C83      1.0000 0.88600  0.03100  0.85870  Biso   1.000  C
  C84      1.0000 0.96900  0.85500  0.85870  Biso   1.000  C
  C85      1.0000 0.81167  0.44733  0.19203  Biso   1.000  C
  C86      1.0000 0.55267  0.36433  0.19203  Biso   1.000  C
  C87      1.0000 0.63567  0.18833  0.19203  Biso   1.000  C
  C88      1.0000 0.47833  0.78067  0.52537  Biso   1.000  C
  C89      1.0000 0.21933  0.69767  0.52537  Biso   1.000  C
  C90      1.0000 0.30233  0.52167  0.52537  Biso   1.000  C
  C91      1.0000 0.72600  0.61650  0.09280  Biso   1.000  C
  C92      1.0000 0.38350  0.10950  0.09280  Biso   1.000  C
  C93      1.0000 0.89050  0.27400  0.09280  Biso   1.000  C
  C94      1.0000 0.39267  0.94983  0.42613  Biso   1.000  C
  C95      1.0000 0.05017  0.44283  0.42613  Biso   1.000  C
  C96      1.0000 0.55717  0.60733  0.42613  Biso   1.000  C
  C97      1.0000 0.05933  0.28317  0.75947  Biso   1.000  C
  C98      1.0000 0.71683  0.77617  0.75947  Biso   1.000  C
  C99      1.0000 0.22383  0.94067  0.75947  Biso   1.000  C
  C100     1.0000 0.27400  0.38350  0.90720  Biso   1.000  C
  C101     1.0000 0.61650  0.89050  0.90720  Biso   1.000  C
  C102     1.0000 0.10950  0.72600  0.90720  Biso   1.000  C
  C103     1.0000 0.94067  0.71683  0.24053  Biso   1.000  C
  C104     1.0000 0.28317  0.22383  0.24053  Biso   1.000  C
  C105     1.0000 0.77617  0.05933  0.24053  Biso   1.000  C
  C106     1.0000 0.60733  0.05017  0.57387  Biso   1.000  C
  C107     1.0000 0.94983  0.55717  0.57387  Biso   1.000  C
  C108     1.0000 0.44283  0.39267  0.57387  Biso   1.000  C
  C109     1.0000 0.71300  0.63180  0.05710  Biso   1.000  C
  C110     1.0000 0.36820  0.08120  0.05710  Biso   1.000  C
  C111     1.0000 0.91880  0.28700  0.05710  Biso   1.000  C
  C112     1.0000 0.37967  0.96513  0.39043  Biso   1.000  C
  C113     1.0000 0.03487  0.41453  0.39043  Biso   1.000  C
  C114     1.0000 0.58547  0.62033  0.39043  Biso   1.000  C
  C115     1.0000 0.04633  0.29847  0.72377  Biso   1.000  C
  C116     1.0000 0.70153  0.74787  0.72377  Biso   1.000  C
  C117     1.0000 0.25213  0.95367  0.72377  Biso   1.000  C
  C118     1.0000 0.28700  0.36820  0.94290  Biso   1.000  C
  C119     1.0000 0.63180  0.91880  0.94290  Biso   1.000  C
  C120     1.0000 0.08120  0.71300  0.94290  Biso   1.000  C
  C121     1.0000 0.95367  0.70153  0.27623  Biso   1.000  C
  C122     1.0000 0.29847  0.25213  0.27623  Biso   1.000  C
  C123     1.0000 0.74787  0.04633  0.27623  Biso   1.000  C
  C124     1.0000 0.62033  0.03487  0.60957  Biso   1.000  C
  C125     1.0000 0.96513  0.58547  0.60957  Biso   1.000  C
  C126     1.0000 0.41453  0.37967  0.60957  Biso   1.000  C
  H145     1.0000 0.72070  0.61460  0.03650  Biso   1.000  H
  H146     1.0000 0.38540  0.10610  0.03650  Biso   1.000  H
  H147     1.0000 0.89390  0.27930  0.03650  Biso   1.000  H
  H148     1.0000 0.38737  0.94793  0.36983  Biso   1.000  H
  H149     1.0000 0.05207  0.43943  0.36983  Biso   1.000  H
  H150     1.0000 0.56057  0.61263  0.36983  Biso   1.000  H
  H151     1.0000 0.05403  0.28127  0.70317  Biso   1.000  H
  H152     1.0000 0.71873  0.77277  0.70317  Biso   1.000  H
  H153     1.0000 0.22723  0.94597  0.70317  Biso   1.000  H
  H154     1.0000 0.27930  0.38540  0.96350  Biso   1.000  H
  H155     1.0000 0.61460  0.89390  0.96350  Biso   1.000  H
  H156     1.0000 0.10610  0.72070  0.96350  Biso   1.000  H
  H157     1.0000 0.94597  0.71873  0.29683  Biso   1.000  H
  H158     1.0000 0.28127  0.22723  0.29683  Biso   1.000  H
  H159     1.0000 0.77277  0.05403  0.29683  Biso   1.000  H
  H160     1.0000 0.61263  0.05207  0.63017  Biso   1.000  H
  H161     1.0000 0.94793  0.56057  0.63017  Biso   1.000  H
  H162     1.0000 0.43943  0.38737  0.63017  Biso   1.000  H
  H163     1.0000 0.67530  0.62040  0.05640  Biso   1.000  H
  H164     1.0000 0.37960  0.05490  0.05640  Biso   1.000  H
  H165     1.0000 0.94510  0.32470  0.05640  Biso   1.000  H
  H166     1.0000 0.34197  0.95373  0.38973  Biso   1.000  H
  H167     1.0000 0.04627  0.38823  0.38973  Biso   1.000  H
  H168     1.0000 0.61177  0.65803  0.38973  Biso   1.000  H
  H169     1.0000 0.00863  0.28707  0.72307  Biso   1.000  H
  H170     1.0000 0.71293  0.72157  0.72307  Biso   1.000  H
  H171     1.0000 0.27843  0.99137  0.72307  Biso   1.000  H
  H172     1.0000 0.32470  0.37960  0.94360  Biso   1.000  H
  H173     1.0000 0.62040  0.94510  0.94360  Biso   1.000  H
  H174     1.0000 0.05490  0.67530  0.94360  Biso   1.000  H
  H175     1.0000 0.99137  0.71293  0.27693  Biso   1.000  H
  H176     1.0000 0.28707  0.27843  0.27693  Biso   1.000  H
  H177     1.0000 0.72157  0.00863  0.27693  Biso   1.000  H
  H178     1.0000 0.65803  0.04627  0.61027  Biso   1.000  H
  H179     1.0000 0.95373  0.61177  0.61027  Biso   1.000  H
  H180     1.0000 0.38823  0.34197  0.61027  Biso   1.000  H
  C127     1.0000 0.74850  0.71950  0.02480  Biso   1.000  C
  C128     1.0000 0.28050  0.02900  0.02480  Biso   1.000  C
  C129     1.0000 0.97100  0.25150  0.02480  Biso   1.000  C
  C130     1.0000 0.41517  0.05283  0.35813  Biso   1.000  C
  C131     1.0000 0.94717  0.36233  0.35813  Biso   1.000  C
  C132     1.0000 0.63767  0.58483  0.35813  Biso   1.000  C
  C133     1.0000 0.08183  0.38617  0.69147  Biso   1.000  C
  C134     1.0000 0.61383  0.69567  0.69147  Biso   1.000  C
  C135     1.0000 0.30433  0.91817  0.69147  Biso   1.000  C
  C136     1.0000 0.25150  0.28050  0.97520  Biso   1.000  C
  C137     1.0000 0.71950  0.97100  0.97520  Biso   1.000  C
  C138     1.0000 0.02900  0.74850  0.97520  Biso   1.000  C
  C139     1.0000 0.91817  0.61383  0.30853  Biso   1.000  C
  C140     1.0000 0.38617  0.30433  0.30853  Biso   1.000  C
  C141     1.0000 0.69567  0.08183  0.30853  Biso   1.000  C
  C142     1.0000 0.58483  0.94717  0.64187  Biso   1.000  C
  C143     1.0000 0.05283  0.63767  0.64187  Biso   1.000  C
  C144     1.0000 0.36233  0.41517  0.64187  Biso   1.000  C
  H181     1.0000 0.76090  0.70220  0.00700  Biso   1.000  H
  H182     1.0000 0.29780  0.05870  0.00700  Biso   1.000  H
  H183     1.0000 0.94130  0.23910  0.00700  Biso   1.000  H
  H184     1.0000 0.42757  0.03553  0.34033  Biso   1.000  H
  H185     1.0000 0.96447  0.39203  0.34033  Biso   1.000  H
  H186     1.0000 0.60797  0.57243  0.34033  Biso   1.000  H
  H187     1.0000 0.09423  0.36887  0.67367  Biso   1.000  H
  H188     1.0000 0.63113  0.72537  0.67367  Biso   1.000  H
  H189     1.0000 0.27463  0.90577  0.67367  Biso   1.000  H
  H190     1.0000 0.23910  0.29780  0.99300  Biso   1.000  H
  H191     1.0000 0.70220  0.94130  0.99300  Biso   1.000  H
  H192     1.0000 0.05870  0.76090  0.99300  Biso   1.000  H
  H193     1.0000 0.90577  0.63113  0.32633  Biso   1.000  H
  H194     1.0000 0.36887  0.27463  0.32633  Biso   1.000  H
  H195     1.0000 0.72537  0.09423  0.32633  Biso   1.000  H
  H196     1.0000 0.57243  0.96447  0.65967  Biso   1.000  H
  H197     1.0000 0.03553  0.60797  0.65967  Biso   1.000  H
  H198     1.0000 0.39203  0.42757  0.65967  Biso   1.000  H
  C145     1.0000 0.71290  0.72790  0.99490  Biso   1.000  C
  C146     1.0000 0.27210  0.98500  0.99490  Biso   1.000  C
  C147     1.0000 0.01500  0.28710  0.99490  Biso   1.000  C
  C148     1.0000 0.37957  0.06123  0.32823  Biso   1.000  C
  C149     1.0000 0.93877  0.31833  0.32823  Biso   1.000  C
  C150     1.0000 0.68167  0.62043  0.32823  Biso   1.000  C
  C151     1.0000 0.04623  0.39457  0.66157  Biso   1.000  C
  C152     1.0000 0.60543  0.65167  0.66157  Biso   1.000  C
  C153     1.0000 0.34833  0.95377  0.66157  Biso   1.000  C
  C154     1.0000 0.28710  0.27210  0.00510  Biso   1.000  C
  C155     1.0000 0.72790  0.01500  0.00510  Biso   1.000  C
  C156     1.0000 0.98500  0.71290  0.00510  Biso   1.000  C
  C157     1.0000 0.95377  0.60543  0.33843  Biso   1.000  C
  C158     1.0000 0.39457  0.34833  0.33843  Biso   1.000  C
  C159     1.0000 0.65167  0.04623  0.33843  Biso   1.000  C
  C160     1.0000 0.62043  0.93877  0.67177  Biso   1.000  C
  C161     1.0000 0.06123  0.68167  0.67177  Biso   1.000  C
  C162     1.0000 0.31833  0.37957  0.67177  Biso   1.000  C
  H199     1.0000 0.67940  0.69550  0.99220  Biso   1.000  H
  H200     1.0000 0.30450  0.98390  0.99220  Biso   1.000  H
  H201     1.0000 0.01610  0.32060  0.99220  Biso   1.000  H
  H202     1.0000 0.34607  0.02883  0.32553  Biso   1.000  H
  H203     1.0000 0.97117  0.31723  0.32553  Biso   1.000  H
  H204     1.0000 0.68277  0.65393  0.32553  Biso   1.000  H
  H205     1.0000 0.01273  0.36217  0.65887  Biso   1.000  H
  H206     1.0000 0.63783  0.65057  0.65887  Biso   1.000  H
  H207     1.0000 0.34943  0.98727  0.65887  Biso   1.000  H
  H208     1.0000 0.32060  0.30450  0.00780  Biso   1.000  H
  H209     1.0000 0.69550  0.01610  0.00780  Biso   1.000  H
  H210     1.0000 0.98390  0.67940  0.00780  Biso   1.000  H
  H211     1.0000 0.98727  0.63783  0.34113  Biso   1.000  H
  H212     1.0000 0.36217  0.34943  0.34113  Biso   1.000  H
  H213     1.0000 0.65057  0.01273  0.34113  Biso   1.000  H
  H214     1.0000 0.65393  0.97117  0.67447  Biso   1.000  H
  H215     1.0000 0.02883  0.68277  0.67447  Biso   1.000  H
  H216     1.0000 0.31723  0.34607  0.67447  Biso   1.000  H
  H217     1.0000 0.73100  0.73740  0.97100  Biso   1.000  H
  H218     1.0000 0.26260  0.99360  0.97100  Biso   1.000  H
  H219     1.0000 0.00640  0.26900  0.97100  Biso   1.000  H
  H220     1.0000 0.39767  0.07073  0.30433  Biso   1.000  H
  H221     1.0000 0.92927  0.32693  0.30433  Biso   1.000  H
  H222     1.0000 0.67307  0.60233  0.30433  Biso   1.000  H
  H223     1.0000 0.06433  0.40407  0.63767  Biso   1.000  H
  H224     1.0000 0.59593  0.66027  0.63767  Biso   1.000  H
  H225     1.0000 0.33973  0.93567  0.63767  Biso   1.000  H
  H226     1.0000 0.26900  0.26260  0.02900  Biso   1.000  H
  H227     1.0000 0.73740  0.00640  0.02900  Biso   1.000  H
  H228     1.0000 0.99360  0.73100  0.02900  Biso   1.000  H
  H229     1.0000 0.93567  0.59593  0.36233  Biso   1.000  H
  H230     1.0000 0.40407  0.33973  0.36233  Biso   1.000  H
  H231     1.0000 0.66027  0.06433  0.36233  Biso   1.000  H
  H232     1.0000 0.60233  0.92927  0.69567  Biso   1.000  H
  H233     1.0000 0.07073  0.67307  0.69567  Biso   1.000  H
  H234     1.0000 0.32693  0.39767  0.69567  Biso   1.000  H
  H235     1.0000 0.70680  0.75600  0.00320  Biso   1.000  H
  H236     1.0000 0.24400  0.95080  0.00320  Biso   1.000  H
  H237     1.0000 0.04920  0.29320  0.00320  Biso   1.000  H
  H238     1.0000 0.37347  0.08933  0.33653  Biso   1.000  H
  H239     1.0000 0.91067  0.28413  0.33653  Biso   1.000  H
  H240     1.0000 0.71587  0.62653  0.33653  Biso   1.000  H
  H241     1.0000 0.04013  0.42267  0.66987  Biso   1.000  H
  H242     1.0000 0.57733  0.61747  0.66987  Biso   1.000  H
  H243     1.0000 0.38253  0.95987  0.66987  Biso   1.000  H
  H244     1.0000 0.29320  0.24400  0.99680  Biso   1.000  H
  H245     1.0000 0.75600  0.04920  0.99680  Biso   1.000  H
  H246     1.0000 0.95080  0.70680  0.99680  Biso   1.000  H
  H247     1.0000 0.95987  0.57733  0.33013  Biso   1.000  H
  H248     1.0000 0.42267  0.38253  0.33013  Biso   1.000  H
  H249     1.0000 0.61747  0.04013  0.33013  Biso   1.000  H
  H250     1.0000 0.62653  0.91067  0.66347  Biso   1.000  H
  H251     1.0000 0.08933  0.71587  0.66347  Biso   1.000  H
  H252     1.0000 0.28413  0.37347  0.66347  Biso   1.000  H
  C163     1.0000 0.80100  0.77180  0.02540  Biso   1.000  C
  C164     1.0000 0.22820  0.02920  0.02540  Biso   1.000  C
  C165     1.0000 0.97080  0.19900  0.02540  Biso   1.000  C
  C166     1.0000 0.46767  0.10513  0.35873  Biso   1.000  C
  C167     1.0000 0.89487  0.36253  0.35873  Biso   1.000  C
  C168     1.0000 0.63747  0.53233  0.35873  Biso   1.000  C
  C169     1.0000 0.13433  0.43847  0.69207  Biso   1.000  C
  C170     1.0000 0.56153  0.69587  0.69207  Biso   1.000  C
  C171     1.0000 0.30413  0.86567  0.69207  Biso   1.000  C
  C172     1.0000 0.19900  0.22820  0.97460  Biso   1.000  C
  C173     1.0000 0.77180  0.97080  0.97460  Biso   1.000  C
  C174     1.0000 0.02920  0.80100  0.97460  Biso   1.000  C
  C175     1.0000 0.86567  0.56153  0.30793  Biso   1.000  C
  C176     1.0000 0.43847  0.30413  0.30793  Biso   1.000  C
  C177     1.0000 0.69587  0.13433  0.30793  Biso   1.000  C
  C178     1.0000 0.53233  0.89487  0.64127  Biso   1.000  C
  C179     1.0000 0.10513  0.63747  0.64127  Biso   1.000  C
  C180     1.0000 0.36253  0.46767  0.64127  Biso   1.000  C
  O73      1.0000 0.75860  0.71000  0.23800  Biso   1.000  O
  O74      1.0000 0.29000  0.04860  0.23800  Biso   1.000  O
  O75      1.0000 0.95140  0.24140  0.23800  Biso   1.000  O
  O76      1.0000 0.42527  0.04333  0.57133  Biso   1.000  O
  O77      1.0000 0.95667  0.38193  0.57133  Biso   1.000  O
  O78      1.0000 0.61807  0.57473  0.57133  Biso   1.000  O
  O79      1.0000 0.09193  0.37667  0.90467  Biso   1.000  O
  O80      1.0000 0.62333  0.71527  0.90467  Biso   1.000  O
  O81      1.0000 0.28473  0.90807  0.90467  Biso   1.000  O
  O82      1.0000 0.24140  0.29000  0.76200  Biso   1.000  O
  O83      1.0000 0.71000  0.95140  0.76200  Biso   1.000  O
  O84      1.0000 0.04860  0.75860  0.76200  Biso   1.000  O
  O85      1.0000 0.90807  0.62333  0.09533  Biso   1.000  O
  O86      1.0000 0.37667  0.28473  0.09533  Biso   1.000  O
  O87      1.0000 0.71527  0.09193  0.09533  Biso   1.000  O
  O88      1.0000 0.57473  0.95667  0.42867  Biso   1.000  O
  O89      1.0000 0.04333  0.61807  0.42867  Biso   1.000  O
  O90      1.0000 0.38193  0.42527  0.42867  Biso   1.000  O
  O91      1.0000 0.80610  0.73420  0.19420  Biso   1.000  O
  O92      1.0000 0.26580  0.07190  0.19420  Biso   1.000  O
  O93      1.0000 0.92810  0.19390  0.19420  Biso   1.000  O
  O94      1.0000 0.47277  0.06753  0.52753  Biso   1.000  O
  O95      1.0000 0.93247  0.40523  0.52753  Biso   1.000  O
  O96      1.0000 0.59477  0.52723  0.52753  Biso   1.000  O
  O97      1.0000 0.13943  0.40087  0.86087  Biso   1.000  O
  O98      1.0000 0.59913  0.73857  0.86087  Biso   1.000  O
  O99      1.0000 0.26143  0.86057  0.86087  Biso   1.000  O
  O100     1.0000 0.19390  0.26580  0.80580  Biso   1.000  O
  O101     1.0000 0.73420  0.92810  0.80580  Biso   1.000  O
  O102     1.0000 0.07190  0.80610  0.80580  Biso   1.000  O
  O103     1.0000 0.86057  0.59913  0.13913  Biso   1.000  O
  O104     1.0000 0.40087  0.26143  0.13913  Biso   1.000  O
  O105     1.0000 0.73857  0.13943  0.13913  Biso   1.000  O
  O106     1.0000 0.52723  0.93247  0.47247  Biso   1.000  O
  O107     1.0000 0.06753  0.59477  0.47247  Biso   1.000  O
  O108     1.0000 0.40523  0.47277  0.47247  Biso   1.000  O
  O109     1.0000 0.86924  0.85320  0.12874  Biso   1.000  O
  O110     1.0000 0.14680  0.01604  0.12874  Biso   1.000  O
  O111     1.0000 0.98396  0.13076  0.12874  Biso   1.000  O
  O112     1.0000 0.53591  0.18653  0.46207  Biso   1.000  O
  O113     1.0000 0.81347  0.34937  0.46207  Biso   1.000  O
  O114     1.0000 0.65063  0.46409  0.46207  Biso   1.000  O
  O115     1.0000 0.20257  0.51987  0.79541  Biso   1.000  O
  O116     1.0000 0.48013  0.68271  0.79541  Biso   1.000  O
  O117     1.0000 0.31729  0.79743  0.79541  Biso   1.000  O
  O118     1.0000 0.13076  0.14680  0.87126  Biso   1.000  O
  O119     1.0000 0.85320  0.98396  0.87126  Biso   1.000  O
  O120     1.0000 0.01604  0.86924  0.87126  Biso   1.000  O
  O121     1.0000 0.79743  0.48013  0.20459  Biso   1.000  O
  O122     1.0000 0.51987  0.31729  0.20459  Biso   1.000  O
  O123     1.0000 0.68271  0.20257  0.20459  Biso   1.000  O
  O124     1.0000 0.46409  0.81347  0.53793  Biso   1.000  O
  O125     1.0000 0.18653  0.65063  0.53793  Biso   1.000  O
  O126     1.0000 0.34937  0.53591  0.53793  Biso   1.000  O
  O127     1.0000 0.87206  0.93456  0.12805  Biso   1.000  O
  O128     1.0000 0.06544  0.93750  0.12805  Biso   1.000  O
  O129     1.0000 0.06250  0.12794  0.12805  Biso   1.000  O
  O130     1.0000 0.53873  0.26789  0.46138  Biso   1.000  O
  O131     1.0000 0.73211  0.27083  0.46138  Biso   1.000  O
  O132     1.0000 0.72917  0.46127  0.46138  Biso   1.000  O
  O133     1.0000 0.20539  0.60123  0.79472  Biso   1.000  O
  O134     1.0000 0.39877  0.60417  0.79472  Biso   1.000  O
  O135     1.0000 0.39583  0.79461  0.79472  Biso   1.000  O
  O136     1.0000 0.12794  0.06544  0.87195  Biso   1.000  O
  O137     1.0000 0.93456  0.06250  0.87195  Biso   1.000  O
  O138     1.0000 0.93750  0.87206  0.87195  Biso   1.000  O
  O139     1.0000 0.79461  0.39877  0.20528  Biso   1.000  O
  O140     1.0000 0.60123  0.39583  0.20528  Biso   1.000  O
  O141     1.0000 0.60417  0.20539  0.20528  Biso   1.000  O
  O142     1.0000 0.46127  0.73211  0.53862  Biso   1.000  O
  O143     1.0000 0.26789  0.72917  0.53862  Biso   1.000  O
  O144     1.0000 0.27083  0.53873  0.53862  Biso   1.000  O
  O145     1.0000 0.70640  0.57740  0.10590  Biso   1.000  O
  O146     1.0000 0.42260  0.12900  0.10590  Biso   1.000  O
  O147     1.0000 0.87100  0.29360  0.10590  Biso   1.000  O
  O148     1.0000 0.37307  0.91073  0.43923  Biso   1.000  O
  O149     1.0000 0.08927  0.46233  0.43923  Biso   1.000  O
  O150     1.0000 0.53767  0.62693  0.43923  Biso   1.000  O
  O151     1.0000 0.03973  0.24407  0.77257  Biso   1.000  O
  O152     1.0000 0.75593  0.79567  0.77257  Biso   1.000  O
  O153     1.0000 0.20433  0.96027  0.77257  Biso   1.000  O
  O154     1.0000 0.29360  0.42260  0.89410  Biso   1.000  O
  O155     1.0000 0.57740  0.87100  0.89410  Biso   1.000  O
  O156     1.0000 0.12900  0.70640  0.89410  Biso   1.000  O
  O157     1.0000 0.96027  0.75593  0.22743  Biso   1.000  O
  O158     1.0000 0.24407  0.20433  0.22743  Biso   1.000  O
  O159     1.0000 0.79567  0.03973  0.22743  Biso   1.000  O
  O160     1.0000 0.62693  0.08927  0.56077  Biso   1.000  O
  O161     1.0000 0.91073  0.53767  0.56077  Biso   1.000  O
  O162     1.0000 0.46233  0.37307  0.56077  Biso   1.000  O
  O163     1.0000 0.76820  0.65030  0.11220  Biso   1.000  O
  O164     1.0000 0.34970  0.11790  0.11220  Biso   1.000  O
  O165     1.0000 0.88210  0.23180  0.11220  Biso   1.000  O
  O166     1.0000 0.43487  0.98363  0.44553  Biso   1.000  O
  O167     1.0000 0.01637  0.45123  0.44553  Biso   1.000  O
  O168     1.0000 0.54877  0.56513  0.44553  Biso   1.000  O
  O169     1.0000 0.10153  0.31697  0.77887  Biso   1.000  O
  O170     1.0000 0.68303  0.78457  0.77887  Biso   1.000  O
  O171     1.0000 0.21543  0.89847  0.77887  Biso   1.000  O
  O172     1.0000 0.23180  0.34970  0.88780  Biso   1.000  O
  O173     1.0000 0.65030  0.88210  0.88780  Biso   1.000  O
  O174     1.0000 0.11790  0.76820  0.88780  Biso   1.000  O
  O175     1.0000 0.89847  0.68303  0.22113  Biso   1.000  O
  O176     1.0000 0.31697  0.21543  0.22113  Biso   1.000  O
  O177     1.0000 0.78457  0.10153  0.22113  Biso   1.000  O
  O178     1.0000 0.56513  0.01637  0.55447  Biso   1.000  O
  O179     1.0000 0.98363  0.54877  0.55447  Biso   1.000  O
  O180     1.0000 0.45123  0.43487  0.55447  Biso   1.000  O
  O181     1.0000 0.83295  0.77855  0.05451  Biso   1.000  O
  O182     1.0000 0.22145  0.05440  0.05451  Biso   1.000  O
  O183     1.0000 0.94560  0.16705  0.05451  Biso   1.000  O
  O184     1.0000 0.49962  0.11188  0.38784  Biso   1.000  O
  O185     1.0000 0.88812  0.38773  0.38784  Biso   1.000  O
  O186     1.0000 0.61227  0.50038  0.38784  Biso   1.000  O
  O187     1.0000 0.16628  0.44522  0.72118  Biso   1.000  O
  O188     1.0000 0.55478  0.72107  0.72118  Biso   1.000  O
  O189     1.0000 0.27893  0.83372  0.72118  Biso   1.000  O
  O190     1.0000 0.16705  0.22145  0.94549  Biso   1.000  O
  O191     1.0000 0.77855  0.94560  0.94549  Biso   1.000  O
  O192     1.0000 0.05440  0.83295  0.94549  Biso   1.000  O
  O193     1.0000 0.83372  0.55478  0.27882  Biso   1.000  O
  O194     1.0000 0.44522  0.27893  0.27882  Biso   1.000  O
  O195     1.0000 0.72107  0.16628  0.27882  Biso   1.000  O
  O196     1.0000 0.50038  0.88812  0.61216  Biso   1.000  O
  O197     1.0000 0.11188  0.61227  0.61216  Biso   1.000  O
  O198     1.0000 0.38773  0.49962  0.61216  Biso   1.000  O
  O199     1.0000 0.80854  0.80562  0.00062  Biso   1.000  O
  O200     1.0000 0.19438  0.00292  0.00062  Biso   1.000  O
  O201     1.0000 0.99708  0.19146  0.00062  Biso   1.000  O
  O202     1.0000 0.47521  0.13895  0.33395  Biso   1.000  O
  O203     1.0000 0.86105  0.33625  0.33395  Biso   1.000  O
  O204     1.0000 0.66375  0.52479  0.33395  Biso   1.000  O
  O205     1.0000 0.14187  0.47229  0.66729  Biso   1.000  O
  O206     1.0000 0.52771  0.66959  0.66729  Biso   1.000  O
  O207     1.0000 0.33041  0.85813  0.66729  Biso   1.000  O
  O208     1.0000 0.19146  0.19438  0.99938  Biso   1.000  O
  O209     1.0000 0.80562  0.99708  0.99938  Biso   1.000  O
  O210     1.0000 0.00292  0.80854  0.99938  Biso   1.000  O
  O211     1.0000 0.85813  0.52771  0.33271  Biso   1.000  O
  O212     1.0000 0.47229  0.33041  0.33271  Biso   1.000  O
  O213     1.0000 0.66959  0.14187  0.33271  Biso   1.000  O
  O214     1.0000 0.52479  0.86105  0.66605  Biso   1.000  O
  O215     1.0000 0.13895  0.66375  0.66605  Biso   1.000  O
  O216     1.0000 0.33625  0.47521  0.66605  Biso   1.000  O
  O217     1.0000 0.86940  0.76080  0.11930  Biso   1.000  O
  O218     1.0000 0.23920  0.10860  0.11930  Biso   1.000  O
  O219     1.0000 0.89140  0.13060  0.11930  Biso   1.000  O
  O220     1.0000 0.53607  0.09413  0.45263  Biso   1.000  O
  O221     1.0000 0.90587  0.44193  0.45263  Biso   1.000  O
  O222     1.0000 0.55807  0.46393  0.45263  Biso   1.000  O
  O223     1.0000 0.20273  0.42747  0.78597  Biso   1.000  O
  O224     1.0000 0.57253  0.77527  0.78597  Biso   1.000  O
  O225     1.0000 0.22473  0.79727  0.78597  Biso   1.000  O
  O226     1.0000 0.13060  0.23920  0.88070  Biso   1.000  O
  O227     1.0000 0.76080  0.89140  0.88070  Biso   1.000  O
  O228     1.0000 0.10860  0.86940  0.88070  Biso   1.000  O
  O229     1.0000 0.79727  0.57253  0.21403  Biso   1.000  O
  O230     1.0000 0.42747  0.22473  0.21403  Biso   1.000  O
  O231     1.0000 0.77527  0.20273  0.21403  Biso   1.000  O
  O232     1.0000 0.46393  0.90587  0.54737  Biso   1.000  O
  O233     1.0000 0.09413  0.55807  0.54737  Biso   1.000  O
  O234     1.0000 0.44193  0.53607  0.54737  Biso   1.000  O
  O235     1.0000 0.92486  0.85023  0.01132  Biso   1.000  O
  O236     1.0000 0.14977  0.07463  0.01132  Biso   1.000  O
  O237     1.0000 0.92537  0.07514  0.01132  Biso   1.000  O
  O238     1.0000 0.59153  0.18356  0.34465  Biso   1.000  O
  O239     1.0000 0.81644  0.40796  0.34465  Biso   1.000  O
  O240     1.0000 0.59204  0.40847  0.34465  Biso   1.000  O
  O241     1.0000 0.25819  0.51690  0.67799  Biso   1.000  O
  O242     1.0000 0.48310  0.74130  0.67799  Biso   1.000  O
  O243     1.0000 0.25870  0.74181  0.67799  Biso   1.000  O
  O244     1.0000 0.07514  0.14977  0.98868  Biso   1.000  O
  O245     1.0000 0.85023  0.92537  0.98868  Biso   1.000  O
  O246     1.0000 0.07463  0.92486  0.98868  Biso   1.000  O
  O247     1.0000 0.74181  0.48310  0.32201  Biso   1.000  O
  O248     1.0000 0.51690  0.25870  0.32201  Biso   1.000  O
  O249     1.0000 0.74130  0.25819  0.32201  Biso   1.000  O
  O250     1.0000 0.40847  0.81644  0.65535  Biso   1.000  O
  O251     1.0000 0.18356  0.59204  0.65535  Biso   1.000  O
  O252     1.0000 0.40796  0.59153  0.65535  Biso   1.000  O
  O253     1.0000 0.96762  0.93517  0.09590  Biso   1.000  O
  O254     1.0000 0.06483  0.03245  0.09590  Biso   1.000  O
  O255     1.0000 0.96755  0.03238  0.09590  Biso   1.000  O
  O256     1.0000 0.63429  0.26850  0.42923  Biso   1.000  O
  O257     1.0000 0.73150  0.36578  0.42923  Biso   1.000  O
  O258     1.0000 0.63422  0.36571  0.42923  Biso   1.000  O
  O259     1.0000 0.30095  0.60184  0.76257  Biso   1.000  O
  O260     1.0000 0.39816  0.69912  0.76257  Biso   1.000  O
  O261     1.0000 0.30088  0.69905  0.76257  Biso   1.000  O
  O262     1.0000 0.03238  0.06483  0.90410  Biso   1.000  O
  O263     1.0000 0.93517  0.96755  0.90410  Biso   1.000  O
  O264     1.0000 0.03245  0.96762  0.90410  Biso   1.000  O
  O265     1.0000 0.69905  0.39816  0.23743  Biso   1.000  O
  O266     1.0000 0.60184  0.30088  0.23743  Biso   1.000  O
  O267     1.0000 0.69912  0.30095  0.23743  Biso   1.000  O
  O268     1.0000 0.36571  0.73150  0.57077  Biso   1.000  O
  O269     1.0000 0.26850  0.63422  0.57077  Biso   1.000  O
  O270     1.0000 0.36578  0.63429  0.57077  Biso   1.000  O
  O271     1.0000 0.00990  0.89224  0.05391  Biso   1.000  O
  O272     1.0000 0.10776  0.11766  0.05391  Biso   1.000  O
  O273     1.0000 0.88234  0.99010  0.05391  Biso   1.000  O
  O274     1.0000 0.67657  0.22557  0.38724  Biso   1.000  O
  O275     1.0000 0.77443  0.45099  0.38724  Biso   1.000  O
  O276     1.0000 0.54901  0.32343  0.38724  Biso   1.000  O
  O277     1.0000 0.34323  0.55891  0.72058  Biso   1.000  O
  O278     1.0000 0.44109  0.78433  0.72058  Biso   1.000  O
  O279     1.0000 0.21567  0.65677  0.72058  Biso   1.000  O
  O280     1.0000 0.99010  0.10776  0.94609  Biso   1.000  O
  O281     1.0000 0.89224  0.88234  0.94609  Biso   1.000  O
  O282     1.0000 0.11766  0.00990  0.94609  Biso   1.000  O
  O283     1.0000 0.65677  0.44109  0.27942  Biso   1.000  O
  O284     1.0000 0.55891  0.21567  0.27942  Biso   1.000  O
  O285     1.0000 0.78433  0.34323  0.27942  Biso   1.000  O
  O286     1.0000 0.32343  0.77443  0.61276  Biso   1.000  O
  O287     1.0000 0.22557  0.54901  0.61276  Biso   1.000  O
  O288     1.0000 0.45099  0.67657  0.61276  Biso   1.000  O
  O289     1.0000 0.88303  0.89284  0.05360  Biso   1.000  O
  O290     1.0000 0.10716  0.99019  0.05360  Biso   1.000  O
  O291     1.0000 0.00981  0.11697  0.05360  Biso   1.000  O
  O292     1.0000 0.54970  0.22617  0.38693  Biso   1.000  O
  O293     1.0000 0.77383  0.32352  0.38693  Biso   1.000  O
  O294     1.0000 0.67648  0.45030  0.38693  Biso   1.000  O
  O295     1.0000 0.21636  0.55951  0.72027  Biso   1.000  O
  O296     1.0000 0.44049  0.65686  0.72027  Biso   1.000  O
  O297     1.0000 0.34314  0.78364  0.72027  Biso   1.000  O
  O298     1.0000 0.11697  0.10716  0.94640  Biso   1.000  O
  O299     1.0000 0.89284  0.00981  0.94640  Biso   1.000  O
  O300     1.0000 0.99019  0.88303  0.94640  Biso   1.000  O
  O301     1.0000 0.78364  0.44049  0.27973  Biso   1.000  O
  O302     1.0000 0.55951  0.34314  0.27973  Biso   1.000  O
  O303     1.0000 0.65686  0.21636  0.27973  Biso   1.000  O
  O304     1.0000 0.45030  0.77383  0.61307  Biso   1.000  O
  O305     1.0000 0.22617  0.67648  0.61307  Biso   1.000  O
  O306     1.0000 0.32352  0.54970  0.61307  Biso   1.000  O
  O307     1.0000 0.66590  0.57920  0.20710  Biso   1.000  O
  O308     1.0000 0.42080  0.08670  0.20710  Biso   1.000  O
  O309     1.0000 0.91330  0.33410  0.20710  Biso   1.000  O
  O310     1.0000 0.33257  0.91253  0.54043  Biso   1.000  O
  O311     1.0000 0.08747  0.42003  0.54043  Biso   1.000  O
  O312     1.0000 0.57997  0.66743  0.54043  Biso   1.000  O
  O313     1.0000 0.99923  0.24587  0.87377  Biso   1.000  O
  O314     1.0000 0.75413  0.75337  0.87377  Biso   1.000  O
  O315     1.0000 0.24663  0.00077  0.87377  Biso   1.000  O
  O316     1.0000 0.33410  0.42080  0.79290  Biso   1.000  O
  O317     1.0000 0.57920  0.91330  0.79290  Biso   1.000  O
  O318     1.0000 0.08670  0.66590  0.79290  Biso   1.000  O
  O319     1.0000 0.00077  0.75413  0.12623  Biso   1.000  O
  O320     1.0000 0.24587  0.24663  0.12623  Biso   1.000  O
  O321     1.0000 0.75337  0.99923  0.12623  Biso   1.000  O
  O322     1.0000 0.66743  0.08747  0.45957  Biso   1.000  O
  O323     1.0000 0.91253  0.57997  0.45957  Biso   1.000  O
  O324     1.0000 0.42003  0.33257  0.45957  Biso   1.000  O
  O325     1.0000 0.74660  0.50810  0.13600  Biso   1.000  O
  O326     1.0000 0.49190  0.23850  0.13600  Biso   1.000  O
  O327     1.0000 0.76150  0.25340  0.13600  Biso   1.000  O
  O328     1.0000 0.41327  0.84143  0.46933  Biso   1.000  O
  O329     1.0000 0.15857  0.57183  0.46933  Biso   1.000  O
  O330     1.0000 0.42817  0.58673  0.46933  Biso   1.000  O
  O331     1.0000 0.07993  0.17477  0.80267  Biso   1.000  O
  O332     1.0000 0.82523  0.90517  0.80267  Biso   1.000  O
  O333     1.0000 0.09483  0.92007  0.80267  Biso   1.000  O
  O334     1.0000 0.25340  0.49190  0.86400  Biso   1.000  O
  O335     1.0000 0.50810  0.76150  0.86400  Biso   1.000  O
  O336     1.0000 0.23850  0.74660  0.86400  Biso   1.000  O
  O337     1.0000 0.92007  0.82523  0.19733  Biso   1.000  O
  O338     1.0000 0.17477  0.09483  0.19733  Biso   1.000  O
  O339     1.0000 0.90517  0.07993  0.19733  Biso   1.000  O
  O340     1.0000 0.58673  0.15857  0.53067  Biso   1.000  O
  O341     1.0000 0.84143  0.42817  0.53067  Biso   1.000  O
  O342     1.0000 0.57183  0.41327  0.53067  Biso   1.000  O
  O343     1.0000 0.81610  0.65390  0.28250  Biso   1.000  O
  O344     1.0000 0.34610  0.16220  0.28250  Biso   1.000  O
  O345     1.0000 0.83780  0.18390  0.28250  Biso   1.000  O
  O346     1.0000 0.48277  0.98723  0.61583  Biso   1.000  O
  O347     1.0000 0.01277  0.49553  0.61583  Biso   1.000  O
  O348     1.0000 0.50447  0.51723  0.61583  Biso   1.000  O
  O349     1.0000 0.14943  0.32057  0.94917  Biso   1.000  O
  O350     1.0000 0.67943  0.82887  0.94917  Biso   1.000  O
  O351     1.0000 0.17113  0.85057  0.94917  Biso   1.000  O
  O352     1.0000 0.18390  0.34610  0.71750  Biso   1.000  O
  O353     1.0000 0.65390  0.83780  0.71750  Biso   1.000  O
  O354     1.0000 0.16220  0.81610  0.71750  Biso   1.000  O
  O355     1.0000 0.85057  0.67943  0.05083  Biso   1.000  O
  O356     1.0000 0.32057  0.17113  0.05083  Biso   1.000  O
  O357     1.0000 0.82887  0.14943  0.05083  Biso   1.000  O
  O358     1.0000 0.51723  0.01277  0.38417  Biso   1.000  O
  O359     1.0000 0.98723  0.50447  0.38417  Biso   1.000  O
  O360     1.0000 0.49553  0.48277  0.38417  Biso   1.000  O
  O361     1.0000 0.76420  0.62640  0.18850  Biso   1.000  O
  O362     1.0000 0.37360  0.13780  0.18850  Biso   1.000  O
  O363     1.0000 0.86220  0.23580  0.18850  Biso   1.000  O
  O364     1.0000 0.43087  0.95973  0.52183  Biso   1.000  O
  O365     1.0000 0.04027  0.47113  0.52183  Biso   1.000  O
  O366     1.0000 0.52887  0.56913  0.52183  Biso   1.000  O
  O367     1.0000 0.09753  0.29307  0.85517  Biso   1.000  O
  O368     1.0000 0.70693  0.80447  0.85517  Biso   1.000  O
  O369     1.0000 0.19553  0.90247  0.85517  Biso   1.000  O
  O370     1.0000 0.23580  0.37360  0.81150  Biso   1.000  O
  O371     1.0000 0.62640  0.86220  0.81150  Biso   1.000  O
  O372     1.0000 0.13780  0.76420  0.81150  Biso   1.000  O
  O373     1.0000 0.90247  0.70693  0.14483  Biso   1.000  O
  O374     1.0000 0.29307  0.19553  0.14483  Biso   1.000  O
  O375     1.0000 0.80447  0.09753  0.14483  Biso   1.000  O
  O376     1.0000 0.56913  0.04027  0.47817  Biso   1.000  O
  O377     1.0000 0.95973  0.52887  0.47817  Biso   1.000  O
  O378     1.0000 0.47113  0.43087  0.47817  Biso   1.000  O
  O379     1.0000 0.94130  0.77729  0.05764  Biso   1.000  O
  O380     1.0000 0.22271  0.16401  0.05764  Biso   1.000  O
  O381     1.0000 0.83599  0.05870  0.05764  Biso   1.000  O
  O382     1.0000 0.60797  0.11062  0.39097  Biso   1.000  O
  O383     1.0000 0.88938  0.49734  0.39097  Biso   1.000  O
  O384     1.0000 0.50266  0.39203  0.39097  Biso   1.000  O
  O385     1.0000 0.27463  0.44396  0.72431  Biso   1.000  O
  O386     1.0000 0.55604  0.83068  0.72431  Biso   1.000  O
  O387     1.0000 0.16932  0.72537  0.72431  Biso   1.000  O
  O388     1.0000 0.05870  0.22271  0.94236  Biso   1.000  O
  O389     1.0000 0.77729  0.83599  0.94236  Biso   1.000  O
  O390     1.0000 0.16401  0.94130  0.94236  Biso   1.000  O
  O391     1.0000 0.72537  0.55604  0.27569  Biso   1.000  O
  O392     1.0000 0.44396  0.16932  0.27569  Biso   1.000  O
  O393     1.0000 0.83068  0.27463  0.27569  Biso   1.000  O
  O394     1.0000 0.39203  0.88938  0.60903  Biso   1.000  O
  O395     1.0000 0.11062  0.50266  0.60903  Biso   1.000  O
  O396     1.0000 0.49734  0.60797  0.60903  Biso   1.000  O
  O397     1.0000 0.97770  0.85008  0.12960  Biso   1.000  O
  O398     1.0000 0.14992  0.12762  0.12960  Biso   1.000  O
  O399     1.0000 0.87238  0.02230  0.12960  Biso   1.000  O
  O400     1.0000 0.64437  0.18341  0.46293  Biso   1.000  O
  O401     1.0000 0.81659  0.46095  0.46293  Biso   1.000  O
  O402     1.0000 0.53905  0.35563  0.46293  Biso   1.000  O
  O403     1.0000 0.31103  0.51675  0.79627  Biso   1.000  O
  O404     1.0000 0.48325  0.79429  0.79627  Biso   1.000  O
  O405     1.0000 0.20571  0.68897  0.79627  Biso   1.000  O
  O406     1.0000 0.02230  0.14992  0.87040  Biso   1.000  O
  O407     1.0000 0.85008  0.87238  0.87040  Biso   1.000  O
  O408     1.0000 0.12762  0.97770  0.87040  Biso   1.000  O
  O409     1.0000 0.68897  0.48325  0.20373  Biso   1.000  O
  O410     1.0000 0.51675  0.20571  0.20373  Biso   1.000  O
  O411     1.0000 0.79429  0.31103  0.20373  Biso   1.000  O
  O412     1.0000 0.35563  0.81659  0.53707  Biso   1.000  O
  O413     1.0000 0.18341  0.53905  0.53707  Biso   1.000  O
  O414     1.0000 0.46095  0.64437  0.53707  Biso   1.000  O
  O415     1.0000 0.76310  0.75300  0.12090  Biso   1.000  O
  O416     1.0000 0.24700  0.01010  0.12090  Biso   1.000  O
  O417     1.0000 0.98990  0.23690  0.12090  Biso   1.000  O
  O418     1.0000 0.42977  0.08633  0.45423  Biso   1.000  O
  O419     1.0000 0.91367  0.34343  0.45423  Biso   1.000  O
  O420     1.0000 0.65657  0.57023  0.45423  Biso   1.000  O
  O421     1.0000 0.09643  0.41967  0.78757  Biso   1.000  O
  O422     1.0000 0.58033  0.67677  0.78757  Biso   1.000  O
  O423     1.0000 0.32323  0.90357  0.78757  Biso   1.000  O
  O424     1.0000 0.23690  0.24700  0.87910  Biso   1.000  O
  O425     1.0000 0.75300  0.98990  0.87910  Biso   1.000  O
  O426     1.0000 0.01010  0.76310  0.87910  Biso   1.000  O
  O427     1.0000 0.90357  0.58033  0.21243  Biso   1.000  O
  O428     1.0000 0.41967  0.32323  0.21243  Biso   1.000  O
  O429     1.0000 0.67677  0.09643  0.21243  Biso   1.000  O
  O430     1.0000 0.57023  0.91367  0.54577  Biso   1.000  O
  O431     1.0000 0.08633  0.65657  0.54577  Biso   1.000  O
  O432     1.0000 0.34343  0.42977  0.54577  Biso   1.000  O
