data_image0
_cell_length_a       29.4923
_cell_length_b       29.4923
_cell_length_c       36.1205
_cell_angle_alpha    90
_cell_angle_beta     90
_cell_angle_gamma    120

_symmetry_space_group_name_H-M    "P 1"
_symmetry_int_tables_number       1

loop_
  _symmetry_equiv_pos_as_xyz
  'x, y, z'

loop_
  _atom_site_label
  _atom_site_occupancy
  _atom_site_fract_x
  _atom_site_fract_y
  _atom_site_fract_z
  _atom_site_thermal_displace_type
  _atom_site_B_iso_or_equiv
  _atom_site_type_symbol
  Dy1      1.0000 0.91959  0.84295  0.07848  Biso   1.000  Dy
  Dy2      1.0000 0.15705  0.07664  0.07848  Biso   1.000  Dy
  Dy3      1.0000 0.92337  0.08041  0.07848  Biso   1.000  Dy
  Dy4      1.0000 0.58626  0.17629  0.41181  Biso   1.000  Dy
  Dy5      1.0000 0.82371  0.40997  0.41181  Biso   1.000  Dy
  Dy6      1.0000 0.59003  0.41374  0.41181  Biso   1.000  Dy
  Dy7      1.0000 0.25292  0.50962  0.74514  Biso   1.000  Dy
  Dy8      1.0000 0.49038  0.74330  0.74514  Biso   1.000  Dy
  Dy9      1.0000 0.25670  0.74708  0.74514  Biso   1.000  Dy
  Dy10     1.0000 0.08041  0.15705  0.92152  Biso   1.000  Dy
  Dy11     1.0000 0.84295  0.92336  0.92152  Biso   1.000  Dy
  Dy12     1.0000 0.07664  0.91959  0.92152  Biso   1.000  Dy
  Dy13     1.0000 0.74708  0.49038  0.25486  Biso   1.000  Dy
  Dy14     1.0000 0.50962  0.25670  0.25486  Biso   1.000  Dy
  Dy15     1.0000 0.74330  0.25292  0.25486  Biso   1.000  Dy
  Dy16     1.0000 0.41374  0.82371  0.58819  Biso   1.000  Dy
  Dy17     1.0000 0.17629  0.59003  0.58819  Biso   1.000  Dy
  Dy18     1.0000 0.40997  0.58626  0.58819  Biso   1.000  Dy
  Cu1      1.0000 0.83989  0.79097  0.15871  Biso   1.000  Cu
  Cu2      1.0000 0.20903  0.04892  0.15871  Biso   1.000  Cu
  Cu3      1.0000 0.95108  0.16011  0.15871  Biso   1.000  Cu
  Cu4      1.0000 0.50656  0.12430  0.49204  Biso   1.000  Cu
  Cu5      1.0000 0.87570  0.38225  0.49204  Biso   1.000  Cu
  Cu6      1.0000 0.61775  0.49344  0.49204  Biso   1.000  Cu
  Cu7      1.0000 0.17322  0.45764  0.82538  Biso   1.000  Cu
  Cu8      1.0000 0.54236  0.71559  0.82538  Biso   1.000  Cu
  Cu9      1.0000 0.28441  0.82678  0.82538  Biso   1.000  Cu
  Cu10     1.0000 0.16011  0.20903  0.84129  Biso   1.000  Cu
  Cu11     1.0000 0.79097  0.95108  0.84129  Biso   1.000  Cu
  Cu12     1.0000 0.04892  0.83989  0.84129  Biso   1.000  Cu
  Cu13     1.0000 0.82678  0.54236  0.17462  Biso   1.000  Cu
  Cu14     1.0000 0.45764  0.28441  0.17462  Biso   1.000  Cu
  Cu15     1.0000 0.71559  0.17322  0.17462  Biso   1.000  Cu
  Cu16     1.0000 0.49344  0.87570  0.50796  Biso   1.000  Cu
  Cu17     1.0000 0.12430  0.61775  0.50796  Biso   1.000  Cu
  Cu18     1.0000 0.38225  0.50656  0.50796  Biso   1.000  Cu
  Cu19     1.0000 0.80438  0.71830  0.08595  Biso   1.000  Cu
  Cu20     1.0000 0.28170  0.08608  0.08595  Biso   1.000  Cu
  Cu21     1.0000 0.91392  0.19562  0.08595  Biso   1.000  Cu
  Cu22     1.0000 0.47105  0.05163  0.41928  Biso   1.000  Cu
  Cu23     1.0000 0.94837  0.41941  0.41928  Biso   1.000  Cu
  Cu24     1.0000 0.58059  0.52895  0.41928  Biso   1.000  Cu
  Cu25     1.0000 0.13771  0.38497  0.75262  Biso   1.000  Cu
  Cu26     1.0000 0.61503  0.75275  0.75262  Biso   1.000  Cu
  Cu27     1.0000 0.24725  0.86229  0.75262  Biso   1.000  Cu
  Cu28     1.0000 0.19562  0.28170  0.91405  Biso   1.000  Cu
  Cu29     1.0000 0.71830  0.91392  0.91405  Biso   1.000  Cu
  Cu30     1.0000 0.08608  0.80438  0.91405  Biso   1.000  Cu
  Cu31     1.0000 0.86229  0.61503  0.24738  Biso   1.000  Cu
  Cu32     1.0000 0.38497  0.24725  0.24738  Biso   1.000  Cu
  Cu33     1.0000 0.75275  0.13771  0.24738  Biso   1.000  Cu
  Cu34     1.0000 0.52895  0.94837  0.58072  Biso   1.000  Cu
  Cu35     1.0000 0.05163  0.58059  0.58072  Biso   1.000  Cu
  Cu36     1.0000 0.41941  0.47105  0.58072  Biso   1.000  Cu
  Cu37     1.0000 0.92400  0.96234  0.07584  Biso   1.000  Cu
  Cu38     1.0000 0.03766  0.96166  0.07584  Biso   1.000  Cu
  Cu39     1.0000 0.03834  0.07600  0.07584  Biso   1.000  Cu
  Cu40     1.0000 0.59067  0.29567  0.40917  Biso   1.000  Cu
  Cu41     1.0000 0.70433  0.29499  0.40917  Biso   1.000  Cu
  Cu42     1.0000 0.70501  0.40933  0.40917  Biso   1.000  Cu
  Cu43     1.0000 0.25733  0.62901  0.74251  Biso   1.000  Cu
  Cu44     1.0000 0.37099  0.62833  0.74251  Biso   1.000  Cu
  Cu45     1.0000 0.37167  0.74267  0.74251  Biso   1.000  Cu
  Cu46     1.0000 0.07600  0.03766  0.92416  Biso   1.000  Cu
  Cu47     1.0000 0.96234  0.03834  0.92416  Biso   1.000  Cu
  Cu48     1.0000 0.96166  0.92400  0.92416  Biso   1.000  Cu
  Cu49     1.0000 0.74267  0.37099  0.25749  Biso   1.000  Cu
  Cu50     1.0000 0.62901  0.37167  0.25749  Biso   1.000  Cu
  Cu51     1.0000 0.62833  0.25733  0.25749  Biso   1.000  Cu
  Cu52     1.0000 0.40933  0.70433  0.59083  Biso   1.000  Cu
  Cu53     1.0000 0.29567  0.70501  0.59083  Biso   1.000  Cu
  Cu54     1.0000 0.29499  0.59067  0.59083  Biso   1.000  Cu
  Cu55     1.0000 0.88575  0.88574  0.99965  Biso   1.000  Cu
  Cu56     1.0000 0.11426  0.00001  0.99965  Biso   1.000  Cu
  Cu57     1.0000 0.99999  0.11425  0.99965  Biso   1.000  Cu
  Cu58     1.0000 0.55242  0.21907  0.33298  Biso   1.000  Cu
  Cu59     1.0000 0.78093  0.33334  0.33298  Biso   1.000  Cu
  Cu60     1.0000 0.66666  0.44758  0.33298  Biso   1.000  Cu
  Cu61     1.0000 0.21908  0.55241  0.66632  Biso   1.000  Cu
  Cu62     1.0000 0.44759  0.66668  0.66632  Biso   1.000  Cu
  Cu63     1.0000 0.33332  0.78092  0.66632  Biso   1.000  Cu
  Cu64     1.0000 0.11425  0.11426  0.00035  Biso   1.000  Cu
  Cu65     1.0000 0.88574  0.99999  0.00035  Biso   1.000  Cu
  Cu66     1.0000 0.00001  0.88575  0.00035  Biso   1.000  Cu
  Cu67     1.0000 0.78092  0.44759  0.33368  Biso   1.000  Cu
  Cu68     1.0000 0.55241  0.33332  0.33368  Biso   1.000  Cu
  Cu69     1.0000 0.66668  0.21908  0.33368  Biso   1.000  Cu
  Cu70     1.0000 0.44758  0.78093  0.66702  Biso   1.000  Cu
  Cu71     1.0000 0.21907  0.66666  0.66702  Biso   1.000  Cu
  Cu72     1.0000 0.33334  0.55242  0.66702  Biso   1.000  Cu
  Na1      1.0000 0.91371  0.71719  0.08638  Biso   1.000  Na
  Na2      1.0000 0.28281  0.19652  0.08638  Biso   1.000  Na
  Na3      1.0000 0.80348  0.08629  0.08638  Biso   1.000  Na
  Na4      1.0000 0.58038  0.05052  0.41971  Biso   1.000  Na
  Na5      1.0000 0.94948  0.52985  0.41971  Biso   1.000  Na
  Na6      1.0000 0.47015  0.41962  0.41971  Biso   1.000  Na
  Na7      1.0000 0.24704  0.38386  0.75305  Biso   1.000  Na
  Na8      1.0000 0.61614  0.86319  0.75305  Biso   1.000  Na
  Na9      1.0000 0.13681  0.75296  0.75305  Biso   1.000  Na
  Na10     1.0000 0.08629  0.28281  0.91362  Biso   1.000  Na
  Na11     1.0000 0.71719  0.80348  0.91362  Biso   1.000  Na
  Na12     1.0000 0.19652  0.91371  0.91362  Biso   1.000  Na
  Na13     1.0000 0.75296  0.61614  0.24695  Biso   1.000  Na
  Na14     1.0000 0.38386  0.13681  0.24695  Biso   1.000  Na
  Na15     1.0000 0.86319  0.24704  0.24695  Biso   1.000  Na
  Na16     1.0000 0.41962  0.94948  0.58029  Biso   1.000  Na
  Na17     1.0000 0.05052  0.47015  0.58029  Biso   1.000  Na
  Na18     1.0000 0.52985  0.58038  0.58029  Biso   1.000  Na
  Na19     1.0000 0.71690  0.54265  0.17278  Biso   1.000  Na
  Na20     1.0000 0.45735  0.17425  0.17278  Biso   1.000  Na
  Na21     1.0000 0.82575  0.28310  0.17278  Biso   1.000  Na
  Na22     1.0000 0.38357  0.87598  0.50611  Biso   1.000  Na
  Na23     1.0000 0.12402  0.50758  0.50611  Biso   1.000  Na
  Na24     1.0000 0.49242  0.61643  0.50611  Biso   1.000  Na
  Na25     1.0000 0.05023  0.20932  0.83945  Biso   1.000  Na
  Na26     1.0000 0.79068  0.84092  0.83945  Biso   1.000  Na
  Na27     1.0000 0.15908  0.94977  0.83945  Biso   1.000  Na
  Na28     1.0000 0.28310  0.45735  0.82722  Biso   1.000  Na
  Na29     1.0000 0.54265  0.82575  0.82722  Biso   1.000  Na
  Na30     1.0000 0.17425  0.71690  0.82722  Biso   1.000  Na
  Na31     1.0000 0.94977  0.79068  0.16055  Biso   1.000  Na
  Na32     1.0000 0.20932  0.15908  0.16055  Biso   1.000  Na
  Na33     1.0000 0.84092  0.05023  0.16055  Biso   1.000  Na
  Na34     1.0000 0.61643  0.12402  0.49389  Biso   1.000  Na
  Na35     1.0000 0.87598  0.49242  0.49389  Biso   1.000  Na
  Na36     1.0000 0.50758  0.38357  0.49389  Biso   1.000  Na
  Cl1      1.0000 0.00000  0.00000  0.00000  Biso   1.000  Cl
  Cl2      1.0000 0.66667  0.33333  0.33333  Biso   1.000  Cl
  Cl3      1.0000 0.33333  0.66667  0.66667  Biso   1.000  Cl
  N1       1.0000 0.80940  0.82450  0.18994  Biso   1.000  N
  N2       1.0000 0.17550  0.98490  0.18994  Biso   1.000  N
  N3       1.0000 0.01510  0.19060  0.18994  Biso   1.000  N
  N4       1.0000 0.47607  0.15783  0.52327  Biso   1.000  N
  N5       1.0000 0.84217  0.31823  0.52327  Biso   1.000  N
  N6       1.0000 0.68177  0.52393  0.52327  Biso   1.000  N
  N7       1.0000 0.14273  0.49117  0.85661  Biso   1.000  N
  N8       1.0000 0.50883  0.65157  0.85661  Biso   1.000  N
  N9       1.0000 0.34843  0.85727  0.85661  Biso   1.000  N
  N10      1.0000 0.19060  0.17550  0.81006  Biso   1.000  N
  N11      1.0000 0.82450  0.01510  0.81006  Biso   1.000  N
  N12      1.0000 0.98490  0.80940  0.81006  Biso   1.000  N
  N13      1.0000 0.85727  0.50883  0.14339  Biso   1.000  N
  N14      1.0000 0.49117  0.34843  0.14339  Biso   1.000  N
  N15      1.0000 0.65157  0.14273  0.14339  Biso   1.000  N
  N16      1.0000 0.52393  0.84217  0.47673  Biso   1.000  N
  N17      1.0000 0.15783  0.68177  0.47673  Biso   1.000  N
  N18      1.0000 0.31823  0.47607  0.47673  Biso   1.000  N
  N19      1.0000 0.74700  0.68780  0.05160  Biso   1.000  N
  N20      1.0000 0.31220  0.05920  0.05160  Biso   1.000  N
  N21      1.0000 0.94080  0.25300  0.05160  Biso   1.000  N
  N22      1.0000 0.41367  0.02113  0.38493  Biso   1.000  N
  N23      1.0000 0.97887  0.39253  0.38493  Biso   1.000  N
  N24      1.0000 0.60747  0.58633  0.38493  Biso   1.000  N
  N25      1.0000 0.08033  0.35447  0.71827  Biso   1.000  N
  N26      1.0000 0.64553  0.72587  0.71827  Biso   1.000  N
  N27      1.0000 0.27413  0.91967  0.71827  Biso   1.000  N
  N28      1.0000 0.25300  0.31220  0.94840  Biso   1.000  N
  N29      1.0000 0.68780  0.94080  0.94840  Biso   1.000  N
  N30      1.0000 0.05920  0.74700  0.94840  Biso   1.000  N
  N31      1.0000 0.91967  0.64553  0.28173  Biso   1.000  N
  N32      1.0000 0.35447  0.27413  0.28173  Biso   1.000  N
  N33      1.0000 0.72587  0.08033  0.28173  Biso   1.000  N
  N34      1.0000 0.58633  0.97887  0.61507  Biso   1.000  N
  N35      1.0000 0.02113  0.60747  0.61507  Biso   1.000  N
  N36      1.0000 0.39253  0.41367  0.61507  Biso   1.000  N
  N37      1.0000 0.76690  0.88660  0.05934  Biso   1.000  N
  N38      1.0000 0.11340  0.88030  0.05934  Biso   1.000  N
  N39      1.0000 0.11970  0.23310  0.05934  Biso   1.000  N
  N40      1.0000 0.43357  0.21993  0.39267  Biso   1.000  N
  N41      1.0000 0.78007  0.21363  0.39267  Biso   1.000  N
  N42      1.0000 0.78637  0.56643  0.39267  Biso   1.000  N
  N43      1.0000 0.10023  0.55327  0.72601  Biso   1.000  N
  N44      1.0000 0.44673  0.54697  0.72601  Biso   1.000  N
  N45      1.0000 0.45303  0.89977  0.72601  Biso   1.000  N
  N46      1.0000 0.23310  0.11340  0.94066  Biso   1.000  N
  N47      1.0000 0.88660  0.11970  0.94066  Biso   1.000  N
  N48      1.0000 0.88030  0.76690  0.94066  Biso   1.000  N
  N49      1.0000 0.89977  0.44673  0.27399  Biso   1.000  N
  N50      1.0000 0.55327  0.45303  0.27399  Biso   1.000  N
  N51      1.0000 0.54697  0.10023  0.27399  Biso   1.000  N
  N52      1.0000 0.56643  0.78007  0.60733  Biso   1.000  N
  N53      1.0000 0.21993  0.78637  0.60733  Biso   1.000  N
  N54      1.0000 0.21363  0.43357  0.60733  Biso   1.000  N
  N55      1.0000 0.00000  0.00000  0.17770  Biso   1.000  N
  N56      1.0000 0.66667  0.33333  0.51103  Biso   1.000  N
  N57      1.0000 0.33333  0.66667  0.84437  Biso   1.000  N
  N58      1.0000 0.00000  0.00000  0.82230  Biso   1.000  N
  N59      1.0000 0.66667  0.33333  0.15563  Biso   1.000  N
  N60      1.0000 0.33333  0.66667  0.48897  Biso   1.000  N
  C1       1.0000 0.79860  0.74940  0.22450  Biso   1.000  C
  C2       1.0000 0.25060  0.04920  0.22450  Biso   1.000  C
  C3       1.0000 0.95080  0.20140  0.22450  Biso   1.000  C
  C4       1.0000 0.46527  0.08273  0.55783  Biso   1.000  C
  C5       1.0000 0.91727  0.38253  0.55783  Biso   1.000  C
  C6       1.0000 0.61747  0.53473  0.55783  Biso   1.000  C
  C7       1.0000 0.13193  0.41607  0.89117  Biso   1.000  C
  C8       1.0000 0.58393  0.71587  0.89117  Biso   1.000  C
  C9       1.0000 0.28413  0.86807  0.89117  Biso   1.000  C
  C10      1.0000 0.20140  0.25060  0.77550  Biso   1.000  C
  C11      1.0000 0.74940  0.95080  0.77550  Biso   1.000  C
  C12      1.0000 0.04920  0.79860  0.77550  Biso   1.000  C
  C13      1.0000 0.86807  0.58393  0.10883  Biso   1.000  C
  C14      1.0000 0.41607  0.28413  0.10883  Biso   1.000  C
  C15      1.0000 0.71587  0.13193  0.10883  Biso   1.000  C
  C16      1.0000 0.53473  0.91727  0.44217  Biso   1.000  C
  C17      1.0000 0.08273  0.61747  0.44217  Biso   1.000  C
  C18      1.0000 0.38253  0.46527  0.44217  Biso   1.000  C
  C19      1.0000 0.80880  0.80280  0.22680  Biso   1.000  C
  C20      1.0000 0.19720  0.00600  0.22680  Biso   1.000  C
  C21      1.0000 0.99400  0.19120  0.22680  Biso   1.000  C
  C22      1.0000 0.47547  0.13613  0.56013  Biso   1.000  C
  C23      1.0000 0.86387  0.33933  0.56013  Biso   1.000  C
  C24      1.0000 0.66067  0.52453  0.56013  Biso   1.000  C
  C25      1.0000 0.14213  0.46947  0.89347  Biso   1.000  C
  C26      1.0000 0.53053  0.67267  0.89347  Biso   1.000  C
  C27      1.0000 0.32733  0.85787  0.89347  Biso   1.000  C
  C28      1.0000 0.19120  0.19720  0.77320  Biso   1.000  C
  C29      1.0000 0.80280  0.99400  0.77320  Biso   1.000  C
  C30      1.0000 0.00600  0.80880  0.77320  Biso   1.000  C
  C31      1.0000 0.85787  0.53053  0.10653  Biso   1.000  C
  C32      1.0000 0.46947  0.32733  0.10653  Biso   1.000  C
  C33      1.0000 0.67267  0.14213  0.10653  Biso   1.000  C
  C34      1.0000 0.52453  0.86387  0.43987  Biso   1.000  C
  C35      1.0000 0.13613  0.66067  0.43987  Biso   1.000  C
  C36      1.0000 0.33933  0.47547  0.43987  Biso   1.000  C
  H1       1.0000 0.84300  0.82490  0.23900  Biso   1.000  H
  H2       1.0000 0.17510  0.01810  0.23900  Biso   1.000  H
  H3       1.0000 0.98190  0.15700  0.23900  Biso   1.000  H
  H4       1.0000 0.50967  0.15823  0.57233  Biso   1.000  H
  H5       1.0000 0.84177  0.35143  0.57233  Biso   1.000  H
  H6       1.0000 0.64857  0.49033  0.57233  Biso   1.000  H
  H7       1.0000 0.17633  0.49157  0.90567  Biso   1.000  H
  H8       1.0000 0.50843  0.68477  0.90567  Biso   1.000  H
  H9       1.0000 0.31523  0.82367  0.90567  Biso   1.000  H
  H10      1.0000 0.15700  0.17510  0.76100  Biso   1.000  H
  H11      1.0000 0.82490  0.98190  0.76100  Biso   1.000  H
  H12      1.0000 0.01810  0.84300  0.76100  Biso   1.000  H
  H13      1.0000 0.82367  0.50843  0.09433  Biso   1.000  H
  H14      1.0000 0.49157  0.31523  0.09433  Biso   1.000  H
  H15      1.0000 0.68477  0.17633  0.09433  Biso   1.000  H
  H16      1.0000 0.49033  0.84177  0.42767  Biso   1.000  H
  H17      1.0000 0.15823  0.64857  0.42767  Biso   1.000  H
  H18      1.0000 0.35143  0.50967  0.42767  Biso   1.000  H
  H19      1.0000 0.78140  0.80360  0.24220  Biso   1.000  H
  H20      1.0000 0.19640  0.97780  0.24220  Biso   1.000  H
  H21      1.0000 0.02220  0.21860  0.24220  Biso   1.000  H
  H22      1.0000 0.44807  0.13693  0.57553  Biso   1.000  H
  H23      1.0000 0.86307  0.31113  0.57553  Biso   1.000  H
  H24      1.0000 0.68887  0.55193  0.57553  Biso   1.000  H
  H25      1.0000 0.11473  0.47027  0.90887  Biso   1.000  H
  H26      1.0000 0.52973  0.64447  0.90887  Biso   1.000  H
  H27      1.0000 0.35553  0.88527  0.90887  Biso   1.000  H
  H28      1.0000 0.21860  0.19640  0.75780  Biso   1.000  H
  H29      1.0000 0.80360  0.02220  0.75780  Biso   1.000  H
  H30      1.0000 0.97780  0.78140  0.75780  Biso   1.000  H
  H31      1.0000 0.88527  0.52973  0.09113  Biso   1.000  H
  H32      1.0000 0.47027  0.35553  0.09113  Biso   1.000  H
  H33      1.0000 0.64447  0.11473  0.09113  Biso   1.000  H
  H34      1.0000 0.55193  0.86307  0.42447  Biso   1.000  H
  H35      1.0000 0.13693  0.68887  0.42447  Biso   1.000  H
  H36      1.0000 0.31113  0.44807  0.42447  Biso   1.000  H
  O1       1.0000 0.78170  0.72200  0.25030  Biso   1.000  O
  O2       1.0000 0.27800  0.05970  0.25030  Biso   1.000  O
  O3       1.0000 0.94030  0.21830  0.25030  Biso   1.000  O
  O4       1.0000 0.44837  0.05533  0.58363  Biso   1.000  O
  O5       1.0000 0.94467  0.39303  0.58363  Biso   1.000  O
  O6       1.0000 0.60697  0.55163  0.58363  Biso   1.000  O
  O7       1.0000 0.11503  0.38867  0.91697  Biso   1.000  O
  O8       1.0000 0.61133  0.72637  0.91697  Biso   1.000  O
  O9       1.0000 0.27363  0.88497  0.91697  Biso   1.000  O
  O10      1.0000 0.21830  0.27800  0.74970  Biso   1.000  O
  O11      1.0000 0.72200  0.94030  0.74970  Biso   1.000  O
  O12      1.0000 0.05970  0.78170  0.74970  Biso   1.000  O
  O13      1.0000 0.88497  0.61133  0.08303  Biso   1.000  O
  O14      1.0000 0.38867  0.27363  0.08303  Biso   1.000  O
  O15      1.0000 0.72637  0.11503  0.08303  Biso   1.000  O
  O16      1.0000 0.55163  0.94467  0.41637  Biso   1.000  O
  O17      1.0000 0.05533  0.60697  0.41637  Biso   1.000  O
  O18      1.0000 0.39303  0.44837  0.41637  Biso   1.000  O
  C37      1.0000 0.79260  0.88850  0.17130  Biso   1.000  C
  C38      1.0000 0.11150  0.90410  0.17130  Biso   1.000  C
  C39      1.0000 0.09590  0.20740  0.17130  Biso   1.000  C
  C40      1.0000 0.45927  0.22183  0.50463  Biso   1.000  C
  C41      1.0000 0.77817  0.23743  0.50463  Biso   1.000  C
  C42      1.0000 0.76257  0.54073  0.50463  Biso   1.000  C
  C43      1.0000 0.12593  0.55517  0.83797  Biso   1.000  C
  C44      1.0000 0.44483  0.57077  0.83797  Biso   1.000  C
  C45      1.0000 0.42923  0.87407  0.83797  Biso   1.000  C
  C46      1.0000 0.20740  0.11150  0.82870  Biso   1.000  C
  C47      1.0000 0.88850  0.09590  0.82870  Biso   1.000  C
  C48      1.0000 0.90410  0.79260  0.82870  Biso   1.000  C
  C49      1.0000 0.87407  0.44483  0.16203  Biso   1.000  C
  C50      1.0000 0.55517  0.42923  0.16203  Biso   1.000  C
  C51      1.0000 0.57077  0.12593  0.16203  Biso   1.000  C
  C52      1.0000 0.54073  0.77817  0.49537  Biso   1.000  C
  C53      1.0000 0.22183  0.76257  0.49537  Biso   1.000  C
  C54      1.0000 0.23743  0.45927  0.49537  Biso   1.000  C
  H37      1.0000 0.76840  0.88200  0.19180  Biso   1.000  H
  H38      1.0000 0.11800  0.88640  0.19180  Biso   1.000  H
  H39      1.0000 0.11360  0.23160  0.19180  Biso   1.000  H
  H40      1.0000 0.43507  0.21533  0.52513  Biso   1.000  H
  H41      1.0000 0.78467  0.21973  0.52513  Biso   1.000  H
  H42      1.0000 0.78027  0.56493  0.52513  Biso   1.000  H
  H43      1.0000 0.10173  0.54867  0.85847  Biso   1.000  H
  H44      1.0000 0.45133  0.55307  0.85847  Biso   1.000  H
  H45      1.0000 0.44693  0.89827  0.85847  Biso   1.000  H
  H46      1.0000 0.23160  0.11800  0.80820  Biso   1.000  H
  H47      1.0000 0.88200  0.11360  0.80820  Biso   1.000  H
  H48      1.0000 0.88640  0.76840  0.80820  Biso   1.000  H
  H49      1.0000 0.89827  0.45133  0.14153  Biso   1.000  H
  H50      1.0000 0.54867  0.44693  0.14153  Biso   1.000  H
  H51      1.0000 0.55307  0.10173  0.14153  Biso   1.000  H
  H52      1.0000 0.56493  0.78467  0.47487  Biso   1.000  H
  H53      1.0000 0.21533  0.78027  0.47487  Biso   1.000  H
  H54      1.0000 0.21973  0.43507  0.47487  Biso   1.000  H
  H55      1.0000 0.77360  0.86500  0.15070  Biso   1.000  H
  H56      1.0000 0.13500  0.90860  0.15070  Biso   1.000  H
  H57      1.0000 0.09140  0.22640  0.15070  Biso   1.000  H
  H58      1.0000 0.44027  0.19833  0.48403  Biso   1.000  H
  H59      1.0000 0.80167  0.24193  0.48403  Biso   1.000  H
  H60      1.0000 0.75807  0.55973  0.48403  Biso   1.000  H
  H61      1.0000 0.10693  0.53167  0.81737  Biso   1.000  H
  H62      1.0000 0.46833  0.57527  0.81737  Biso   1.000  H
  H63      1.0000 0.42473  0.89307  0.81737  Biso   1.000  H
  H64      1.0000 0.22640  0.13500  0.84930  Biso   1.000  H
  H65      1.0000 0.86500  0.09140  0.84930  Biso   1.000  H
  H66      1.0000 0.90860  0.77360  0.84930  Biso   1.000  H
  H67      1.0000 0.89307  0.46833  0.18263  Biso   1.000  H
  H68      1.0000 0.53167  0.42473  0.18263  Biso   1.000  H
  H69      1.0000 0.57527  0.10693  0.18263  Biso   1.000  H
  H70      1.0000 0.55973  0.80167  0.51597  Biso   1.000  H
  H71      1.0000 0.19833  0.75807  0.51597  Biso   1.000  H
  H72      1.0000 0.24193  0.44027  0.51597  Biso   1.000  H
  H73      1.0000 0.80800  0.92490  0.16320  Biso   1.000  H
  H74      1.0000 0.07510  0.88310  0.16320  Biso   1.000  H
  H75      1.0000 0.11690  0.19200  0.16320  Biso   1.000  H
  H76      1.0000 0.47467  0.25823  0.49653  Biso   1.000  H
  H77      1.0000 0.74177  0.21643  0.49653  Biso   1.000  H
  H78      1.0000 0.78357  0.52533  0.49653  Biso   1.000  H
  H79      1.0000 0.14133  0.59157  0.82987  Biso   1.000  H
  H80      1.0000 0.40843  0.54977  0.82987  Biso   1.000  H
  H81      1.0000 0.45023  0.85867  0.82987  Biso   1.000  H
  H82      1.0000 0.19200  0.07510  0.83680  Biso   1.000  H
  H83      1.0000 0.92490  0.11690  0.83680  Biso   1.000  H
  H84      1.0000 0.88310  0.80800  0.83680  Biso   1.000  H
  H85      1.0000 0.85867  0.40843  0.17013  Biso   1.000  H
  H86      1.0000 0.59157  0.45023  0.17013  Biso   1.000  H
  H87      1.0000 0.54977  0.14133  0.17013  Biso   1.000  H
  H88      1.0000 0.52533  0.74177  0.50347  Biso   1.000  H
  H89      1.0000 0.25823  0.78357  0.50347  Biso   1.000  H
  H90      1.0000 0.21643  0.47467  0.50347  Biso   1.000  H
  C55      1.0000 0.83120  0.87940  0.18280  Biso   1.000  C
  C56      1.0000 0.12060  0.95180  0.18280  Biso   1.000  C
  C57      1.0000 0.04820  0.16880  0.18280  Biso   1.000  C
  C58      1.0000 0.49787  0.21273  0.51613  Biso   1.000  C
  C59      1.0000 0.78727  0.28513  0.51613  Biso   1.000  C
  C60      1.0000 0.71487  0.50213  0.51613  Biso   1.000  C
  C61      1.0000 0.16453  0.54607  0.84947  Biso   1.000  C
  C62      1.0000 0.45393  0.61847  0.84947  Biso   1.000  C
  C63      1.0000 0.38153  0.83547  0.84947  Biso   1.000  C
  C64      1.0000 0.16880  0.12060  0.81720  Biso   1.000  C
  C65      1.0000 0.87940  0.04820  0.81720  Biso   1.000  C
  C66      1.0000 0.95180  0.83120  0.81720  Biso   1.000  C
  C67      1.0000 0.83547  0.45393  0.15053  Biso   1.000  C
  C68      1.0000 0.54607  0.38153  0.15053  Biso   1.000  C
  C69      1.0000 0.61847  0.16453  0.15053  Biso   1.000  C
  C70      1.0000 0.50213  0.78727  0.48387  Biso   1.000  C
  C71      1.0000 0.21273  0.71487  0.48387  Biso   1.000  C
  C72      1.0000 0.28513  0.49787  0.48387  Biso   1.000  C
  C73      1.0000 0.85610  0.88820  0.14240  Biso   1.000  C
  C74      1.0000 0.11180  0.96790  0.14240  Biso   1.000  C
  C75      1.0000 0.03210  0.14390  0.14240  Biso   1.000  C
  C76      1.0000 0.52277  0.22153  0.47573  Biso   1.000  C
  C77      1.0000 0.77847  0.30123  0.47573  Biso   1.000  C
  C78      1.0000 0.69877  0.47723  0.47573  Biso   1.000  C
  C79      1.0000 0.18943  0.55487  0.80907  Biso   1.000  C
  C80      1.0000 0.44513  0.63457  0.80907  Biso   1.000  C
  C81      1.0000 0.36543  0.81057  0.80907  Biso   1.000  C
  C82      1.0000 0.14390  0.11180  0.85760  Biso   1.000  C
  C83      1.0000 0.88820  0.03210  0.85760  Biso   1.000  C
  C84      1.0000 0.96790  0.85610  0.85760  Biso   1.000  C
  C85      1.0000 0.81057  0.44513  0.19093  Biso   1.000  C
  C86      1.0000 0.55487  0.36543  0.19093  Biso   1.000  C
  C87      1.0000 0.63457  0.18943  0.19093  Biso   1.000  C
  C88      1.0000 0.47723  0.77847  0.52427  Biso   1.000  C
  C89      1.0000 0.22153  0.69877  0.52427  Biso   1.000  C
  C90      1.0000 0.30123  0.52277  0.52427  Biso   1.000  C
  C91      1.0000 0.73800  0.61430  0.09100  Biso   1.000  C
  C92      1.0000 0.38570  0.12370  0.09100  Biso   1.000  C
  C93      1.0000 0.87630  0.26200  0.09100  Biso   1.000  C
  C94      1.0000 0.40467  0.94763  0.42433  Biso   1.000  C
  C95      1.0000 0.05237  0.45703  0.42433  Biso   1.000  C
  C96      1.0000 0.54297  0.59533  0.42433  Biso   1.000  C
  C97      1.0000 0.07133  0.28097  0.75767  Biso   1.000  C
  C98      1.0000 0.71903  0.79037  0.75767  Biso   1.000  C
  C99      1.0000 0.20963  0.92867  0.75767  Biso   1.000  C
  C100     1.0000 0.26200  0.38570  0.90900  Biso   1.000  C
  C101     1.0000 0.61430  0.87630  0.90900  Biso   1.000  C
  C102     1.0000 0.12370  0.73800  0.90900  Biso   1.000  C
  C103     1.0000 0.92867  0.71903  0.24233  Biso   1.000  C
  C104     1.0000 0.28097  0.20963  0.24233  Biso   1.000  C
  C105     1.0000 0.79037  0.07133  0.24233  Biso   1.000  C
  C106     1.0000 0.59533  0.05237  0.57567  Biso   1.000  C
  C107     1.0000 0.94763  0.54297  0.57567  Biso   1.000  C
  C108     1.0000 0.45703  0.40467  0.57567  Biso   1.000  C
  C109     1.0000 0.71980  0.62600  0.05110  Biso   1.000  C
  C110     1.0000 0.37400  0.09380  0.05110  Biso   1.000  C
  C111     1.0000 0.90620  0.28020  0.05110  Biso   1.000  C
  C112     1.0000 0.38647  0.95933  0.38443  Biso   1.000  C
  C113     1.0000 0.04067  0.42713  0.38443  Biso   1.000  C
  C114     1.0000 0.57287  0.61353  0.38443  Biso   1.000  C
  C115     1.0000 0.05313  0.29267  0.71777  Biso   1.000  C
  C116     1.0000 0.70733  0.76047  0.71777  Biso   1.000  C
  C117     1.0000 0.23953  0.94687  0.71777  Biso   1.000  C
  C118     1.0000 0.28020  0.37400  0.94890  Biso   1.000  C
  C119     1.0000 0.62600  0.90620  0.94890  Biso   1.000  C
  C120     1.0000 0.09380  0.71980  0.94890  Biso   1.000  C
  C121     1.0000 0.94687  0.70733  0.28223  Biso   1.000  C
  C122     1.0000 0.29267  0.23953  0.28223  Biso   1.000  C
  C123     1.0000 0.76047  0.05313  0.28223  Biso   1.000  C
  C124     1.0000 0.61353  0.04067  0.61557  Biso   1.000  C
  C125     1.0000 0.95933  0.57287  0.61557  Biso   1.000  C
  C126     1.0000 0.42713  0.38647  0.61557  Biso   1.000  C
  H91      1.0000 0.73270  0.61370  0.03030  Biso   1.000  H
  H92      1.0000 0.38630  0.11900  0.03030  Biso   1.000  H
  H93      1.0000 0.88100  0.26730  0.03030  Biso   1.000  H
  H94      1.0000 0.39937  0.94703  0.36363  Biso   1.000  H
  H95      1.0000 0.05297  0.45233  0.36363  Biso   1.000  H
  H96      1.0000 0.54767  0.60063  0.36363  Biso   1.000  H
  H97      1.0000 0.06603  0.28037  0.69697  Biso   1.000  H
  H98      1.0000 0.71963  0.78567  0.69697  Biso   1.000  H
  H99      1.0000 0.21433  0.93397  0.69697  Biso   1.000  H
  H100     1.0000 0.26730  0.38630  0.96970  Biso   1.000  H
  H101     1.0000 0.61370  0.88100  0.96970  Biso   1.000  H
  H102     1.0000 0.11900  0.73270  0.96970  Biso   1.000  H
  H103     1.0000 0.93397  0.71963  0.30303  Biso   1.000  H
  H104     1.0000 0.28037  0.21433  0.30303  Biso   1.000  H
  H105     1.0000 0.78567  0.06603  0.30303  Biso   1.000  H
  H106     1.0000 0.60063  0.05297  0.63637  Biso   1.000  H
  H107     1.0000 0.94703  0.54767  0.63637  Biso   1.000  H
  H108     1.0000 0.45233  0.39937  0.63637  Biso   1.000  H
  H109     1.0000 0.68120  0.60940  0.04940  Biso   1.000  H
  H110     1.0000 0.39060  0.07180  0.04940  Biso   1.000  H
  H111     1.0000 0.92820  0.31880  0.04940  Biso   1.000  H
  H112     1.0000 0.34787  0.94273  0.38273  Biso   1.000  H
  H113     1.0000 0.05727  0.40513  0.38273  Biso   1.000  H
  H114     1.0000 0.59487  0.65213  0.38273  Biso   1.000  H
  H115     1.0000 0.01453  0.27607  0.71607  Biso   1.000  H
  H116     1.0000 0.72393  0.73847  0.71607  Biso   1.000  H
  H117     1.0000 0.26153  0.98547  0.71607  Biso   1.000  H
  H118     1.0000 0.31880  0.39060  0.95060  Biso   1.000  H
  H119     1.0000 0.60940  0.92820  0.95060  Biso   1.000  H
  H120     1.0000 0.07180  0.68120  0.95060  Biso   1.000  H
  H121     1.0000 0.98547  0.72393  0.28393  Biso   1.000  H
  H122     1.0000 0.27607  0.26153  0.28393  Biso   1.000  H
  H123     1.0000 0.73847  0.01453  0.28393  Biso   1.000  H
  H124     1.0000 0.65213  0.05727  0.61727  Biso   1.000  H
  H125     1.0000 0.94273  0.59487  0.61727  Biso   1.000  H
  H126     1.0000 0.40513  0.34787  0.61727  Biso   1.000  H
  O19      1.0000 0.71090  0.56980  0.10020  Biso   1.000  O
  O20      1.0000 0.43020  0.14110  0.10020  Biso   1.000  O
  O21      1.0000 0.85890  0.28910  0.10020  Biso   1.000  O
  O22      1.0000 0.37757  0.90313  0.43353  Biso   1.000  O
  O23      1.0000 0.09687  0.47443  0.43353  Biso   1.000  O
  O24      1.0000 0.52557  0.62243  0.43353  Biso   1.000  O
  O25      1.0000 0.04423  0.23647  0.76687  Biso   1.000  O
  O26      1.0000 0.76353  0.80777  0.76687  Biso   1.000  O
  O27      1.0000 0.19223  0.95577  0.76687  Biso   1.000  O
  O28      1.0000 0.28910  0.43020  0.89980  Biso   1.000  O
  O29      1.0000 0.56980  0.85890  0.89980  Biso   1.000  O
  O30      1.0000 0.14110  0.71090  0.89980  Biso   1.000  O
  O31      1.0000 0.95577  0.76353  0.23313  Biso   1.000  O
  O32      1.0000 0.23647  0.19223  0.23313  Biso   1.000  O
  O33      1.0000 0.80777  0.04423  0.23313  Biso   1.000  O
  O34      1.0000 0.62243  0.09687  0.56647  Biso   1.000  O
  O35      1.0000 0.90313  0.52557  0.56647  Biso   1.000  O
  O36      1.0000 0.47443  0.37757  0.56647  Biso   1.000  O
  C127     1.0000 0.75260  0.71920  0.02290  Biso   1.000  C
  C128     1.0000 0.28080  0.03340  0.02290  Biso   1.000  C
  C129     1.0000 0.96660  0.24740  0.02290  Biso   1.000  C
  C130     1.0000 0.41927  0.05253  0.35623  Biso   1.000  C
  C131     1.0000 0.94747  0.36673  0.35623  Biso   1.000  C
  C132     1.0000 0.63327  0.58073  0.35623  Biso   1.000  C
  C133     1.0000 0.08593  0.38587  0.68957  Biso   1.000  C
  C134     1.0000 0.61413  0.70007  0.68957  Biso   1.000  C
  C135     1.0000 0.29993  0.91407  0.68957  Biso   1.000  C
  C136     1.0000 0.24740  0.28080  0.97710  Biso   1.000  C
  C137     1.0000 0.71920  0.96660  0.97710  Biso   1.000  C
  C138     1.0000 0.03340  0.75260  0.97710  Biso   1.000  C
  C139     1.0000 0.91407  0.61413  0.31043  Biso   1.000  C
  C140     1.0000 0.38587  0.29993  0.31043  Biso   1.000  C
  C141     1.0000 0.70007  0.08593  0.31043  Biso   1.000  C
  C142     1.0000 0.58073  0.94747  0.64377  Biso   1.000  C
  C143     1.0000 0.05253  0.63327  0.64377  Biso   1.000  C
  C144     1.0000 0.36673  0.41927  0.64377  Biso   1.000  C
  H127     1.0000 0.76700  0.70330  0.00540  Biso   1.000  H
  H128     1.0000 0.29670  0.06370  0.00540  Biso   1.000  H
  H129     1.0000 0.93630  0.23300  0.00540  Biso   1.000  H
  H130     1.0000 0.43367  0.03663  0.33873  Biso   1.000  H
  H131     1.0000 0.96337  0.39703  0.33873  Biso   1.000  H
  H132     1.0000 0.60297  0.56633  0.33873  Biso   1.000  H
  H133     1.0000 0.10033  0.36997  0.67207  Biso   1.000  H
  H134     1.0000 0.63003  0.73037  0.67207  Biso   1.000  H
  H135     1.0000 0.26963  0.89967  0.67207  Biso   1.000  H
  H136     1.0000 0.23300  0.29670  0.99460  Biso   1.000  H
  H137     1.0000 0.70330  0.93630  0.99460  Biso   1.000  H
  H138     1.0000 0.06370  0.76700  0.99460  Biso   1.000  H
  H139     1.0000 0.89967  0.63003  0.32793  Biso   1.000  H
  H140     1.0000 0.36997  0.26963  0.32793  Biso   1.000  H
  H141     1.0000 0.73037  0.10033  0.32793  Biso   1.000  H
  H142     1.0000 0.56633  0.96337  0.66127  Biso   1.000  H
  H143     1.0000 0.03663  0.60297  0.66127  Biso   1.000  H
  H144     1.0000 0.39703  0.43367  0.66127  Biso   1.000  H
  C145     1.0000 0.71250  0.71790  0.99690  Biso   1.000  C
  C146     1.0000 0.28210  0.99460  0.99690  Biso   1.000  C
  C147     1.0000 0.00540  0.28750  0.99690  Biso   1.000  C
  C148     1.0000 0.37917  0.05123  0.33023  Biso   1.000  C
  C149     1.0000 0.94877  0.32793  0.33023  Biso   1.000  C
  C150     1.0000 0.67207  0.62083  0.33023  Biso   1.000  C
  C151     1.0000 0.04583  0.38457  0.66357  Biso   1.000  C
  C152     1.0000 0.61543  0.66127  0.66357  Biso   1.000  C
  C153     1.0000 0.33873  0.95417  0.66357  Biso   1.000  C
  C154     1.0000 0.28750  0.28210  0.00310  Biso   1.000  C
  C155     1.0000 0.71790  0.00540  0.00310  Biso   1.000  C
  C156     1.0000 0.99460  0.71250  0.00310  Biso   1.000  C
  C157     1.0000 0.95417  0.61543  0.33643  Biso   1.000  C
  C158     1.0000 0.38457  0.33873  0.33643  Biso   1.000  C
  C159     1.0000 0.66127  0.04583  0.33643  Biso   1.000  C
  C160     1.0000 0.62083  0.94877  0.66977  Biso   1.000  C
  C161     1.0000 0.05123  0.67207  0.66977  Biso   1.000  C
  C162     1.0000 0.32793  0.37917  0.66977  Biso   1.000  C
  H145     1.0000 0.68260  0.68230  0.99560  Biso   1.000  H
  H146     1.0000 0.31770  0.00030  0.99560  Biso   1.000  H
  H147     1.0000 0.99970  0.31740  0.99560  Biso   1.000  H
  H148     1.0000 0.34927  0.01563  0.32893  Biso   1.000  H
  H149     1.0000 0.98437  0.33363  0.32893  Biso   1.000  H
  H150     1.0000 0.66637  0.65073  0.32893  Biso   1.000  H
  H151     1.0000 0.01593  0.34897  0.66227  Biso   1.000  H
  H152     1.0000 0.65103  0.66697  0.66227  Biso   1.000  H
  H153     1.0000 0.33303  0.98407  0.66227  Biso   1.000  H
  H154     1.0000 0.31740  0.31770  0.00440  Biso   1.000  H
  H155     1.0000 0.68230  0.99970  0.00440  Biso   1.000  H
  H156     1.0000 0.00030  0.68260  0.00440  Biso   1.000  H
  H157     1.0000 0.98407  0.65103  0.33773  Biso   1.000  H
  H158     1.0000 0.34897  0.33303  0.33773  Biso   1.000  H
  H159     1.0000 0.66697  0.01593  0.33773  Biso   1.000  H
  H160     1.0000 0.65073  0.98437  0.67107  Biso   1.000  H
  H161     1.0000 0.01563  0.66637  0.67107  Biso   1.000  H
  H162     1.0000 0.33363  0.34927  0.67107  Biso   1.000  H
  H163     1.0000 0.72800  0.72900  0.97220  Biso   1.000  H
  H164     1.0000 0.27100  0.99900  0.97220  Biso   1.000  H
  H165     1.0000 0.00100  0.27200  0.97220  Biso   1.000  H
  H166     1.0000 0.39467  0.06233  0.30553  Biso   1.000  H
  H167     1.0000 0.93767  0.33233  0.30553  Biso   1.000  H
  H168     1.0000 0.66767  0.60533  0.30553  Biso   1.000  H
  H169     1.0000 0.06133  0.39567  0.63887  Biso   1.000  H
  H170     1.0000 0.60433  0.66567  0.63887  Biso   1.000  H
  H171     1.0000 0.33433  0.93867  0.63887  Biso   1.000  H
  H172     1.0000 0.27200  0.27100  0.02780  Biso   1.000  H
  H173     1.0000 0.72900  0.00100  0.02780  Biso   1.000  H
  H174     1.0000 0.99900  0.72800  0.02780  Biso   1.000  H
  H175     1.0000 0.93867  0.60433  0.36113  Biso   1.000  H
  H176     1.0000 0.39567  0.33433  0.36113  Biso   1.000  H
  H177     1.0000 0.66567  0.06133  0.36113  Biso   1.000  H
  H178     1.0000 0.60533  0.93767  0.69447  Biso   1.000  H
  H179     1.0000 0.06233  0.66767  0.69447  Biso   1.000  H
  H180     1.0000 0.33233  0.39467  0.69447  Biso   1.000  H
  H181     1.0000 0.70080  0.74180  0.00580  Biso   1.000  H
  H182     1.0000 0.25820  0.95900  0.00580  Biso   1.000  H
  H183     1.0000 0.04100  0.29920  0.00580  Biso   1.000  H
  H184     1.0000 0.36747  0.07513  0.33913  Biso   1.000  H
  H185     1.0000 0.92487  0.29233  0.33913  Biso   1.000  H
  H186     1.0000 0.70767  0.63253  0.33913  Biso   1.000  H
  H187     1.0000 0.03413  0.40847  0.67247  Biso   1.000  H
  H188     1.0000 0.59153  0.62567  0.67247  Biso   1.000  H
  H189     1.0000 0.37433  0.96587  0.67247  Biso   1.000  H
  H190     1.0000 0.29920  0.25820  0.99420  Biso   1.000  H
  H191     1.0000 0.74180  0.04100  0.99420  Biso   1.000  H
  H192     1.0000 0.95900  0.70080  0.99420  Biso   1.000  H
  H193     1.0000 0.96587  0.59153  0.32753  Biso   1.000  H
  H194     1.0000 0.40847  0.37433  0.32753  Biso   1.000  H
  H195     1.0000 0.62567  0.03413  0.32753  Biso   1.000  H
  H196     1.0000 0.63253  0.92487  0.66087  Biso   1.000  H
  H197     1.0000 0.07513  0.70767  0.66087  Biso   1.000  H
  H198     1.0000 0.29233  0.36747  0.66087  Biso   1.000  H
  C163     1.0000 0.80140  0.77200  0.02490  Biso   1.000  C
  C164     1.0000 0.22800  0.02940  0.02490  Biso   1.000  C
  C165     1.0000 0.97060  0.19860  0.02490  Biso   1.000  C
  C166     1.0000 0.46807  0.10533  0.35823  Biso   1.000  C
  C167     1.0000 0.89467  0.36273  0.35823  Biso   1.000  C
  C168     1.0000 0.63727  0.53193  0.35823  Biso   1.000  C
  C169     1.0000 0.13473  0.43867  0.69157  Biso   1.000  C
  C170     1.0000 0.56133  0.69607  0.69157  Biso   1.000  C
  C171     1.0000 0.30393  0.86527  0.69157  Biso   1.000  C
  C172     1.0000 0.19860  0.22800  0.97510  Biso   1.000  C
  C173     1.0000 0.77200  0.97060  0.97510  Biso   1.000  C
  C174     1.0000 0.02940  0.80140  0.97510  Biso   1.000  C
  C175     1.0000 0.86527  0.56133  0.30843  Biso   1.000  C
  C176     1.0000 0.43867  0.30393  0.30843  Biso   1.000  C
  C177     1.0000 0.69607  0.13473  0.30843  Biso   1.000  C
  C178     1.0000 0.53193  0.89467  0.64177  Biso   1.000  C
  C179     1.0000 0.10533  0.63727  0.64177  Biso   1.000  C
  C180     1.0000 0.36273  0.46807  0.64177  Biso   1.000  C
  O37      1.0000 0.80710  0.73470  0.19458  Biso   1.000  O
  O38      1.0000 0.26530  0.07240  0.19458  Biso   1.000  O
  O39      1.0000 0.92760  0.19290  0.19458  Biso   1.000  O
  O40      1.0000 0.47377  0.06803  0.52791  Biso   1.000  O
  O41      1.0000 0.93197  0.40573  0.52791  Biso   1.000  O
  O42      1.0000 0.59427  0.52623  0.52791  Biso   1.000  O
  O43      1.0000 0.14043  0.40137  0.86125  Biso   1.000  O
  O44      1.0000 0.59863  0.73907  0.86125  Biso   1.000  O
  O45      1.0000 0.26093  0.85957  0.86125  Biso   1.000  O
  O46      1.0000 0.19290  0.26530  0.80542  Biso   1.000  O
  O47      1.0000 0.73470  0.92760  0.80542  Biso   1.000  O
  O48      1.0000 0.07240  0.80710  0.80542  Biso   1.000  O
  O49      1.0000 0.85957  0.59863  0.13875  Biso   1.000  O
  O50      1.0000 0.40137  0.26093  0.13875  Biso   1.000  O
  O51      1.0000 0.73907  0.14043  0.13875  Biso   1.000  O
  O52      1.0000 0.52623  0.93197  0.47209  Biso   1.000  O
  O53      1.0000 0.06803  0.59427  0.47209  Biso   1.000  O
  O54      1.0000 0.40573  0.47377  0.47209  Biso   1.000  O
  O55      1.0000 0.86949  0.85472  0.12858  Biso   1.000  O
  O56      1.0000 0.14528  0.01477  0.12858  Biso   1.000  O
  O57      1.0000 0.98523  0.13051  0.12858  Biso   1.000  O
  O58      1.0000 0.53616  0.18805  0.46191  Biso   1.000  O
  O59      1.0000 0.81195  0.34810  0.46191  Biso   1.000  O
  O60      1.0000 0.65190  0.46384  0.46191  Biso   1.000  O
  O61      1.0000 0.20282  0.52139  0.79525  Biso   1.000  O
  O62      1.0000 0.47861  0.68144  0.79525  Biso   1.000  O
  O63      1.0000 0.31856  0.79718  0.79525  Biso   1.000  O
  O64      1.0000 0.13051  0.14528  0.87142  Biso   1.000  O
  O65      1.0000 0.85472  0.98523  0.87142  Biso   1.000  O
  O66      1.0000 0.01477  0.86949  0.87142  Biso   1.000  O
  O67      1.0000 0.79718  0.47861  0.20475  Biso   1.000  O
  O68      1.0000 0.52139  0.31856  0.20475  Biso   1.000  O
  O69      1.0000 0.68144  0.20282  0.20475  Biso   1.000  O
  O70      1.0000 0.46384  0.81195  0.53809  Biso   1.000  O
  O71      1.0000 0.18805  0.65190  0.53809  Biso   1.000  O
  O72      1.0000 0.34810  0.53616  0.53809  Biso   1.000  O
  O73      1.0000 0.87200  0.93421  0.12819  Biso   1.000  O
  O74      1.0000 0.06579  0.93779  0.12819  Biso   1.000  O
  O75      1.0000 0.06221  0.12800  0.12819  Biso   1.000  O
  O76      1.0000 0.53867  0.26754  0.46152  Biso   1.000  O
  O77      1.0000 0.73246  0.27112  0.46152  Biso   1.000  O
  O78      1.0000 0.72888  0.46133  0.46152  Biso   1.000  O
  O79      1.0000 0.20533  0.60088  0.79486  Biso   1.000  O
  O80      1.0000 0.39912  0.60446  0.79486  Biso   1.000  O
  O81      1.0000 0.39554  0.79467  0.79486  Biso   1.000  O
  O82      1.0000 0.12800  0.06579  0.87181  Biso   1.000  O
  O83      1.0000 0.93421  0.06221  0.87181  Biso   1.000  O
  O84      1.0000 0.93779  0.87200  0.87181  Biso   1.000  O
  O85      1.0000 0.79467  0.39912  0.20514  Biso   1.000  O
  O86      1.0000 0.60088  0.39554  0.20514  Biso   1.000  O
  O87      1.0000 0.60446  0.20533  0.20514  Biso   1.000  O
  O88      1.0000 0.46133  0.73246  0.53848  Biso   1.000  O
  O89      1.0000 0.26754  0.72888  0.53848  Biso   1.000  O
  O90      1.0000 0.27112  0.53867  0.53848  Biso   1.000  O
  O91      1.0000 0.76720  0.65040  0.11211  Biso   1.000  O
  O92      1.0000 0.34960  0.11680  0.11211  Biso   1.000  O
  O93      1.0000 0.88320  0.23280  0.11211  Biso   1.000  O
  O94      1.0000 0.43387  0.98373  0.44544  Biso   1.000  O
  O95      1.0000 0.01627  0.45013  0.44544  Biso   1.000  O
  O96      1.0000 0.54987  0.56613  0.44544  Biso   1.000  O
  O97      1.0000 0.10053  0.31707  0.77878  Biso   1.000  O
  O98      1.0000 0.68293  0.78347  0.77878  Biso   1.000  O
  O99      1.0000 0.21653  0.89947  0.77878  Biso   1.000  O
  O100     1.0000 0.23280  0.34960  0.88789  Biso   1.000  O
  O101     1.0000 0.65040  0.88320  0.88789  Biso   1.000  O
  O102     1.0000 0.11680  0.76720  0.88789  Biso   1.000  O
  O103     1.0000 0.89947  0.68293  0.22122  Biso   1.000  O
  O104     1.0000 0.31707  0.21653  0.22122  Biso   1.000  O
  O105     1.0000 0.78347  0.10053  0.22122  Biso   1.000  O
  O106     1.0000 0.56613  0.01627  0.55456  Biso   1.000  O
  O107     1.0000 0.98373  0.54987  0.55456  Biso   1.000  O
  O108     1.0000 0.45013  0.43387  0.55456  Biso   1.000  O
  O109     1.0000 0.83305  0.77893  0.05390  Biso   1.000  O
  O110     1.0000 0.22107  0.05412  0.05390  Biso   1.000  O
  O111     1.0000 0.94588  0.16695  0.05390  Biso   1.000  O
  O112     1.0000 0.49972  0.11226  0.38723  Biso   1.000  O
  O113     1.0000 0.88774  0.38745  0.38723  Biso   1.000  O
  O114     1.0000 0.61255  0.50028  0.38723  Biso   1.000  O
  O115     1.0000 0.16638  0.44560  0.72057  Biso   1.000  O
  O116     1.0000 0.55440  0.72079  0.72057  Biso   1.000  O
  O117     1.0000 0.27921  0.83362  0.72057  Biso   1.000  O
  O118     1.0000 0.16695  0.22107  0.94610  Biso   1.000  O
  O119     1.0000 0.77893  0.94588  0.94610  Biso   1.000  O
  O120     1.0000 0.05412  0.83305  0.94610  Biso   1.000  O
  O121     1.0000 0.83362  0.55440  0.27943  Biso   1.000  O
  O122     1.0000 0.44560  0.27921  0.27943  Biso   1.000  O
  O123     1.0000 0.72079  0.16638  0.27943  Biso   1.000  O
  O124     1.0000 0.50028  0.88774  0.61277  Biso   1.000  O
  O125     1.0000 0.11226  0.61255  0.61277  Biso   1.000  O
  O126     1.0000 0.38745  0.49972  0.61277  Biso   1.000  O
  O127     1.0000 0.80901  0.80549  0.00056  Biso   1.000  O
  O128     1.0000 0.19451  0.00352  0.00056  Biso   1.000  O
  O129     1.0000 0.99648  0.19099  0.00056  Biso   1.000  O
  O130     1.0000 0.47568  0.13882  0.33389  Biso   1.000  O
  O131     1.0000 0.86118  0.33685  0.33389  Biso   1.000  O
  O132     1.0000 0.66315  0.52432  0.33389  Biso   1.000  O
  O133     1.0000 0.14234  0.47216  0.66723  Biso   1.000  O
  O134     1.0000 0.52784  0.67019  0.66723  Biso   1.000  O
  O135     1.0000 0.32981  0.85766  0.66723  Biso   1.000  O
  O136     1.0000 0.19099  0.19451  0.99944  Biso   1.000  O
  O137     1.0000 0.80549  0.99648  0.99944  Biso   1.000  O
  O138     1.0000 0.00352  0.80901  0.99944  Biso   1.000  O
  O139     1.0000 0.85766  0.52784  0.33277  Biso   1.000  O
  O140     1.0000 0.47216  0.32981  0.33277  Biso   1.000  O
  O141     1.0000 0.67019  0.14234  0.33277  Biso   1.000  O
  O142     1.0000 0.52432  0.86118  0.66611  Biso   1.000  O
  O143     1.0000 0.13882  0.66315  0.66611  Biso   1.000  O
  O144     1.0000 0.33685  0.47568  0.66611  Biso   1.000  O
  O145     1.0000 0.86680  0.76220  0.11960  Biso   1.000  O
  O146     1.0000 0.23780  0.10460  0.11960  Biso   1.000  O
  O147     1.0000 0.89540  0.13320  0.11960  Biso   1.000  O
  O148     1.0000 0.53347  0.09553  0.45293  Biso   1.000  O
  O149     1.0000 0.90447  0.43793  0.45293  Biso   1.000  O
  O150     1.0000 0.56207  0.46653  0.45293  Biso   1.000  O
  O151     1.0000 0.20013  0.42887  0.78627  Biso   1.000  O
  O152     1.0000 0.57113  0.77127  0.78627  Biso   1.000  O
  O153     1.0000 0.22873  0.79987  0.78627  Biso   1.000  O
  O154     1.0000 0.13320  0.23780  0.88040  Biso   1.000  O
  O155     1.0000 0.76220  0.89540  0.88040  Biso   1.000  O
  O156     1.0000 0.10460  0.86680  0.88040  Biso   1.000  O
  O157     1.0000 0.79987  0.57113  0.21373  Biso   1.000  O
  O158     1.0000 0.42887  0.22873  0.21373  Biso   1.000  O
  O159     1.0000 0.77127  0.20013  0.21373  Biso   1.000  O
  O160     1.0000 0.46653  0.90447  0.54707  Biso   1.000  O
  O161     1.0000 0.09553  0.56207  0.54707  Biso   1.000  O
  O162     1.0000 0.43793  0.53347  0.54707  Biso   1.000  O
  O163     1.0000 0.92510  0.84990  0.01176  Biso   1.000  O
  O164     1.0000 0.15010  0.07520  0.01176  Biso   1.000  O
  O165     1.0000 0.92480  0.07490  0.01176  Biso   1.000  O
  O166     1.0000 0.59177  0.18323  0.34509  Biso   1.000  O
  O167     1.0000 0.81677  0.40853  0.34509  Biso   1.000  O
  O168     1.0000 0.59147  0.40823  0.34509  Biso   1.000  O
  O169     1.0000 0.25843  0.51657  0.67843  Biso   1.000  O
  O170     1.0000 0.48343  0.74187  0.67843  Biso   1.000  O
  O171     1.0000 0.25813  0.74157  0.67843  Biso   1.000  O
  O172     1.0000 0.07490  0.15010  0.98824  Biso   1.000  O
  O173     1.0000 0.84990  0.92480  0.98824  Biso   1.000  O
  O174     1.0000 0.07520  0.92510  0.98824  Biso   1.000  O
  O175     1.0000 0.74157  0.48343  0.32157  Biso   1.000  O
  O176     1.0000 0.51657  0.25813  0.32157  Biso   1.000  O
  O177     1.0000 0.74187  0.25843  0.32157  Biso   1.000  O
  O178     1.0000 0.40823  0.81677  0.65491  Biso   1.000  O
  O179     1.0000 0.18323  0.59147  0.65491  Biso   1.000  O
  O180     1.0000 0.40853  0.59177  0.65491  Biso   1.000  O
  O181     1.0000 0.96725  0.93523  0.09601  Biso   1.000  O
  O182     1.0000 0.06477  0.03202  0.09601  Biso   1.000  O
  O183     1.0000 0.96798  0.03275  0.09601  Biso   1.000  O
  O184     1.0000 0.63392  0.26856  0.42934  Biso   1.000  O
  O185     1.0000 0.73144  0.36535  0.42934  Biso   1.000  O
  O186     1.0000 0.63465  0.36608  0.42934  Biso   1.000  O
  O187     1.0000 0.30058  0.60190  0.76268  Biso   1.000  O
  O188     1.0000 0.39810  0.69869  0.76268  Biso   1.000  O
  O189     1.0000 0.30131  0.69942  0.76268  Biso   1.000  O
  O190     1.0000 0.03275  0.06477  0.90399  Biso   1.000  O
  O191     1.0000 0.93523  0.96798  0.90399  Biso   1.000  O
  O192     1.0000 0.03202  0.96725  0.90399  Biso   1.000  O
  O193     1.0000 0.69942  0.39810  0.23732  Biso   1.000  O
  O194     1.0000 0.60190  0.30131  0.23732  Biso   1.000  O
  O195     1.0000 0.69869  0.30058  0.23732  Biso   1.000  O
  O196     1.0000 0.36608  0.73144  0.57066  Biso   1.000  O
  O197     1.0000 0.26856  0.63465  0.57066  Biso   1.000  O
  O198     1.0000 0.36535  0.63392  0.57066  Biso   1.000  O
  O199     1.0000 0.00925  0.89191  0.05418  Biso   1.000  O
  O200     1.0000 0.10809  0.11734  0.05418  Biso   1.000  O
  O201     1.0000 0.88266  0.99075  0.05418  Biso   1.000  O
  O202     1.0000 0.67592  0.22524  0.38751  Biso   1.000  O
  O203     1.0000 0.77476  0.45067  0.38751  Biso   1.000  O
  O204     1.0000 0.54933  0.32408  0.38751  Biso   1.000  O
  O205     1.0000 0.34258  0.55858  0.72085  Biso   1.000  O
  O206     1.0000 0.44142  0.78401  0.72085  Biso   1.000  O
  O207     1.0000 0.21599  0.65742  0.72085  Biso   1.000  O
  O208     1.0000 0.99075  0.10809  0.94582  Biso   1.000  O
  O209     1.0000 0.89191  0.88266  0.94582  Biso   1.000  O
  O210     1.0000 0.11734  0.00925  0.94582  Biso   1.000  O
  O211     1.0000 0.65742  0.44142  0.27915  Biso   1.000  O
  O212     1.0000 0.55858  0.21599  0.27915  Biso   1.000  O
  O213     1.0000 0.78401  0.34258  0.27915  Biso   1.000  O
  O214     1.0000 0.32408  0.77476  0.61249  Biso   1.000  O
  O215     1.0000 0.22524  0.54933  0.61249  Biso   1.000  O
  O216     1.0000 0.45067  0.67592  0.61249  Biso   1.000  O
  O217     1.0000 0.88297  0.89292  0.05315  Biso   1.000  O
  O218     1.0000 0.10708  0.99005  0.05315  Biso   1.000  O
  O219     1.0000 0.00995  0.11703  0.05315  Biso   1.000  O
  O220     1.0000 0.54964  0.22625  0.38648  Biso   1.000  O
  O221     1.0000 0.77375  0.32338  0.38648  Biso   1.000  O
  O222     1.0000 0.67662  0.45036  0.38648  Biso   1.000  O
  O223     1.0000 0.21630  0.55959  0.71982  Biso   1.000  O
  O224     1.0000 0.44041  0.65672  0.71982  Biso   1.000  O
  O225     1.0000 0.34328  0.78370  0.71982  Biso   1.000  O
  O226     1.0000 0.11703  0.10708  0.94685  Biso   1.000  O
  O227     1.0000 0.89292  0.00995  0.94685  Biso   1.000  O
  O228     1.0000 0.99005  0.88297  0.94685  Biso   1.000  O
  O229     1.0000 0.78370  0.44041  0.28018  Biso   1.000  O
  O230     1.0000 0.55959  0.34328  0.28018  Biso   1.000  O
  O231     1.0000 0.65672  0.21630  0.28018  Biso   1.000  O
  O232     1.0000 0.45036  0.77375  0.61352  Biso   1.000  O
  O233     1.0000 0.22625  0.67662  0.61352  Biso   1.000  O
  O234     1.0000 0.32338  0.54964  0.61352  Biso   1.000  O
  O235     1.0000 0.75390  0.86860  0.02282  Biso   1.000  O
  O236     1.0000 0.13140  0.88530  0.02282  Biso   1.000  O
  O237     1.0000 0.11470  0.24610  0.02282  Biso   1.000  O
  O238     1.0000 0.42057  0.20193  0.35615  Biso   1.000  O
  O239     1.0000 0.79807  0.21863  0.35615  Biso   1.000  O
  O240     1.0000 0.78137  0.57943  0.35615  Biso   1.000  O
  O241     1.0000 0.08723  0.53527  0.68949  Biso   1.000  O
  O242     1.0000 0.46473  0.55197  0.68949  Biso   1.000  O
  O243     1.0000 0.44803  0.91277  0.68949  Biso   1.000  O
  O244     1.0000 0.24610  0.13140  0.97718  Biso   1.000  O
  O245     1.0000 0.86860  0.11470  0.97718  Biso   1.000  O
  O246     1.0000 0.88530  0.75390  0.97718  Biso   1.000  O
  O247     1.0000 0.91277  0.46473  0.31051  Biso   1.000  O
  O248     1.0000 0.53527  0.44803  0.31051  Biso   1.000  O
  O249     1.0000 0.55197  0.08723  0.31051  Biso   1.000  O
  O250     1.0000 0.57943  0.79807  0.64385  Biso   1.000  O
  O251     1.0000 0.20193  0.78137  0.64385  Biso   1.000  O
  O252     1.0000 0.21863  0.42057  0.64385  Biso   1.000  O
  O253     1.0000 0.77600  0.84890  0.07460  Biso   1.000  O
  O254     1.0000 0.15110  0.92710  0.07460  Biso   1.000  O
  O255     1.0000 0.07290  0.22400  0.07460  Biso   1.000  O
  O256     1.0000 0.44267  0.18223  0.40793  Biso   1.000  O
  O257     1.0000 0.81777  0.26043  0.40793  Biso   1.000  O
  O258     1.0000 0.73957  0.55733  0.40793  Biso   1.000  O
  O259     1.0000 0.10933  0.51557  0.74127  Biso   1.000  O
  O260     1.0000 0.48443  0.59377  0.74127  Biso   1.000  O
  O261     1.0000 0.40623  0.89067  0.74127  Biso   1.000  O
  O262     1.0000 0.22400  0.15110  0.92540  Biso   1.000  O
  O263     1.0000 0.84890  0.07290  0.92540  Biso   1.000  O
  O264     1.0000 0.92710  0.77600  0.92540  Biso   1.000  O
  O265     1.0000 0.89067  0.48443  0.25873  Biso   1.000  O
  O266     1.0000 0.51557  0.40623  0.25873  Biso   1.000  O
  O267     1.0000 0.59377  0.10933  0.25873  Biso   1.000  O
  O268     1.0000 0.55733  0.81777  0.59207  Biso   1.000  O
  O269     1.0000 0.18223  0.73957  0.59207  Biso   1.000  O
  O270     1.0000 0.26043  0.44267  0.59207  Biso   1.000  O
  O271     1.0000 0.78120  0.93180  0.08020  Biso   1.000  O
  O272     1.0000 0.06820  0.84940  0.08020  Biso   1.000  O
  O273     1.0000 0.15060  0.21880  0.08020  Biso   1.000  O
  O274     1.0000 0.44787  0.26513  0.41353  Biso   1.000  O
  O275     1.0000 0.73487  0.18273  0.41353  Biso   1.000  O
  O276     1.0000 0.81727  0.55213  0.41353  Biso   1.000  O
  O277     1.0000 0.11453  0.59847  0.74687  Biso   1.000  O
  O278     1.0000 0.40153  0.51607  0.74687  Biso   1.000  O
  O279     1.0000 0.48393  0.88547  0.74687  Biso   1.000  O
  O280     1.0000 0.21880  0.06820  0.91980  Biso   1.000  O
  O281     1.0000 0.93180  0.15060  0.91980  Biso   1.000  O
  O282     1.0000 0.84940  0.78120  0.91980  Biso   1.000  O
  O283     1.0000 0.88547  0.40153  0.25313  Biso   1.000  O
  O284     1.0000 0.59847  0.48393  0.25313  Biso   1.000  O
  O285     1.0000 0.51607  0.11453  0.25313  Biso   1.000  O
  O286     1.0000 0.55213  0.73487  0.58647  Biso   1.000  O
  O287     1.0000 0.26513  0.81727  0.58647  Biso   1.000  O
  O288     1.0000 0.18273  0.44787  0.58647  Biso   1.000  O
  O289     1.0000 0.96430  0.94030  0.17430  Biso   1.000  O
  O290     1.0000 0.05970  0.02400  0.17430  Biso   1.000  O
  O291     1.0000 0.97600  0.03570  0.17430  Biso   1.000  O
  O292     1.0000 0.63097  0.27363  0.50763  Biso   1.000  O
  O293     1.0000 0.72637  0.35733  0.50763  Biso   1.000  O
  O294     1.0000 0.64267  0.36903  0.50763  Biso   1.000  O
  O295     1.0000 0.29763  0.60697  0.84097  Biso   1.000  O
  O296     1.0000 0.39303  0.69067  0.84097  Biso   1.000  O
  O297     1.0000 0.30933  0.70237  0.84097  Biso   1.000  O
  O298     1.0000 0.03570  0.05970  0.82570  Biso   1.000  O
  O299     1.0000 0.94030  0.97600  0.82570  Biso   1.000  O
  O300     1.0000 0.02400  0.96430  0.82570  Biso   1.000  O
  O301     1.0000 0.70237  0.39303  0.15903  Biso   1.000  O
  O302     1.0000 0.60697  0.30933  0.15903  Biso   1.000  O
  O303     1.0000 0.69067  0.29763  0.15903  Biso   1.000  O
  O304     1.0000 0.36903  0.72637  0.49237  Biso   1.000  O
  O305     1.0000 0.27363  0.64267  0.49237  Biso   1.000  O
  O306     1.0000 0.35733  0.63097  0.49237  Biso   1.000  O
  O307     1.0000 0.00180  0.75430  0.12660  Biso   1.000  O
  O308     1.0000 0.24570  0.24750  0.12660  Biso   1.000  O
  O309     1.0000 0.75250  0.99820  0.12660  Biso   1.000  O
  O310     1.0000 0.66847  0.08763  0.45993  Biso   1.000  O
  O311     1.0000 0.91237  0.58083  0.45993  Biso   1.000  O
  O312     1.0000 0.41917  0.33153  0.45993  Biso   1.000  O
  O313     1.0000 0.33513  0.42097  0.79327  Biso   1.000  O
  O314     1.0000 0.57903  0.91417  0.79327  Biso   1.000  O
  O315     1.0000 0.08583  0.66487  0.79327  Biso   1.000  O
  O316     1.0000 0.99820  0.24570  0.87340  Biso   1.000  O
  O317     1.0000 0.75430  0.75250  0.87340  Biso   1.000  O
  O318     1.0000 0.24750  0.00180  0.87340  Biso   1.000  O
  O319     1.0000 0.66487  0.57903  0.20673  Biso   1.000  O
  O320     1.0000 0.42097  0.08583  0.20673  Biso   1.000  O
  O321     1.0000 0.91417  0.33513  0.20673  Biso   1.000  O
  O322     1.0000 0.33153  0.91237  0.54007  Biso   1.000  O
  O323     1.0000 0.08763  0.41917  0.54007  Biso   1.000  O
  O324     1.0000 0.58083  0.66847  0.54007  Biso   1.000  O
  O325     1.0000 0.74200  0.50850  0.13642  Biso   1.000  O
  O326     1.0000 0.49150  0.23350  0.13642  Biso   1.000  O
  O327     1.0000 0.76650  0.25800  0.13642  Biso   1.000  O
  O328     1.0000 0.40867  0.84183  0.46975  Biso   1.000  O
  O329     1.0000 0.15817  0.56683  0.46975  Biso   1.000  O
  O330     1.0000 0.43317  0.59133  0.46975  Biso   1.000  O
  O331     1.0000 0.07533  0.17517  0.80309  Biso   1.000  O
  O332     1.0000 0.82483  0.90017  0.80309  Biso   1.000  O
  O333     1.0000 0.09983  0.92467  0.80309  Biso   1.000  O
  O334     1.0000 0.25800  0.49150  0.86358  Biso   1.000  O
  O335     1.0000 0.50850  0.76650  0.86358  Biso   1.000  O
  O336     1.0000 0.23350  0.74200  0.86358  Biso   1.000  O
  O337     1.0000 0.92467  0.82483  0.19691  Biso   1.000  O
  O338     1.0000 0.17517  0.09983  0.19691  Biso   1.000  O
  O339     1.0000 0.90017  0.07533  0.19691  Biso   1.000  O
  O340     1.0000 0.59133  0.15817  0.53025  Biso   1.000  O
  O341     1.0000 0.84183  0.43317  0.53025  Biso   1.000  O
  O342     1.0000 0.56683  0.40867  0.53025  Biso   1.000  O
  O343     1.0000 0.85300  0.68020  0.05200  Biso   1.000  O
  O344     1.0000 0.31980  0.17280  0.05200  Biso   1.000  O
  O345     1.0000 0.82720  0.14700  0.05200  Biso   1.000  O
  O346     1.0000 0.51967  0.01353  0.38533  Biso   1.000  O
  O347     1.0000 0.98647  0.50613  0.38533  Biso   1.000  O
  O348     1.0000 0.49387  0.48033  0.38533  Biso   1.000  O
  O349     1.0000 0.18633  0.34687  0.71867  Biso   1.000  O
  O350     1.0000 0.65313  0.83947  0.71867  Biso   1.000  O
  O351     1.0000 0.16053  0.81367  0.71867  Biso   1.000  O
  O352     1.0000 0.14700  0.31980  0.94800  Biso   1.000  O
  O353     1.0000 0.68020  0.82720  0.94800  Biso   1.000  O
  O354     1.0000 0.17280  0.85300  0.94800  Biso   1.000  O
  O355     1.0000 0.81367  0.65313  0.28133  Biso   1.000  O
  O356     1.0000 0.34687  0.16053  0.28133  Biso   1.000  O
  O357     1.0000 0.83947  0.18633  0.28133  Biso   1.000  O
  O358     1.0000 0.48033  0.98647  0.61467  Biso   1.000  O
  O359     1.0000 0.01353  0.49387  0.61467  Biso   1.000  O
  O360     1.0000 0.50613  0.51967  0.61467  Biso   1.000  O
  O361     1.0000 0.90040  0.70430  0.14450  Biso   1.000  O
  O362     1.0000 0.29570  0.19610  0.14450  Biso   1.000  O
  O363     1.0000 0.80390  0.09960  0.14450  Biso   1.000  O
  O364     1.0000 0.56707  0.03763  0.47783  Biso   1.000  O
  O365     1.0000 0.96237  0.52943  0.47783  Biso   1.000  O
  O366     1.0000 0.47057  0.43293  0.47783  Biso   1.000  O
  O367     1.0000 0.23373  0.37097  0.81117  Biso   1.000  O
  O368     1.0000 0.62903  0.86277  0.81117  Biso   1.000  O
  O369     1.0000 0.13723  0.76627  0.81117  Biso   1.000  O
  O370     1.0000 0.09960  0.29570  0.85550  Biso   1.000  O
  O371     1.0000 0.70430  0.80390  0.85550  Biso   1.000  O
  O372     1.0000 0.19610  0.90040  0.85550  Biso   1.000  O
  O373     1.0000 0.76627  0.62903  0.18883  Biso   1.000  O
  O374     1.0000 0.37097  0.13723  0.18883  Biso   1.000  O
  O375     1.0000 0.86277  0.23373  0.18883  Biso   1.000  O
  O376     1.0000 0.43293  0.96237  0.52217  Biso   1.000  O
  O377     1.0000 0.03763  0.47057  0.52217  Biso   1.000  O
  O378     1.0000 0.52943  0.56707  0.52217  Biso   1.000  O
  O379     1.0000 0.94066  0.77836  0.05842  Biso   1.000  O
  O380     1.0000 0.22164  0.16230  0.05842  Biso   1.000  O
  O381     1.0000 0.83770  0.05934  0.05842  Biso   1.000  O
  O382     1.0000 0.60733  0.11169  0.39175  Biso   1.000  O
  O383     1.0000 0.88831  0.49563  0.39175  Biso   1.000  O
  O384     1.0000 0.50437  0.39267  0.39175  Biso   1.000  O
  O385     1.0000 0.27399  0.44503  0.72509  Biso   1.000  O
  O386     1.0000 0.55497  0.82897  0.72509  Biso   1.000  O
  O387     1.0000 0.17103  0.72601  0.72509  Biso   1.000  O
  O388     1.0000 0.05934  0.22164  0.94158  Biso   1.000  O
  O389     1.0000 0.77836  0.83770  0.94158  Biso   1.000  O
  O390     1.0000 0.16230  0.94066  0.94158  Biso   1.000  O
  O391     1.0000 0.72601  0.55497  0.27491  Biso   1.000  O
  O392     1.0000 0.44503  0.17103  0.27491  Biso   1.000  O
  O393     1.0000 0.82897  0.27399  0.27491  Biso   1.000  O
  O394     1.0000 0.39267  0.88831  0.60825  Biso   1.000  O
  O395     1.0000 0.11169  0.50437  0.60825  Biso   1.000  O
  O396     1.0000 0.49563  0.60733  0.60825  Biso   1.000  O
  O397     1.0000 0.97609  0.84970  0.12850  Biso   1.000  O
  O398     1.0000 0.15030  0.12639  0.12850  Biso   1.000  O
  O399     1.0000 0.87361  0.02391  0.12850  Biso   1.000  O
  O400     1.0000 0.64276  0.18303  0.46183  Biso   1.000  O
  O401     1.0000 0.81697  0.45972  0.46183  Biso   1.000  O
  O402     1.0000 0.54028  0.35724  0.46183  Biso   1.000  O
  O403     1.0000 0.30942  0.51637  0.79517  Biso   1.000  O
  O404     1.0000 0.48363  0.79306  0.79517  Biso   1.000  O
  O405     1.0000 0.20694  0.69058  0.79517  Biso   1.000  O
  O406     1.0000 0.02391  0.15030  0.87150  Biso   1.000  O
  O407     1.0000 0.84970  0.87361  0.87150  Biso   1.000  O
  O408     1.0000 0.12639  0.97609  0.87150  Biso   1.000  O
  O409     1.0000 0.69058  0.48363  0.20483  Biso   1.000  O
  O410     1.0000 0.51637  0.20694  0.20483  Biso   1.000  O
  O411     1.0000 0.79306  0.30942  0.20483  Biso   1.000  O
  O412     1.0000 0.35724  0.81697  0.53817  Biso   1.000  O
  O413     1.0000 0.18303  0.54028  0.53817  Biso   1.000  O
  O414     1.0000 0.45972  0.64276  0.53817  Biso   1.000  O
  O415     1.0000 0.76330  0.75450  0.12070  Biso   1.000  O
  O416     1.0000 0.24550  0.00880  0.12070  Biso   1.000  O
  O417     1.0000 0.99120  0.23670  0.12070  Biso   1.000  O
  O418     1.0000 0.42997  0.08783  0.45403  Biso   1.000  O
  O419     1.0000 0.91217  0.34213  0.45403  Biso   1.000  O
  O420     1.0000 0.65787  0.57003  0.45403  Biso   1.000  O
  O421     1.0000 0.09663  0.42117  0.78737  Biso   1.000  O
  O422     1.0000 0.57883  0.67547  0.78737  Biso   1.000  O
  O423     1.0000 0.32453  0.90337  0.78737  Biso   1.000  O
  O424     1.0000 0.23670  0.24550  0.87930  Biso   1.000  O
  O425     1.0000 0.75450  0.99120  0.87930  Biso   1.000  O
  O426     1.0000 0.00880  0.76330  0.87930  Biso   1.000  O
  O427     1.0000 0.90337  0.57883  0.21263  Biso   1.000  O
  O428     1.0000 0.42117  0.32453  0.21263  Biso   1.000  O
  O429     1.0000 0.67547  0.09663  0.21263  Biso   1.000  O
  O430     1.0000 0.57003  0.91217  0.54597  Biso   1.000  O
  O431     1.0000 0.08783  0.65787  0.54597  Biso   1.000  O
  O432     1.0000 0.34213  0.42997  0.54597  Biso   1.000  O
  C181     1.0000 0.76380  0.73800  0.21310  Biso   1.000  C
  C182     1.0000 0.26200  0.02580  0.21310  Biso   1.000  C
  C183     1.0000 0.97420  0.23620  0.21310  Biso   1.000  C
  C184     1.0000 0.43047  0.07133  0.54643  Biso   1.000  C
  C185     1.0000 0.92867  0.35913  0.54643  Biso   1.000  C
  C186     1.0000 0.64087  0.56953  0.54643  Biso   1.000  C
  C187     1.0000 0.09713  0.40467  0.87977  Biso   1.000  C
  C188     1.0000 0.59533  0.69247  0.87977  Biso   1.000  C
  C189     1.0000 0.30753  0.90287  0.87977  Biso   1.000  C
  C190     1.0000 0.23620  0.26200  0.78690  Biso   1.000  C
  C191     1.0000 0.73800  0.97420  0.78690  Biso   1.000  C
  C192     1.0000 0.02580  0.76380  0.78690  Biso   1.000  C
  C193     1.0000 0.90287  0.59533  0.12023  Biso   1.000  C
  C194     1.0000 0.40467  0.30753  0.12023  Biso   1.000  C
  C195     1.0000 0.69247  0.09713  0.12023  Biso   1.000  C
  C196     1.0000 0.56953  0.92867  0.45357  Biso   1.000  C
  C197     1.0000 0.07133  0.64087  0.45357  Biso   1.000  C
  C198     1.0000 0.35913  0.43047  0.45357  Biso   1.000  C
  C199     1.0000 0.78130  0.80010  0.21630  Biso   1.000  C
  C200     1.0000 0.19990  0.98120  0.21630  Biso   1.000  C
  C201     1.0000 0.01880  0.21870  0.21630  Biso   1.000  C
  C202     1.0000 0.44797  0.13343  0.54963  Biso   1.000  C
  C203     1.0000 0.86657  0.31453  0.54963  Biso   1.000  C
  C204     1.0000 0.68547  0.55203  0.54963  Biso   1.000  C
  C205     1.0000 0.11463  0.46677  0.88297  Biso   1.000  C
  C206     1.0000 0.53323  0.64787  0.88297  Biso   1.000  C
  C207     1.0000 0.35213  0.88537  0.88297  Biso   1.000  C
  C208     1.0000 0.21870  0.19990  0.78370  Biso   1.000  C
  C209     1.0000 0.80010  0.01880  0.78370  Biso   1.000  C
  C210     1.0000 0.98120  0.78130  0.78370  Biso   1.000  C
  C211     1.0000 0.88537  0.53323  0.11703  Biso   1.000  C
  C212     1.0000 0.46677  0.35213  0.11703  Biso   1.000  C
  C213     1.0000 0.64787  0.11463  0.11703  Biso   1.000  C
  C214     1.0000 0.55203  0.86657  0.45037  Biso   1.000  C
  C215     1.0000 0.13343  0.68547  0.45037  Biso   1.000  C
  C216     1.0000 0.31453  0.44797  0.45037  Biso   1.000  C
  C217     1.0000 0.81400  0.91220  0.19130  Biso   1.000  C
  C218     1.0000 0.08780  0.90180  0.19130  Biso   1.000  C
  C219     1.0000 0.09820  0.18600  0.19130  Biso   1.000  C
  C220     1.0000 0.48067  0.24553  0.52463  Biso   1.000  C
  C221     1.0000 0.75447  0.23513  0.52463  Biso   1.000  C
  C222     1.0000 0.76487  0.51933  0.52463  Biso   1.000  C
  C223     1.0000 0.14733  0.57887  0.85797  Biso   1.000  C
  C224     1.0000 0.42113  0.56847  0.85797  Biso   1.000  C
  C225     1.0000 0.43153  0.85267  0.85797  Biso   1.000  C
  C226     1.0000 0.18600  0.08780  0.80870  Biso   1.000  C
  C227     1.0000 0.91220  0.09820  0.80870  Biso   1.000  C
  C228     1.0000 0.90180  0.81400  0.80870  Biso   1.000  C
  C229     1.0000 0.85267  0.42113  0.14203  Biso   1.000  C
  C230     1.0000 0.57887  0.43153  0.14203  Biso   1.000  C
  C231     1.0000 0.56847  0.14733  0.14203  Biso   1.000  C
  C232     1.0000 0.51933  0.75447  0.47537  Biso   1.000  C
  C233     1.0000 0.24553  0.76487  0.47537  Biso   1.000  C
  C234     1.0000 0.23513  0.48067  0.47537  Biso   1.000  C
  C235     1.0000 0.71700  0.62100  0.09370  Biso   1.000  C
  C236     1.0000 0.37900  0.09600  0.09370  Biso   1.000  C
  C237     1.0000 0.90400  0.28300  0.09370  Biso   1.000  C
  C238     1.0000 0.38367  0.95433  0.42703  Biso   1.000  C
  C239     1.0000 0.04567  0.42933  0.42703  Biso   1.000  C
  C240     1.0000 0.57067  0.61633  0.42703  Biso   1.000  C
  C241     1.0000 0.05033  0.28767  0.76037  Biso   1.000  C
  C242     1.0000 0.71233  0.76267  0.76037  Biso   1.000  C
  C243     1.0000 0.23733  0.94967  0.76037  Biso   1.000  C
  C244     1.0000 0.28300  0.37900  0.90630  Biso   1.000  C
  C245     1.0000 0.62100  0.90400  0.90630  Biso   1.000  C
  C246     1.0000 0.09600  0.71700  0.90630  Biso   1.000  C
  C247     1.0000 0.94967  0.71233  0.23963  Biso   1.000  C
  C248     1.0000 0.28767  0.23733  0.23963  Biso   1.000  C
  C249     1.0000 0.76267  0.05033  0.23963  Biso   1.000  C
  C250     1.0000 0.61633  0.04567  0.57297  Biso   1.000  C
  C251     1.0000 0.95433  0.57067  0.57297  Biso   1.000  C
  C252     1.0000 0.42933  0.38367  0.57297  Biso   1.000  C
  C253     1.0000 0.69940  0.64790  0.07180  Biso   1.000  C
  C254     1.0000 0.35210  0.05150  0.07180  Biso   1.000  C
  C255     1.0000 0.94850  0.30060  0.07180  Biso   1.000  C
  C256     1.0000 0.36607  0.98123  0.40513  Biso   1.000  C
  C257     1.0000 0.01877  0.38483  0.40513  Biso   1.000  C
  C258     1.0000 0.61517  0.63393  0.40513  Biso   1.000  C
  C259     1.0000 0.03273  0.31457  0.73847  Biso   1.000  C
  C260     1.0000 0.68543  0.71817  0.73847  Biso   1.000  C
  C261     1.0000 0.28183  0.96727  0.73847  Biso   1.000  C
  C262     1.0000 0.30060  0.35210  0.92820  Biso   1.000  C
  C263     1.0000 0.64790  0.94850  0.92820  Biso   1.000  C
  C264     1.0000 0.05150  0.69940  0.92820  Biso   1.000  C
  C265     1.0000 0.96727  0.68543  0.26153  Biso   1.000  C
  C266     1.0000 0.31457  0.28183  0.26153  Biso   1.000  C
  C267     1.0000 0.71817  0.03273  0.26153  Biso   1.000  C
  C268     1.0000 0.63393  0.01877  0.59487  Biso   1.000  C
  C269     1.0000 0.98123  0.61517  0.59487  Biso   1.000  C
  C270     1.0000 0.38483  0.36607  0.59487  Biso   1.000  C
  H199     1.0000 0.74980  0.80390  0.21660  Biso   1.000  H
  H200     1.0000 0.19610  0.94590  0.21660  Biso   1.000  H
  H201     1.0000 0.05410  0.25020  0.21660  Biso   1.000  H
  H202     1.0000 0.41647  0.13723  0.54993  Biso   1.000  H
  H203     1.0000 0.86277  0.27923  0.54993  Biso   1.000  H
  H204     1.0000 0.72077  0.58353  0.54993  Biso   1.000  H
  H205     1.0000 0.08313  0.47057  0.88327  Biso   1.000  H
  H206     1.0000 0.52943  0.61257  0.88327  Biso   1.000  H
  H207     1.0000 0.38743  0.91687  0.88327  Biso   1.000  H
  H208     1.0000 0.25020  0.19610  0.78340  Biso   1.000  H
  H209     1.0000 0.80390  0.05410  0.78340  Biso   1.000  H
  H210     1.0000 0.94590  0.74980  0.78340  Biso   1.000  H
  H211     1.0000 0.91687  0.52943  0.11673  Biso   1.000  H
  H212     1.0000 0.47057  0.38743  0.11673  Biso   1.000  H
  H213     1.0000 0.61257  0.08313  0.11673  Biso   1.000  H
  H214     1.0000 0.58353  0.86277  0.45007  Biso   1.000  H
  H215     1.0000 0.13723  0.72077  0.45007  Biso   1.000  H
  H216     1.0000 0.27923  0.41647  0.45007  Biso   1.000  H
  H217     1.0000 0.80060  0.81460  0.23980  Biso   1.000  H
  H218     1.0000 0.18540  0.98600  0.23980  Biso   1.000  H
  H219     1.0000 0.01400  0.19940  0.23980  Biso   1.000  H
  H220     1.0000 0.46727  0.14793  0.57313  Biso   1.000  H
  H221     1.0000 0.85207  0.31933  0.57313  Biso   1.000  H
  H222     1.0000 0.68067  0.53273  0.57313  Biso   1.000  H
  H223     1.0000 0.13393  0.48127  0.90647  Biso   1.000  H
  H224     1.0000 0.51873  0.65267  0.90647  Biso   1.000  H
  H225     1.0000 0.34733  0.86607  0.90647  Biso   1.000  H
  H226     1.0000 0.19940  0.18540  0.76020  Biso   1.000  H
  H227     1.0000 0.81460  0.01400  0.76020  Biso   1.000  H
  H228     1.0000 0.98600  0.80060  0.76020  Biso   1.000  H
  H229     1.0000 0.86607  0.51873  0.09353  Biso   1.000  H
  H230     1.0000 0.48127  0.34733  0.09353  Biso   1.000  H
  H231     1.0000 0.65267  0.13393  0.09353  Biso   1.000  H
  H232     1.0000 0.53273  0.85207  0.42687  Biso   1.000  H
  H233     1.0000 0.14793  0.68067  0.42687  Biso   1.000  H
  H234     1.0000 0.31933  0.46727  0.42687  Biso   1.000  H
  H235     1.0000 0.79480  0.90140  0.21470  Biso   1.000  H
  H236     1.0000 0.09860  0.89340  0.21470  Biso   1.000  H
  H237     1.0000 0.10660  0.20520  0.21470  Biso   1.000  H
  H238     1.0000 0.46147  0.23473  0.54803  Biso   1.000  H
  H239     1.0000 0.76527  0.22673  0.54803  Biso   1.000  H
  H240     1.0000 0.77327  0.53853  0.54803  Biso   1.000  H
  H241     1.0000 0.12813  0.56807  0.88137  Biso   1.000  H
  H242     1.0000 0.43193  0.56007  0.88137  Biso   1.000  H
  H243     1.0000 0.43993  0.87187  0.88137  Biso   1.000  H
  H244     1.0000 0.20520  0.09860  0.78530  Biso   1.000  H
  H245     1.0000 0.90140  0.10660  0.78530  Biso   1.000  H
  H246     1.0000 0.89340  0.79480  0.78530  Biso   1.000  H
  H247     1.0000 0.87187  0.43193  0.11863  Biso   1.000  H
  H248     1.0000 0.56807  0.43993  0.11863  Biso   1.000  H
  H249     1.0000 0.56007  0.12813  0.11863  Biso   1.000  H
  H250     1.0000 0.53853  0.76527  0.45197  Biso   1.000  H
  H251     1.0000 0.23473  0.77327  0.45197  Biso   1.000  H
  H252     1.0000 0.22673  0.46147  0.45197  Biso   1.000  H
  H253     1.0000 0.79110  0.91180  0.17160  Biso   1.000  H
  H254     1.0000 0.08820  0.87930  0.17160  Biso   1.000  H
  H255     1.0000 0.12070  0.20890  0.17160  Biso   1.000  H
  H256     1.0000 0.45777  0.24513  0.50493  Biso   1.000  H
  H257     1.0000 0.75487  0.21263  0.50493  Biso   1.000  H
  H258     1.0000 0.78737  0.54223  0.50493  Biso   1.000  H
  H259     1.0000 0.12443  0.57847  0.83827  Biso   1.000  H
  H260     1.0000 0.42153  0.54597  0.83827  Biso   1.000  H
  H261     1.0000 0.45403  0.87557  0.83827  Biso   1.000  H
  H262     1.0000 0.20890  0.08820  0.82840  Biso   1.000  H
  H263     1.0000 0.91180  0.12070  0.82840  Biso   1.000  H
  H264     1.0000 0.87930  0.79110  0.82840  Biso   1.000  H
  H265     1.0000 0.87557  0.42153  0.16173  Biso   1.000  H
  H266     1.0000 0.57847  0.45403  0.16173  Biso   1.000  H
  H267     1.0000 0.54597  0.12443  0.16173  Biso   1.000  H
  H268     1.0000 0.54223  0.75487  0.49507  Biso   1.000  H
  H269     1.0000 0.24513  0.78737  0.49507  Biso   1.000  H
  H270     1.0000 0.21263  0.45777  0.49507  Biso   1.000  H
  H271     1.0000 0.84420  0.94770  0.19390  Biso   1.000  H
  H272     1.0000 0.05230  0.89650  0.19390  Biso   1.000  H
  H273     1.0000 0.10350  0.15580  0.19390  Biso   1.000  H
  H274     1.0000 0.51087  0.28103  0.52723  Biso   1.000  H
  H275     1.0000 0.71897  0.22983  0.52723  Biso   1.000  H
  H276     1.0000 0.77017  0.48913  0.52723  Biso   1.000  H
  H277     1.0000 0.17753  0.61437  0.86057  Biso   1.000  H
  H278     1.0000 0.38563  0.56317  0.86057  Biso   1.000  H
  H279     1.0000 0.43683  0.82247  0.86057  Biso   1.000  H
  H280     1.0000 0.15580  0.05230  0.80610  Biso   1.000  H
  H281     1.0000 0.94770  0.10350  0.80610  Biso   1.000  H
  H282     1.0000 0.89650  0.84420  0.80610  Biso   1.000  H
  H283     1.0000 0.82247  0.38563  0.13943  Biso   1.000  H
  H284     1.0000 0.61437  0.43683  0.13943  Biso   1.000  H
  H285     1.0000 0.56317  0.17753  0.13943  Biso   1.000  H
  H286     1.0000 0.48913  0.71897  0.47277  Biso   1.000  H
  H287     1.0000 0.28103  0.77017  0.47277  Biso   1.000  H
  H288     1.0000 0.22983  0.51087  0.47277  Biso   1.000  H
  H289     1.0000 0.68460  0.66500  0.08740  Biso   1.000  H
  H290     1.0000 0.33500  0.01960  0.08740  Biso   1.000  H
  H291     1.0000 0.98040  0.31540  0.08740  Biso   1.000  H
  H292     1.0000 0.35127  0.99833  0.42073  Biso   1.000  H
  H293     1.0000 0.00167  0.35293  0.42073  Biso   1.000  H
  H294     1.0000 0.64707  0.64873  0.42073  Biso   1.000  H
  H295     1.0000 0.01793  0.33167  0.75407  Biso   1.000  H
  H296     1.0000 0.66833  0.68627  0.75407  Biso   1.000  H
  H297     1.0000 0.31373  0.98207  0.75407  Biso   1.000  H
  H298     1.0000 0.31540  0.33500  0.91260  Biso   1.000  H
  H299     1.0000 0.66500  0.98040  0.91260  Biso   1.000  H
  H300     1.0000 0.01960  0.68460  0.91260  Biso   1.000  H
  H301     1.0000 0.98207  0.66833  0.24593  Biso   1.000  H
  H302     1.0000 0.33167  0.31373  0.24593  Biso   1.000  H
  H303     1.0000 0.68627  0.01793  0.24593  Biso   1.000  H
  H304     1.0000 0.64873  0.00167  0.57927  Biso   1.000  H
  H305     1.0000 0.99833  0.64707  0.57927  Biso   1.000  H
  H306     1.0000 0.35293  0.35127  0.57927  Biso   1.000  H
  H307     1.0000 0.67220  0.62390  0.05420  Biso   1.000  H
  H308     1.0000 0.37610  0.04830  0.05420  Biso   1.000  H
  H309     1.0000 0.95170  0.32780  0.05420  Biso   1.000  H
  H310     1.0000 0.33887  0.95723  0.38753  Biso   1.000  H
  H311     1.0000 0.04277  0.38163  0.38753  Biso   1.000  H
  H312     1.0000 0.61837  0.66113  0.38753  Biso   1.000  H
  H313     1.0000 0.00553  0.29057  0.72087  Biso   1.000  H
  H314     1.0000 0.70943  0.71497  0.72087  Biso   1.000  H
  H315     1.0000 0.28503  0.99447  0.72087  Biso   1.000  H
  H316     1.0000 0.32780  0.37610  0.94580  Biso   1.000  H
  H317     1.0000 0.62390  0.95170  0.94580  Biso   1.000  H
  H318     1.0000 0.04830  0.67220  0.94580  Biso   1.000  H
  H319     1.0000 0.99447  0.70943  0.27913  Biso   1.000  H
  H320     1.0000 0.29057  0.28503  0.27913  Biso   1.000  H
  H321     1.0000 0.71497  0.00553  0.27913  Biso   1.000  H
  H322     1.0000 0.66113  0.04277  0.61247  Biso   1.000  H
  H323     1.0000 0.95723  0.61837  0.61247  Biso   1.000  H
  H324     1.0000 0.38163  0.33887  0.61247  Biso   1.000  H
  O433     1.0000 0.73810  0.69810  0.23000  Biso   1.000  O
  O434     1.0000 0.30190  0.04000  0.23000  Biso   1.000  O
  O435     1.0000 0.96000  0.26190  0.23000  Biso   1.000  O
  O436     1.0000 0.40477  0.03143  0.56333  Biso   1.000  O
  O437     1.0000 0.96857  0.37333  0.56333  Biso   1.000  O
  O438     1.0000 0.62667  0.59523  0.56333  Biso   1.000  O
  O439     1.0000 0.07143  0.36477  0.89667  Biso   1.000  O
  O440     1.0000 0.63523  0.70667  0.89667  Biso   1.000  O
  O441     1.0000 0.29333  0.92857  0.89667  Biso   1.000  O
  O442     1.0000 0.26190  0.30190  0.77000  Biso   1.000  O
  O443     1.0000 0.69810  0.96000  0.77000  Biso   1.000  O
  O444     1.0000 0.04000  0.73810  0.77000  Biso   1.000  O
  O445     1.0000 0.92857  0.63523  0.10333  Biso   1.000  O
  O446     1.0000 0.36477  0.29333  0.10333  Biso   1.000  O
  O447     1.0000 0.70667  0.07143  0.10333  Biso   1.000  O
  O448     1.0000 0.59523  0.96857  0.43667  Biso   1.000  O
  O449     1.0000 0.03143  0.62667  0.43667  Biso   1.000  O
  O450     1.0000 0.37333  0.40477  0.43667  Biso   1.000  O
  O451     1.0000 0.69200  0.58460  0.11520  Biso   1.000  O
  O452     1.0000 0.41540  0.10740  0.11520  Biso   1.000  O
  O453     1.0000 0.89260  0.30800  0.11520  Biso   1.000  O
  O454     1.0000 0.35867  0.91793  0.44853  Biso   1.000  O
  O455     1.0000 0.08207  0.44073  0.44853  Biso   1.000  O
  O456     1.0000 0.55927  0.64133  0.44853  Biso   1.000  O
  O457     1.0000 0.02533  0.25127  0.78187  Biso   1.000  O
  O458     1.0000 0.74873  0.77407  0.78187  Biso   1.000  O
  O459     1.0000 0.22593  0.97467  0.78187  Biso   1.000  O
  O460     1.0000 0.30800  0.41540  0.88480  Biso   1.000  O
  O461     1.0000 0.58460  0.89260  0.88480  Biso   1.000  O
  O462     1.0000 0.10740  0.69200  0.88480  Biso   1.000  O
  O463     1.0000 0.97467  0.74873  0.21813  Biso   1.000  O
  O464     1.0000 0.25127  0.22593  0.21813  Biso   1.000  O
  O465     1.0000 0.77407  0.02533  0.21813  Biso   1.000  O
  O466     1.0000 0.64133  0.08207  0.55147  Biso   1.000  O
  O467     1.0000 0.91793  0.55927  0.55147  Biso   1.000  O
  O468     1.0000 0.44073  0.35867  0.55147  Biso   1.000  O
