data_image0
_cell_length_a       24.557
_cell_length_b       24.557
_cell_length_c       24.557
_cell_angle_alpha    90
_cell_angle_beta     90
_cell_angle_gamma    90

_symmetry_space_group_name_H-M    "P 1"
_symmetry_int_tables_number       1

loop_
  _symmetry_equiv_pos_as_xyz
  'x, y, z'

loop_
  _atom_site_label
  _atom_site_occupancy
  _atom_site_fract_x
  _atom_site_fract_y
  _atom_site_fract_z
  _atom_site_thermal_displace_type
  _atom_site_B_iso_or_equiv
  _atom_site_type_symbol
  Cu1      1.0000 0.75701  0.65931  0.92616  Biso   1.000  Cu
  Cu2      1.0000 0.74299  0.34069  0.42616  Biso   1.000  Cu
  Cu3      1.0000 0.24299  0.15931  0.57384  Biso   1.000  Cu
  Cu4      1.0000 0.25701  0.84069  0.07384  Biso   1.000  Cu
  Cu5      1.0000 0.92616  0.75701  0.65931  Biso   1.000  Cu
  Cu6      1.0000 0.42616  0.74299  0.34069  Biso   1.000  Cu
  Cu7      1.0000 0.57384  0.24299  0.15931  Biso   1.000  Cu
  Cu8      1.0000 0.07384  0.25701  0.84069  Biso   1.000  Cu
  Cu9      1.0000 0.65931  0.92616  0.75701  Biso   1.000  Cu
  Cu10     1.0000 0.34069  0.42616  0.74299  Biso   1.000  Cu
  Cu11     1.0000 0.15931  0.57384  0.24299  Biso   1.000  Cu
  Cu12     1.0000 0.84069  0.07384  0.25701  Biso   1.000  Cu
  Cu13     1.0000 0.90931  0.00701  0.17616  Biso   1.000  Cu
  Cu14     1.0000 0.59069  0.99299  0.67616  Biso   1.000  Cu
  Cu15     1.0000 0.40931  0.49299  0.82384  Biso   1.000  Cu
  Cu16     1.0000 0.09069  0.50701  0.32384  Biso   1.000  Cu
  Cu17     1.0000 0.00701  0.17616  0.90931  Biso   1.000  Cu
  Cu18     1.0000 0.99299  0.67616  0.59069  Biso   1.000  Cu
  Cu19     1.0000 0.49299  0.82384  0.40931  Biso   1.000  Cu
  Cu20     1.0000 0.50701  0.32384  0.09069  Biso   1.000  Cu
  Cu21     1.0000 0.17616  0.90931  0.00701  Biso   1.000  Cu
  Cu22     1.0000 0.67616  0.59069  0.99299  Biso   1.000  Cu
  Cu23     1.0000 0.82384  0.40931  0.49299  Biso   1.000  Cu
  Cu24     1.0000 0.32384  0.09069  0.50701  Biso   1.000  Cu
  Cu25     1.0000 0.25701  0.15931  0.42616  Biso   1.000  Cu
  Cu26     1.0000 0.24299  0.84069  0.92616  Biso   1.000  Cu
  Cu27     1.0000 0.74299  0.65931  0.07384  Biso   1.000  Cu
  Cu28     1.0000 0.75701  0.34069  0.57384  Biso   1.000  Cu
  Cu29     1.0000 0.42616  0.25701  0.15931  Biso   1.000  Cu
  Cu30     1.0000 0.92616  0.24299  0.84069  Biso   1.000  Cu
  Cu31     1.0000 0.07384  0.74299  0.65931  Biso   1.000  Cu
  Cu32     1.0000 0.57384  0.75701  0.34069  Biso   1.000  Cu
  Cu33     1.0000 0.15931  0.42616  0.25701  Biso   1.000  Cu
  Cu34     1.0000 0.84069  0.92616  0.24299  Biso   1.000  Cu
  Cu35     1.0000 0.65931  0.07384  0.74299  Biso   1.000  Cu
  Cu36     1.0000 0.34069  0.57384  0.75701  Biso   1.000  Cu
  Cu37     1.0000 0.40931  0.50701  0.67616  Biso   1.000  Cu
  Cu38     1.0000 0.09069  0.49299  0.17616  Biso   1.000  Cu
  Cu39     1.0000 0.90931  0.99299  0.32384  Biso   1.000  Cu
  Cu40     1.0000 0.59069  0.00701  0.82384  Biso   1.000  Cu
  Cu41     1.0000 0.50701  0.67616  0.40931  Biso   1.000  Cu
  Cu42     1.0000 0.49299  0.17616  0.09069  Biso   1.000  Cu
  Cu43     1.0000 0.99299  0.32384  0.90931  Biso   1.000  Cu
  Cu44     1.0000 0.00701  0.82384  0.59069  Biso   1.000  Cu
  Cu45     1.0000 0.67616  0.40931  0.50701  Biso   1.000  Cu
  Cu46     1.0000 0.17616  0.09069  0.49299  Biso   1.000  Cu
  Cu47     1.0000 0.32384  0.90931  0.99299  Biso   1.000  Cu
  Cu48     1.0000 0.82384  0.59069  0.00701  Biso   1.000  Cu
  O1       1.0000 0.80395  0.66512  0.99141  Biso   1.000  O
  O2       1.0000 0.69605  0.33488  0.49141  Biso   1.000  O
  O3       1.0000 0.19605  0.16512  0.50859  Biso   1.000  O
  O4       1.0000 0.30395  0.83488  0.00859  Biso   1.000  O
  O5       1.0000 0.99141  0.80395  0.66512  Biso   1.000  O
  O6       1.0000 0.49141  0.69605  0.33488  Biso   1.000  O
  O7       1.0000 0.50859  0.19605  0.16512  Biso   1.000  O
  O8       1.0000 0.00859  0.30395  0.83488  Biso   1.000  O
  O9       1.0000 0.66512  0.99141  0.80395  Biso   1.000  O
  O10      1.0000 0.33488  0.49141  0.69605  Biso   1.000  O
  O11      1.0000 0.16512  0.50859  0.19605  Biso   1.000  O
  O12      1.0000 0.83488  0.00859  0.30395  Biso   1.000  O
  O13      1.0000 0.91512  0.05395  0.24141  Biso   1.000  O
  O14      1.0000 0.58488  0.94605  0.74141  Biso   1.000  O
  O15      1.0000 0.41512  0.44605  0.75859  Biso   1.000  O
  O16      1.0000 0.08488  0.55395  0.25859  Biso   1.000  O
  O17      1.0000 0.05395  0.24141  0.91512  Biso   1.000  O
  O18      1.0000 0.94605  0.74141  0.58488  Biso   1.000  O
  O19      1.0000 0.44605  0.75859  0.41512  Biso   1.000  O
  O20      1.0000 0.55395  0.25859  0.08488  Biso   1.000  O
  O21      1.0000 0.24141  0.91512  0.05395  Biso   1.000  O
  O22      1.0000 0.74141  0.58488  0.94605  Biso   1.000  O
  O23      1.0000 0.75859  0.41512  0.44605  Biso   1.000  O
  O24      1.0000 0.25859  0.08488  0.55395  Biso   1.000  O
  O25      1.0000 0.30395  0.16512  0.49141  Biso   1.000  O
  O26      1.0000 0.19605  0.83488  0.99141  Biso   1.000  O
  O27      1.0000 0.69605  0.66512  0.00859  Biso   1.000  O
  O28      1.0000 0.80395  0.33488  0.50859  Biso   1.000  O
  O29      1.0000 0.49141  0.30395  0.16512  Biso   1.000  O
  O30      1.0000 0.99141  0.19605  0.83488  Biso   1.000  O
  O31      1.0000 0.00859  0.69605  0.66512  Biso   1.000  O
  O32      1.0000 0.50859  0.80395  0.33488  Biso   1.000  O
  O33      1.0000 0.16512  0.49141  0.30395  Biso   1.000  O
  O34      1.0000 0.83488  0.99141  0.19605  Biso   1.000  O
  O35      1.0000 0.66512  0.00859  0.69605  Biso   1.000  O
  O36      1.0000 0.33488  0.50859  0.80395  Biso   1.000  O
  O37      1.0000 0.41512  0.55395  0.74141  Biso   1.000  O
  O38      1.0000 0.08488  0.44605  0.24141  Biso   1.000  O
  O39      1.0000 0.91512  0.94605  0.25859  Biso   1.000  O
  O40      1.0000 0.58488  0.05395  0.75859  Biso   1.000  O
  O41      1.0000 0.55395  0.74141  0.41512  Biso   1.000  O
  O42      1.0000 0.44605  0.24141  0.08488  Biso   1.000  O
  O43      1.0000 0.94605  0.25859  0.91512  Biso   1.000  O
  O44      1.0000 0.05395  0.75859  0.58488  Biso   1.000  O
  O45      1.0000 0.74141  0.41512  0.55395  Biso   1.000  O
  O46      1.0000 0.24141  0.08488  0.44605  Biso   1.000  O
  O47      1.0000 0.25859  0.91512  0.94605  Biso   1.000  O
  O48      1.0000 0.75859  0.58488  0.05395  Biso   1.000  O
  O49      1.0000 0.50000  0.75000  0.73450  Biso   1.000  O
  O50      1.0000 0.00000  0.25000  0.23450  Biso   1.000  O
  O51      1.0000 0.50000  0.25000  0.76550  Biso   1.000  O
  O52      1.0000 0.00000  0.75000  0.26550  Biso   1.000  O
  O53      1.0000 0.73450  0.50000  0.75000  Biso   1.000  O
  O54      1.0000 0.23450  0.00000  0.25000  Biso   1.000  O
  O55      1.0000 0.76550  0.50000  0.25000  Biso   1.000  O
  O56      1.0000 0.26550  0.00000  0.75000  Biso   1.000  O
  O57      1.0000 0.75000  0.73450  0.50000  Biso   1.000  O
  O58      1.0000 0.25000  0.23450  0.00000  Biso   1.000  O
  O59      1.0000 0.25000  0.76550  0.50000  Biso   1.000  O
  O60      1.0000 0.75000  0.26550  0.00000  Biso   1.000  O
  O61      1.0000 0.00000  0.75000  0.98450  Biso   1.000  O
  O62      1.0000 0.50000  0.25000  0.48450  Biso   1.000  O
  O63      1.0000 0.50000  0.75000  0.01550  Biso   1.000  O
  O64      1.0000 0.00000  0.25000  0.51550  Biso   1.000  O
  O65      1.0000 0.75000  0.98450  0.00000  Biso   1.000  O
  O66      1.0000 0.25000  0.48450  0.50000  Biso   1.000  O
  O67      1.0000 0.75000  0.01550  0.50000  Biso   1.000  O
  O68      1.0000 0.25000  0.51550  0.00000  Biso   1.000  O
  O69      1.0000 0.98450  0.00000  0.75000  Biso   1.000  O
  O70      1.0000 0.48450  0.50000  0.25000  Biso   1.000  O
  O71      1.0000 0.01550  0.50000  0.75000  Biso   1.000  O
  O72      1.0000 0.51550  0.00000  0.25000  Biso   1.000  O
  N1       1.0000 0.77250  0.73980  0.92240  Biso   1.000  N
  N2       1.0000 0.72750  0.26020  0.42240  Biso   1.000  N
  N3       1.0000 0.22750  0.23980  0.57760  Biso   1.000  N
  N4       1.0000 0.27250  0.76020  0.07760  Biso   1.000  N
  N5       1.0000 0.92240  0.77250  0.73980  Biso   1.000  N
  N6       1.0000 0.42240  0.72750  0.26020  Biso   1.000  N
  N7       1.0000 0.57760  0.22750  0.23980  Biso   1.000  N
  N8       1.0000 0.07760  0.27250  0.76020  Biso   1.000  N
  N9       1.0000 0.73980  0.92240  0.77250  Biso   1.000  N
  N10      1.0000 0.26020  0.42240  0.72750  Biso   1.000  N
  N11      1.0000 0.23980  0.57760  0.22750  Biso   1.000  N
  N12      1.0000 0.76020  0.07760  0.27250  Biso   1.000  N
  N13      1.0000 0.98980  0.02250  0.17240  Biso   1.000  N
  N14      1.0000 0.51020  0.97750  0.67240  Biso   1.000  N
  N15      1.0000 0.48980  0.47750  0.82760  Biso   1.000  N
  N16      1.0000 0.01020  0.52250  0.32760  Biso   1.000  N
  N17      1.0000 0.02250  0.17240  0.98980  Biso   1.000  N
  N18      1.0000 0.97750  0.67240  0.51020  Biso   1.000  N
  N19      1.0000 0.47750  0.82760  0.48980  Biso   1.000  N
  N20      1.0000 0.52250  0.32760  0.01020  Biso   1.000  N
  N21      1.0000 0.17240  0.98980  0.02250  Biso   1.000  N
  N22      1.0000 0.67240  0.51020  0.97750  Biso   1.000  N
  N23      1.0000 0.82760  0.48980  0.47750  Biso   1.000  N
  N24      1.0000 0.32760  0.01020  0.52250  Biso   1.000  N
  N25      1.0000 0.27250  0.23980  0.42240  Biso   1.000  N
  N26      1.0000 0.22750  0.76020  0.92240  Biso   1.000  N
  N27      1.0000 0.72750  0.73980  0.07760  Biso   1.000  N
  N28      1.0000 0.77250  0.26020  0.57760  Biso   1.000  N
  N29      1.0000 0.42240  0.27250  0.23980  Biso   1.000  N
  N30      1.0000 0.92240  0.22750  0.76020  Biso   1.000  N
  N31      1.0000 0.07760  0.72750  0.73980  Biso   1.000  N
  N32      1.0000 0.57760  0.77250  0.26020  Biso   1.000  N
  N33      1.0000 0.23980  0.42240  0.27250  Biso   1.000  N
  N34      1.0000 0.76020  0.92240  0.22750  Biso   1.000  N
  N35      1.0000 0.73980  0.07760  0.72750  Biso   1.000  N
  N36      1.0000 0.26020  0.57760  0.77250  Biso   1.000  N
  N37      1.0000 0.48980  0.52250  0.67240  Biso   1.000  N
  N38      1.0000 0.01020  0.47750  0.17240  Biso   1.000  N
  N39      1.0000 0.98980  0.97750  0.32760  Biso   1.000  N
  N40      1.0000 0.51020  0.02250  0.82760  Biso   1.000  N
  N41      1.0000 0.52250  0.67240  0.48980  Biso   1.000  N
  N42      1.0000 0.47750  0.17240  0.01020  Biso   1.000  N
  N43      1.0000 0.97750  0.32760  0.98980  Biso   1.000  N
  N44      1.0000 0.02250  0.82760  0.51020  Biso   1.000  N
  N45      1.0000 0.67240  0.48980  0.52250  Biso   1.000  N
  N46      1.0000 0.17240  0.01020  0.47750  Biso   1.000  N
  N47      1.0000 0.32760  0.98980  0.97750  Biso   1.000  N
  N48      1.0000 0.82760  0.51020  0.02250  Biso   1.000  N
  O73      1.0000 0.70289  0.66320  0.86744  Biso   1.000  O
  O74      1.0000 0.79711  0.33680  0.36744  Biso   1.000  O
  O75      1.0000 0.29711  0.16320  0.63256  Biso   1.000  O
  O76      1.0000 0.20289  0.83680  0.13256  Biso   1.000  O
  O77      1.0000 0.86744  0.70289  0.66320  Biso   1.000  O
  O78      1.0000 0.36744  0.79711  0.33680  Biso   1.000  O
  O79      1.0000 0.63256  0.29711  0.16320  Biso   1.000  O
  O80      1.0000 0.13256  0.20289  0.83680  Biso   1.000  O
  O81      1.0000 0.66320  0.86744  0.70289  Biso   1.000  O
  O82      1.0000 0.33680  0.36744  0.79711  Biso   1.000  O
  O83      1.0000 0.16320  0.63256  0.29711  Biso   1.000  O
  O84      1.0000 0.83680  0.13256  0.20289  Biso   1.000  O
  O85      1.0000 0.91320  0.95289  0.11744  Biso   1.000  O
  O86      1.0000 0.58680  0.04711  0.61744  Biso   1.000  O
  O87      1.0000 0.41320  0.54711  0.88256  Biso   1.000  O
  O88      1.0000 0.08680  0.45289  0.38256  Biso   1.000  O
  O89      1.0000 0.95289  0.11744  0.91320  Biso   1.000  O
  O90      1.0000 0.04711  0.61744  0.58680  Biso   1.000  O
  O91      1.0000 0.54711  0.88256  0.41320  Biso   1.000  O
  O92      1.0000 0.45289  0.38256  0.08680  Biso   1.000  O
  O93      1.0000 0.11744  0.91320  0.95289  Biso   1.000  O
  O94      1.0000 0.61744  0.58680  0.04711  Biso   1.000  O
  O95      1.0000 0.88256  0.41320  0.54711  Biso   1.000  O
  O96      1.0000 0.38256  0.08680  0.45289  Biso   1.000  O
  O97      1.0000 0.20289  0.16320  0.36744  Biso   1.000  O
  O98      1.0000 0.29711  0.83680  0.86744  Biso   1.000  O
  O99      1.0000 0.79711  0.66320  0.13256  Biso   1.000  O
  O100     1.0000 0.70289  0.33680  0.63256  Biso   1.000  O
  O101     1.0000 0.36744  0.20289  0.16320  Biso   1.000  O
  O102     1.0000 0.86744  0.29711  0.83680  Biso   1.000  O
  O103     1.0000 0.13256  0.79711  0.66320  Biso   1.000  O
  O104     1.0000 0.63256  0.70289  0.33680  Biso   1.000  O
  O105     1.0000 0.16320  0.36744  0.20289  Biso   1.000  O
  O106     1.0000 0.83680  0.86744  0.29711  Biso   1.000  O
  O107     1.0000 0.66320  0.13256  0.79711  Biso   1.000  O
  O108     1.0000 0.33680  0.63256  0.70289  Biso   1.000  O
  O109     1.0000 0.41320  0.45289  0.61744  Biso   1.000  O
  O110     1.0000 0.08680  0.54711  0.11744  Biso   1.000  O
  O111     1.0000 0.91320  0.04711  0.38256  Biso   1.000  O
  O112     1.0000 0.58680  0.95289  0.88256  Biso   1.000  O
  O113     1.0000 0.45289  0.61744  0.41320  Biso   1.000  O
  O114     1.0000 0.54711  0.11744  0.08680  Biso   1.000  O
  O115     1.0000 0.04711  0.38256  0.91320  Biso   1.000  O
  O116     1.0000 0.95289  0.88256  0.58680  Biso   1.000  O
  O117     1.0000 0.61744  0.41320  0.45289  Biso   1.000  O
  O118     1.0000 0.11744  0.08680  0.54711  Biso   1.000  O
  O119     1.0000 0.38256  0.91320  0.04711  Biso   1.000  O
  O120     1.0000 0.88256  0.58680  0.95289  Biso   1.000  O
  C1       1.0000 0.83850  0.71050  0.98900  Biso   1.000  C
  C2       1.0000 0.66150  0.28950  0.48900  Biso   1.000  C
  C3       1.0000 0.16150  0.21050  0.51100  Biso   1.000  C
  C4       1.0000 0.33850  0.78950  0.01100  Biso   1.000  C
  C5       1.0000 0.98900  0.83850  0.71050  Biso   1.000  C
  C6       1.0000 0.48900  0.66150  0.28950  Biso   1.000  C
  C7       1.0000 0.51100  0.16150  0.21050  Biso   1.000  C
  C8       1.0000 0.01100  0.33850  0.78950  Biso   1.000  C
  C9       1.0000 0.71050  0.98900  0.83850  Biso   1.000  C
  C10      1.0000 0.28950  0.48900  0.66150  Biso   1.000  C
  C11      1.0000 0.21050  0.51100  0.16150  Biso   1.000  C
  C12      1.0000 0.78950  0.01100  0.33850  Biso   1.000  C
  C13      1.0000 0.96050  0.08850  0.23900  Biso   1.000  C
  C14      1.0000 0.53950  0.91150  0.73900  Biso   1.000  C
  C15      1.0000 0.46050  0.41150  0.76100  Biso   1.000  C
  C16      1.0000 0.03950  0.58850  0.26100  Biso   1.000  C
  C17      1.0000 0.08850  0.23900  0.96050  Biso   1.000  C
  C18      1.0000 0.91150  0.73900  0.53950  Biso   1.000  C
  C19      1.0000 0.41150  0.76100  0.46050  Biso   1.000  C
  C20      1.0000 0.58850  0.26100  0.03950  Biso   1.000  C
  C21      1.0000 0.23900  0.96050  0.08850  Biso   1.000  C
  C22      1.0000 0.73900  0.53950  0.91150  Biso   1.000  C
  C23      1.0000 0.76100  0.46050  0.41150  Biso   1.000  C
  C24      1.0000 0.26100  0.03950  0.58850  Biso   1.000  C
  C25      1.0000 0.33850  0.21050  0.48900  Biso   1.000  C
  C26      1.0000 0.16150  0.78950  0.98900  Biso   1.000  C
  C27      1.0000 0.66150  0.71050  0.01100  Biso   1.000  C
  C28      1.0000 0.83850  0.28950  0.51100  Biso   1.000  C
  C29      1.0000 0.48900  0.33850  0.21050  Biso   1.000  C
  C30      1.0000 0.98900  0.16150  0.78950  Biso   1.000  C
  C31      1.0000 0.01100  0.66150  0.71050  Biso   1.000  C
  C32      1.0000 0.51100  0.83850  0.28950  Biso   1.000  C
  C33      1.0000 0.21050  0.48900  0.33850  Biso   1.000  C
  C34      1.0000 0.78950  0.98900  0.16150  Biso   1.000  C
  C35      1.0000 0.71050  0.01100  0.66150  Biso   1.000  C
  C36      1.0000 0.28950  0.51100  0.83850  Biso   1.000  C
  C37      1.0000 0.46050  0.58850  0.73900  Biso   1.000  C
  C38      1.0000 0.03950  0.41150  0.23900  Biso   1.000  C
  C39      1.0000 0.96050  0.91150  0.26100  Biso   1.000  C
  C40      1.0000 0.53950  0.08850  0.76100  Biso   1.000  C
  C41      1.0000 0.58850  0.73900  0.46050  Biso   1.000  C
  C42      1.0000 0.41150  0.23900  0.03950  Biso   1.000  C
  C43      1.0000 0.91150  0.26100  0.96050  Biso   1.000  C
  C44      1.0000 0.08850  0.76100  0.53950  Biso   1.000  C
  C45      1.0000 0.73900  0.46050  0.58850  Biso   1.000  C
  C46      1.0000 0.23900  0.03950  0.41150  Biso   1.000  C
  C47      1.0000 0.26100  0.96050  0.91150  Biso   1.000  C
  C48      1.0000 0.76100  0.53950  0.08850  Biso   1.000  C
  H1       1.0000 0.87230  0.70060  0.97130  Biso   1.000  H
  H2       1.0000 0.62770  0.29940  0.47130  Biso   1.000  H
  H3       1.0000 0.12770  0.20060  0.52870  Biso   1.000  H
  H4       1.0000 0.37230  0.79940  0.02870  Biso   1.000  H
  H5       1.0000 0.97130  0.87230  0.70060  Biso   1.000  H
  H6       1.0000 0.47130  0.62770  0.29940  Biso   1.000  H
  H7       1.0000 0.52870  0.12770  0.20060  Biso   1.000  H
  H8       1.0000 0.02870  0.37230  0.79940  Biso   1.000  H
  H9       1.0000 0.70060  0.97130  0.87230  Biso   1.000  H
  H10      1.0000 0.29940  0.47130  0.62770  Biso   1.000  H
  H11      1.0000 0.20060  0.52870  0.12770  Biso   1.000  H
  H12      1.0000 0.79940  0.02870  0.37230  Biso   1.000  H
  H13      1.0000 0.95060  0.12230  0.22130  Biso   1.000  H
  H14      1.0000 0.54940  0.87770  0.72130  Biso   1.000  H
  H15      1.0000 0.45060  0.37770  0.77870  Biso   1.000  H
  H16      1.0000 0.04940  0.62230  0.27870  Biso   1.000  H
  H17      1.0000 0.12230  0.22130  0.95060  Biso   1.000  H
  H18      1.0000 0.87770  0.72130  0.54940  Biso   1.000  H
  H19      1.0000 0.37770  0.77870  0.45060  Biso   1.000  H
  H20      1.0000 0.62230  0.27870  0.04940  Biso   1.000  H
  H21      1.0000 0.22130  0.95060  0.12230  Biso   1.000  H
  H22      1.0000 0.72130  0.54940  0.87770  Biso   1.000  H
  H23      1.0000 0.77870  0.45060  0.37770  Biso   1.000  H
  H24      1.0000 0.27870  0.04940  0.62230  Biso   1.000  H
  H25      1.0000 0.37230  0.20060  0.47130  Biso   1.000  H
  H26      1.0000 0.12770  0.79940  0.97130  Biso   1.000  H
  H27      1.0000 0.62770  0.70060  0.02870  Biso   1.000  H
  H28      1.0000 0.87230  0.29940  0.52870  Biso   1.000  H
  H29      1.0000 0.47130  0.37230  0.20060  Biso   1.000  H
  H30      1.0000 0.97130  0.12770  0.79940  Biso   1.000  H
  H31      1.0000 0.02870  0.62770  0.70060  Biso   1.000  H
  H32      1.0000 0.52870  0.87230  0.29940  Biso   1.000  H
  H33      1.0000 0.20060  0.47130  0.37230  Biso   1.000  H
  H34      1.0000 0.79940  0.97130  0.12770  Biso   1.000  H
  H35      1.0000 0.70060  0.02870  0.62770  Biso   1.000  H
  H36      1.0000 0.29940  0.52870  0.87230  Biso   1.000  H
  H37      1.0000 0.45060  0.62230  0.72130  Biso   1.000  H
  H38      1.0000 0.04940  0.37770  0.22130  Biso   1.000  H
  H39      1.0000 0.95060  0.87770  0.27870  Biso   1.000  H
  H40      1.0000 0.54940  0.12230  0.77870  Biso   1.000  H
  H41      1.0000 0.62230  0.72130  0.45060  Biso   1.000  H
  H42      1.0000 0.37770  0.22130  0.04940  Biso   1.000  H
  H43      1.0000 0.87770  0.27870  0.95060  Biso   1.000  H
  H44      1.0000 0.12230  0.77870  0.54940  Biso   1.000  H
  H45      1.0000 0.72130  0.45060  0.62230  Biso   1.000  H
  H46      1.0000 0.22130  0.04940  0.37770  Biso   1.000  H
  H47      1.0000 0.27870  0.95060  0.87770  Biso   1.000  H
  H48      1.0000 0.77870  0.54940  0.12230  Biso   1.000  H
  H49      1.0000 0.84680  0.72280  0.02560  Biso   1.000  H
  H50      1.0000 0.65320  0.27720  0.52560  Biso   1.000  H
  H51      1.0000 0.15320  0.22280  0.47440  Biso   1.000  H
  H52      1.0000 0.34680  0.77720  0.97440  Biso   1.000  H
  H53      1.0000 0.02560  0.84680  0.72280  Biso   1.000  H
  H54      1.0000 0.52560  0.65320  0.27720  Biso   1.000  H
  H55      1.0000 0.47440  0.15320  0.22280  Biso   1.000  H
  H56      1.0000 0.97440  0.34680  0.77720  Biso   1.000  H
  H57      1.0000 0.72280  0.02560  0.84680  Biso   1.000  H
  H58      1.0000 0.27720  0.52560  0.65320  Biso   1.000  H
  H59      1.0000 0.22280  0.47440  0.15320  Biso   1.000  H
  H60      1.0000 0.77720  0.97440  0.34680  Biso   1.000  H
  H61      1.0000 0.97280  0.09680  0.27560  Biso   1.000  H
  H62      1.0000 0.52720  0.90320  0.77560  Biso   1.000  H
  H63      1.0000 0.47280  0.40320  0.72440  Biso   1.000  H
  H64      1.0000 0.02720  0.59680  0.22440  Biso   1.000  H
  H65      1.0000 0.09680  0.27560  0.97280  Biso   1.000  H
  H66      1.0000 0.90320  0.77560  0.52720  Biso   1.000  H
  H67      1.0000 0.40320  0.72440  0.47280  Biso   1.000  H
  H68      1.0000 0.59680  0.22440  0.02720  Biso   1.000  H
  H69      1.0000 0.27560  0.97280  0.09680  Biso   1.000  H
  H70      1.0000 0.77560  0.52720  0.90320  Biso   1.000  H
  H71      1.0000 0.72440  0.47280  0.40320  Biso   1.000  H
  H72      1.0000 0.22440  0.02720  0.59680  Biso   1.000  H
  H73      1.0000 0.34680  0.22280  0.52560  Biso   1.000  H
  H74      1.0000 0.15320  0.77720  0.02560  Biso   1.000  H
  H75      1.0000 0.65320  0.72280  0.97440  Biso   1.000  H
  H76      1.0000 0.84680  0.27720  0.47440  Biso   1.000  H
  H77      1.0000 0.52560  0.34680  0.22280  Biso   1.000  H
  H78      1.0000 0.02560  0.15320  0.77720  Biso   1.000  H
  H79      1.0000 0.97440  0.65320  0.72280  Biso   1.000  H
  H80      1.0000 0.47440  0.84680  0.27720  Biso   1.000  H
  H81      1.0000 0.22280  0.52560  0.34680  Biso   1.000  H
  H82      1.0000 0.77720  0.02560  0.15320  Biso   1.000  H
  H83      1.0000 0.72280  0.97440  0.65320  Biso   1.000  H
  H84      1.0000 0.27720  0.47440  0.84680  Biso   1.000  H
  H85      1.0000 0.47280  0.59680  0.77560  Biso   1.000  H
  H86      1.0000 0.02720  0.40320  0.27560  Biso   1.000  H
  H87      1.0000 0.97280  0.90320  0.22440  Biso   1.000  H
  H88      1.0000 0.52720  0.09680  0.72440  Biso   1.000  H
  H89      1.0000 0.59680  0.77560  0.47280  Biso   1.000  H
  H90      1.0000 0.40320  0.27560  0.02720  Biso   1.000  H
  H91      1.0000 0.90320  0.22440  0.97280  Biso   1.000  H
  H92      1.0000 0.09680  0.72440  0.52720  Biso   1.000  H
  H93      1.0000 0.77560  0.47280  0.59680  Biso   1.000  H
  H94      1.0000 0.27560  0.02720  0.40320  Biso   1.000  H
  H95      1.0000 0.22440  0.97280  0.90320  Biso   1.000  H
  H96      1.0000 0.72440  0.52720  0.09680  Biso   1.000  H
  C49      1.0000 0.61400  0.67160  0.83240  Biso   1.000  C
  C50      1.0000 0.88600  0.32840  0.33240  Biso   1.000  C
  C51      1.0000 0.38600  0.17160  0.66760  Biso   1.000  C
  C52      1.0000 0.11400  0.82840  0.16760  Biso   1.000  C
  C53      1.0000 0.83240  0.61400  0.67160  Biso   1.000  C
  C54      1.0000 0.33240  0.88600  0.32840  Biso   1.000  C
  C55      1.0000 0.66760  0.38600  0.17160  Biso   1.000  C
  C56      1.0000 0.16760  0.11400  0.82840  Biso   1.000  C
  C57      1.0000 0.67160  0.83240  0.61400  Biso   1.000  C
  C58      1.0000 0.32840  0.33240  0.88600  Biso   1.000  C
  C59      1.0000 0.17160  0.66760  0.38600  Biso   1.000  C
  C60      1.0000 0.82840  0.16760  0.11400  Biso   1.000  C
  C61      1.0000 0.92160  0.86400  0.08240  Biso   1.000  C
  C62      1.0000 0.57840  0.13600  0.58240  Biso   1.000  C
  C63      1.0000 0.42160  0.63600  0.91760  Biso   1.000  C
  C64      1.0000 0.07840  0.36400  0.41760  Biso   1.000  C
  C65      1.0000 0.86400  0.08240  0.92160  Biso   1.000  C
  C66      1.0000 0.13600  0.58240  0.57840  Biso   1.000  C
  C67      1.0000 0.63600  0.91760  0.42160  Biso   1.000  C
  C68      1.0000 0.36400  0.41760  0.07840  Biso   1.000  C
  C69      1.0000 0.08240  0.92160  0.86400  Biso   1.000  C
  C70      1.0000 0.58240  0.57840  0.13600  Biso   1.000  C
  C71      1.0000 0.91760  0.42160  0.63600  Biso   1.000  C
  C72      1.0000 0.41760  0.07840  0.36400  Biso   1.000  C
  C73      1.0000 0.11400  0.17160  0.33240  Biso   1.000  C
  C74      1.0000 0.38600  0.82840  0.83240  Biso   1.000  C
  C75      1.0000 0.88600  0.67160  0.16760  Biso   1.000  C
  C76      1.0000 0.61400  0.32840  0.66760  Biso   1.000  C
  C77      1.0000 0.33240  0.11400  0.17160  Biso   1.000  C
  C78      1.0000 0.83240  0.38600  0.82840  Biso   1.000  C
  C79      1.0000 0.16760  0.88600  0.67160  Biso   1.000  C
  C80      1.0000 0.66760  0.61400  0.32840  Biso   1.000  C
  C81      1.0000 0.17160  0.33240  0.11400  Biso   1.000  C
  C82      1.0000 0.82840  0.83240  0.38600  Biso   1.000  C
  C83      1.0000 0.67160  0.16760  0.88600  Biso   1.000  C
  C84      1.0000 0.32840  0.66760  0.61400  Biso   1.000  C
  C85      1.0000 0.42160  0.36400  0.58240  Biso   1.000  C
  C86      1.0000 0.07840  0.63600  0.08240  Biso   1.000  C
  C87      1.0000 0.92160  0.13600  0.41760  Biso   1.000  C
  C88      1.0000 0.57840  0.86400  0.91760  Biso   1.000  C
  C89      1.0000 0.36400  0.58240  0.42160  Biso   1.000  C
  C90      1.0000 0.63600  0.08240  0.07840  Biso   1.000  C
  C91      1.0000 0.13600  0.41760  0.92160  Biso   1.000  C
  C92      1.0000 0.86400  0.91760  0.57840  Biso   1.000  C
  C93      1.0000 0.58240  0.42160  0.36400  Biso   1.000  C
  C94      1.0000 0.08240  0.07840  0.63600  Biso   1.000  C
  C95      1.0000 0.41760  0.92160  0.13600  Biso   1.000  C
  C96      1.0000 0.91760  0.57840  0.86400  Biso   1.000  C
  C97      1.0000 0.59290  0.72850  0.75470  Biso   1.000  C
  C98      1.0000 0.90710  0.27150  0.25470  Biso   1.000  C
  C99      1.0000 0.40710  0.22850  0.74530  Biso   1.000  C
  C100     1.0000 0.09290  0.77150  0.24530  Biso   1.000  C
  C101     1.0000 0.75470  0.59290  0.72850  Biso   1.000  C
  C102     1.0000 0.25470  0.90710  0.27150  Biso   1.000  C
  C103     1.0000 0.74530  0.40710  0.22850  Biso   1.000  C
  C104     1.0000 0.24530  0.09290  0.77150  Biso   1.000  C
  C105     1.0000 0.72850  0.75470  0.59290  Biso   1.000  C
  C106     1.0000 0.27150  0.25470  0.90710  Biso   1.000  C
  C107     1.0000 0.22850  0.74530  0.40710  Biso   1.000  C
  C108     1.0000 0.77150  0.24530  0.09290  Biso   1.000  C
  C109     1.0000 0.97850  0.84290  0.00470  Biso   1.000  C
  C110     1.0000 0.52150  0.15710  0.50470  Biso   1.000  C
  C111     1.0000 0.47850  0.65710  0.99530  Biso   1.000  C
  C112     1.0000 0.02150  0.34290  0.49530  Biso   1.000  C
  C113     1.0000 0.84290  0.00470  0.97850  Biso   1.000  C
  C114     1.0000 0.15710  0.50470  0.52150  Biso   1.000  C
  C115     1.0000 0.65710  0.99530  0.47850  Biso   1.000  C
  C116     1.0000 0.34290  0.49530  0.02150  Biso   1.000  C
  C117     1.0000 0.00470  0.97850  0.84290  Biso   1.000  C
  C118     1.0000 0.50470  0.52150  0.15710  Biso   1.000  C
  C119     1.0000 0.99530  0.47850  0.65710  Biso   1.000  C
  C120     1.0000 0.49530  0.02150  0.34290  Biso   1.000  C
  C121     1.0000 0.09290  0.22850  0.25470  Biso   1.000  C
  C122     1.0000 0.40710  0.77150  0.75470  Biso   1.000  C
  C123     1.0000 0.90710  0.72850  0.24530  Biso   1.000  C
  C124     1.0000 0.59290  0.27150  0.74530  Biso   1.000  C
  C125     1.0000 0.25470  0.09290  0.22850  Biso   1.000  C
  C126     1.0000 0.75470  0.40710  0.77150  Biso   1.000  C
  C127     1.0000 0.24530  0.90710  0.72850  Biso   1.000  C
  C128     1.0000 0.74530  0.59290  0.27150  Biso   1.000  C
  C129     1.0000 0.22850  0.25470  0.09290  Biso   1.000  C
  C130     1.0000 0.77150  0.75470  0.40710  Biso   1.000  C
  C131     1.0000 0.72850  0.24530  0.90710  Biso   1.000  C
  C132     1.0000 0.27150  0.74530  0.59290  Biso   1.000  C
  C133     1.0000 0.47850  0.34290  0.50470  Biso   1.000  C
  C134     1.0000 0.02150  0.65710  0.00470  Biso   1.000  C
  C135     1.0000 0.97850  0.15710  0.49530  Biso   1.000  C
  C136     1.0000 0.52150  0.84290  0.99530  Biso   1.000  C
  C137     1.0000 0.34290  0.50470  0.47850  Biso   1.000  C
  C138     1.0000 0.65710  0.00470  0.02150  Biso   1.000  C
  C139     1.0000 0.15710  0.49530  0.97850  Biso   1.000  C
  C140     1.0000 0.84290  0.99530  0.52150  Biso   1.000  C
  C141     1.0000 0.50470  0.47850  0.34290  Biso   1.000  C
  C142     1.0000 0.00470  0.02150  0.65710  Biso   1.000  C
  C143     1.0000 0.49530  0.97850  0.15710  Biso   1.000  C
  C144     1.0000 0.99530  0.52150  0.84290  Biso   1.000  C
  H97      1.0000 0.60450  0.74920  0.72510  Biso   1.000  H
  H98      1.0000 0.89550  0.25080  0.22510  Biso   1.000  H
  H99      1.0000 0.39550  0.24920  0.77490  Biso   1.000  H
  H100     1.0000 0.10450  0.75080  0.27490  Biso   1.000  H
  H101     1.0000 0.72510  0.60450  0.74920  Biso   1.000  H
  H102     1.0000 0.22510  0.89550  0.25080  Biso   1.000  H
  H103     1.0000 0.77490  0.39550  0.24920  Biso   1.000  H
  H104     1.0000 0.27490  0.10450  0.75080  Biso   1.000  H
  H105     1.0000 0.74920  0.72510  0.60450  Biso   1.000  H
  H106     1.0000 0.25080  0.22510  0.89550  Biso   1.000  H
  H107     1.0000 0.24920  0.77490  0.39550  Biso   1.000  H
  H108     1.0000 0.75080  0.27490  0.10450  Biso   1.000  H
  H109     1.0000 0.99920  0.85450  0.97510  Biso   1.000  H
  H110     1.0000 0.50080  0.14550  0.47510  Biso   1.000  H
  H111     1.0000 0.49920  0.64550  0.02490  Biso   1.000  H
  H112     1.0000 0.00080  0.35450  0.52490  Biso   1.000  H
  H113     1.0000 0.85450  0.97510  0.99920  Biso   1.000  H
  H114     1.0000 0.14550  0.47510  0.50080  Biso   1.000  H
  H115     1.0000 0.64550  0.02490  0.49920  Biso   1.000  H
  H116     1.0000 0.35450  0.52490  0.00080  Biso   1.000  H
  H117     1.0000 0.97510  0.99920  0.85450  Biso   1.000  H
  H118     1.0000 0.47510  0.50080  0.14550  Biso   1.000  H
  H119     1.0000 0.02490  0.49920  0.64550  Biso   1.000  H
  H120     1.0000 0.52490  0.00080  0.35450  Biso   1.000  H
  H121     1.0000 0.10450  0.24920  0.22510  Biso   1.000  H
  H122     1.0000 0.39550  0.75080  0.72510  Biso   1.000  H
  H123     1.0000 0.89550  0.74920  0.27490  Biso   1.000  H
  H124     1.0000 0.60450  0.25080  0.77490  Biso   1.000  H
  H125     1.0000 0.22510  0.10450  0.24920  Biso   1.000  H
  H126     1.0000 0.72510  0.39550  0.75080  Biso   1.000  H
  H127     1.0000 0.27490  0.89550  0.74920  Biso   1.000  H
  H128     1.0000 0.77490  0.60450  0.25080  Biso   1.000  H
  H129     1.0000 0.24920  0.22510  0.10450  Biso   1.000  H
  H130     1.0000 0.75080  0.72510  0.39550  Biso   1.000  H
  H131     1.0000 0.74920  0.27490  0.89550  Biso   1.000  H
  H132     1.0000 0.25080  0.77490  0.60450  Biso   1.000  H
  H133     1.0000 0.49920  0.35450  0.47510  Biso   1.000  H
  H134     1.0000 0.00080  0.64550  0.97510  Biso   1.000  H
  H135     1.0000 0.99920  0.14550  0.52490  Biso   1.000  H
  H136     1.0000 0.50080  0.85450  0.02490  Biso   1.000  H
  H137     1.0000 0.35450  0.47510  0.49920  Biso   1.000  H
  H138     1.0000 0.64550  0.97510  0.00080  Biso   1.000  H
  H139     1.0000 0.14550  0.52490  0.99920  Biso   1.000  H
  H140     1.0000 0.85450  0.02490  0.50080  Biso   1.000  H
  H141     1.0000 0.47510  0.49920  0.35450  Biso   1.000  H
  H142     1.0000 0.97510  0.00080  0.64550  Biso   1.000  H
  H143     1.0000 0.52490  0.99920  0.14550  Biso   1.000  H
  H144     1.0000 0.02490  0.50080  0.85450  Biso   1.000  H
  C145     1.0000 0.53830  0.72280  0.76550  Biso   1.000  C
  C146     1.0000 0.96170  0.27720  0.26550  Biso   1.000  C
  C147     1.0000 0.46170  0.22280  0.73450  Biso   1.000  C
  C148     1.0000 0.03830  0.77720  0.23450  Biso   1.000  C
  C149     1.0000 0.76550  0.53830  0.72280  Biso   1.000  C
  C150     1.0000 0.26550  0.96170  0.27720  Biso   1.000  C
  C151     1.0000 0.73450  0.46170  0.22280  Biso   1.000  C
  C152     1.0000 0.23450  0.03830  0.77720  Biso   1.000  C
  C153     1.0000 0.72280  0.76550  0.53830  Biso   1.000  C
  C154     1.0000 0.27720  0.26550  0.96170  Biso   1.000  C
  C155     1.0000 0.22280  0.73450  0.46170  Biso   1.000  C
  C156     1.0000 0.77720  0.23450  0.03830  Biso   1.000  C
  C157     1.0000 0.97280  0.78830  0.01550  Biso   1.000  C
  C158     1.0000 0.52720  0.21170  0.51550  Biso   1.000  C
  C159     1.0000 0.47280  0.71170  0.98450  Biso   1.000  C
  C160     1.0000 0.02720  0.28830  0.48450  Biso   1.000  C
  C161     1.0000 0.78830  0.01550  0.97280  Biso   1.000  C
  C162     1.0000 0.21170  0.51550  0.52720  Biso   1.000  C
  C163     1.0000 0.71170  0.98450  0.47280  Biso   1.000  C
  C164     1.0000 0.28830  0.48450  0.02720  Biso   1.000  C
  C165     1.0000 0.01550  0.97280  0.78830  Biso   1.000  C
  C166     1.0000 0.51550  0.52720  0.21170  Biso   1.000  C
  C167     1.0000 0.98450  0.47280  0.71170  Biso   1.000  C
  C168     1.0000 0.48450  0.02720  0.28830  Biso   1.000  C
  C169     1.0000 0.03830  0.22280  0.26550  Biso   1.000  C
  C170     1.0000 0.46170  0.77720  0.76550  Biso   1.000  C
  C171     1.0000 0.96170  0.72280  0.23450  Biso   1.000  C
  C172     1.0000 0.53830  0.27720  0.73450  Biso   1.000  C
  C173     1.0000 0.26550  0.03830  0.22280  Biso   1.000  C
  C174     1.0000 0.76550  0.46170  0.77720  Biso   1.000  C
  C175     1.0000 0.23450  0.96170  0.72280  Biso   1.000  C
  C176     1.0000 0.73450  0.53830  0.27720  Biso   1.000  C
  C177     1.0000 0.22280  0.26550  0.03830  Biso   1.000  C
  C178     1.0000 0.77720  0.76550  0.46170  Biso   1.000  C
  C179     1.0000 0.72280  0.23450  0.96170  Biso   1.000  C
  C180     1.0000 0.27720  0.73450  0.53830  Biso   1.000  C
  C181     1.0000 0.47280  0.28830  0.51550  Biso   1.000  C
  C182     1.0000 0.02720  0.71170  0.01550  Biso   1.000  C
  C183     1.0000 0.97280  0.21170  0.48450  Biso   1.000  C
  C184     1.0000 0.52720  0.78830  0.98450  Biso   1.000  C
  C185     1.0000 0.28830  0.51550  0.47280  Biso   1.000  C
  C186     1.0000 0.71170  0.01550  0.02720  Biso   1.000  C
  C187     1.0000 0.21170  0.48450  0.97280  Biso   1.000  C
  C188     1.0000 0.78830  0.98450  0.52720  Biso   1.000  C
  C189     1.0000 0.51550  0.47280  0.28830  Biso   1.000  C
  C190     1.0000 0.01550  0.02720  0.71170  Biso   1.000  C
  C191     1.0000 0.48450  0.97280  0.21170  Biso   1.000  C
  C192     1.0000 0.98450  0.52720  0.78830  Biso   1.000  C
  C193     1.0000 0.82330  0.81090  0.96310  Biso   1.000  C
  C194     1.0000 0.67670  0.18910  0.46310  Biso   1.000  C
  C195     1.0000 0.17670  0.31090  0.53690  Biso   1.000  C
  C196     1.0000 0.32330  0.68910  0.03690  Biso   1.000  C
  C197     1.0000 0.96310  0.82330  0.81090  Biso   1.000  C
  C198     1.0000 0.46310  0.67670  0.18910  Biso   1.000  C
  C199     1.0000 0.53690  0.17670  0.31090  Biso   1.000  C
  C200     1.0000 0.03690  0.32330  0.68910  Biso   1.000  C
  C201     1.0000 0.81090  0.96310  0.82330  Biso   1.000  C
  C202     1.0000 0.18910  0.46310  0.67670  Biso   1.000  C
  C203     1.0000 0.31090  0.53690  0.17670  Biso   1.000  C
  C204     1.0000 0.68910  0.03690  0.32330  Biso   1.000  C
  C205     1.0000 0.06090  0.07330  0.21310  Biso   1.000  C
  C206     1.0000 0.43910  0.92670  0.71310  Biso   1.000  C
  C207     1.0000 0.56090  0.42670  0.78690  Biso   1.000  C
  C208     1.0000 0.93910  0.57330  0.28690  Biso   1.000  C
  C209     1.0000 0.07330  0.21310  0.06090  Biso   1.000  C
  C210     1.0000 0.92670  0.71310  0.43910  Biso   1.000  C
  C211     1.0000 0.42670  0.78690  0.56090  Biso   1.000  C
  C212     1.0000 0.57330  0.28690  0.93910  Biso   1.000  C
  C213     1.0000 0.21310  0.06090  0.07330  Biso   1.000  C
  C214     1.0000 0.71310  0.43910  0.92670  Biso   1.000  C
  C215     1.0000 0.78690  0.56090  0.42670  Biso   1.000  C
  C216     1.0000 0.28690  0.93910  0.57330  Biso   1.000  C
  C217     1.0000 0.32330  0.31090  0.46310  Biso   1.000  C
  C218     1.0000 0.17670  0.68910  0.96310  Biso   1.000  C
  C219     1.0000 0.67670  0.81090  0.03690  Biso   1.000  C
  C220     1.0000 0.82330  0.18910  0.53690  Biso   1.000  C
  C221     1.0000 0.46310  0.32330  0.31090  Biso   1.000  C
  C222     1.0000 0.96310  0.17670  0.68910  Biso   1.000  C
  C223     1.0000 0.03690  0.67670  0.81090  Biso   1.000  C
  C224     1.0000 0.53690  0.82330  0.18910  Biso   1.000  C
  C225     1.0000 0.31090  0.46310  0.32330  Biso   1.000  C
  C226     1.0000 0.68910  0.96310  0.17670  Biso   1.000  C
  C227     1.0000 0.81090  0.03690  0.67670  Biso   1.000  C
  C228     1.0000 0.18910  0.53690  0.82330  Biso   1.000  C
  C229     1.0000 0.56090  0.57330  0.71310  Biso   1.000  C
  C230     1.0000 0.93910  0.42670  0.21310  Biso   1.000  C
  C231     1.0000 0.06090  0.92670  0.28690  Biso   1.000  C
  C232     1.0000 0.43910  0.07330  0.78690  Biso   1.000  C
  C233     1.0000 0.57330  0.71310  0.56090  Biso   1.000  C
  C234     1.0000 0.42670  0.21310  0.93910  Biso   1.000  C
  C235     1.0000 0.92670  0.28690  0.06090  Biso   1.000  C
  C236     1.0000 0.07330  0.78690  0.43910  Biso   1.000  C
  C237     1.0000 0.71310  0.56090  0.57330  Biso   1.000  C
  C238     1.0000 0.21310  0.93910  0.42670  Biso   1.000  C
  C239     1.0000 0.28690  0.06090  0.92670  Biso   1.000  C
  C240     1.0000 0.78690  0.43910  0.07330  Biso   1.000  C
  H145     1.0000 0.85060  0.82180  0.98700  Biso   1.000  H
  H146     1.0000 0.64940  0.17820  0.48700  Biso   1.000  H
  H147     1.0000 0.14940  0.32180  0.51300  Biso   1.000  H
  H148     1.0000 0.35060  0.67820  0.01300  Biso   1.000  H
  H149     1.0000 0.98700  0.85060  0.82180  Biso   1.000  H
  H150     1.0000 0.48700  0.64940  0.17820  Biso   1.000  H
  H151     1.0000 0.51300  0.14940  0.32180  Biso   1.000  H
  H152     1.0000 0.01300  0.35060  0.67820  Biso   1.000  H
  H153     1.0000 0.82180  0.98700  0.85060  Biso   1.000  H
  H154     1.0000 0.17820  0.48700  0.64940  Biso   1.000  H
  H155     1.0000 0.32180  0.51300  0.14940  Biso   1.000  H
  H156     1.0000 0.67820  0.01300  0.35060  Biso   1.000  H
  H157     1.0000 0.07180  0.10060  0.23700  Biso   1.000  H
  H158     1.0000 0.42820  0.89940  0.73700  Biso   1.000  H
  H159     1.0000 0.57180  0.39940  0.76300  Biso   1.000  H
  H160     1.0000 0.92820  0.60060  0.26300  Biso   1.000  H
  H161     1.0000 0.10060  0.23700  0.07180  Biso   1.000  H
  H162     1.0000 0.89940  0.73700  0.42820  Biso   1.000  H
  H163     1.0000 0.39940  0.76300  0.57180  Biso   1.000  H
  H164     1.0000 0.60060  0.26300  0.92820  Biso   1.000  H
  H165     1.0000 0.23700  0.07180  0.10060  Biso   1.000  H
  H166     1.0000 0.73700  0.42820  0.89940  Biso   1.000  H
  H167     1.0000 0.76300  0.57180  0.39940  Biso   1.000  H
  H168     1.0000 0.26300  0.92820  0.60060  Biso   1.000  H
  H169     1.0000 0.35060  0.32180  0.48700  Biso   1.000  H
  H170     1.0000 0.14940  0.67820  0.98700  Biso   1.000  H
  H171     1.0000 0.64940  0.82180  0.01300  Biso   1.000  H
  H172     1.0000 0.85060  0.17820  0.51300  Biso   1.000  H
  H173     1.0000 0.48700  0.35060  0.32180  Biso   1.000  H
  H174     1.0000 0.98700  0.14940  0.67820  Biso   1.000  H
  H175     1.0000 0.01300  0.64940  0.82180  Biso   1.000  H
  H176     1.0000 0.51300  0.85060  0.17820  Biso   1.000  H
  H177     1.0000 0.32180  0.48700  0.35060  Biso   1.000  H
  H178     1.0000 0.67820  0.98700  0.14940  Biso   1.000  H
  H179     1.0000 0.82180  0.01300  0.64940  Biso   1.000  H
  H180     1.0000 0.17820  0.51300  0.85060  Biso   1.000  H
  H181     1.0000 0.57180  0.60060  0.73700  Biso   1.000  H
  H182     1.0000 0.92820  0.39940  0.23700  Biso   1.000  H
  H183     1.0000 0.07180  0.89940  0.26300  Biso   1.000  H
  H184     1.0000 0.42820  0.10060  0.76300  Biso   1.000  H
  H185     1.0000 0.60060  0.73700  0.57180  Biso   1.000  H
  H186     1.0000 0.39940  0.23700  0.92820  Biso   1.000  H
  H187     1.0000 0.89940  0.26300  0.07180  Biso   1.000  H
  H188     1.0000 0.10060  0.76300  0.42820  Biso   1.000  H
  H189     1.0000 0.73700  0.57180  0.60060  Biso   1.000  H
  H190     1.0000 0.23700  0.92820  0.39940  Biso   1.000  H
  H191     1.0000 0.26300  0.07180  0.89940  Biso   1.000  H
  H192     1.0000 0.76300  0.42820  0.10060  Biso   1.000  H
  C241     1.0000 0.55890  0.66450  0.84100  Biso   1.000  C
  C242     1.0000 0.94110  0.33550  0.34100  Biso   1.000  C
  C243     1.0000 0.44110  0.16450  0.65900  Biso   1.000  C
  C244     1.0000 0.05890  0.83550  0.15900  Biso   1.000  C
  C245     1.0000 0.84100  0.55890  0.66450  Biso   1.000  C
  C246     1.0000 0.34100  0.94110  0.33550  Biso   1.000  C
  C247     1.0000 0.65900  0.44110  0.16450  Biso   1.000  C
  C248     1.0000 0.15900  0.05890  0.83550  Biso   1.000  C
  C249     1.0000 0.66450  0.84100  0.55890  Biso   1.000  C
  C250     1.0000 0.33550  0.34100  0.94110  Biso   1.000  C
  C251     1.0000 0.16450  0.65900  0.44110  Biso   1.000  C
  C252     1.0000 0.83550  0.15900  0.05890  Biso   1.000  C
  C253     1.0000 0.91450  0.80890  0.09100  Biso   1.000  C
  C254     1.0000 0.58550  0.19110  0.59100  Biso   1.000  C
  C255     1.0000 0.41450  0.69110  0.90900  Biso   1.000  C
  C256     1.0000 0.08550  0.30890  0.40900  Biso   1.000  C
  C257     1.0000 0.80890  0.09100  0.91450  Biso   1.000  C
  C258     1.0000 0.19110  0.59100  0.58550  Biso   1.000  C
  C259     1.0000 0.69110  0.90900  0.41450  Biso   1.000  C
  C260     1.0000 0.30890  0.40900  0.08550  Biso   1.000  C
  C261     1.0000 0.09100  0.91450  0.80890  Biso   1.000  C
  C262     1.0000 0.59100  0.58550  0.19110  Biso   1.000  C
  C263     1.0000 0.90900  0.41450  0.69110  Biso   1.000  C
  C264     1.0000 0.40900  0.08550  0.30890  Biso   1.000  C
  C265     1.0000 0.05890  0.16450  0.34100  Biso   1.000  C
  C266     1.0000 0.44110  0.83550  0.84100  Biso   1.000  C
  C267     1.0000 0.94110  0.66450  0.15900  Biso   1.000  C
  C268     1.0000 0.55890  0.33550  0.65900  Biso   1.000  C
  C269     1.0000 0.34100  0.05890  0.16450  Biso   1.000  C
  C270     1.0000 0.84100  0.44110  0.83550  Biso   1.000  C
  C271     1.0000 0.15900  0.94110  0.66450  Biso   1.000  C
  C272     1.0000 0.65900  0.55890  0.33550  Biso   1.000  C
  C273     1.0000 0.16450  0.34100  0.05890  Biso   1.000  C
  C274     1.0000 0.83550  0.84100  0.44110  Biso   1.000  C
  C275     1.0000 0.66450  0.15900  0.94110  Biso   1.000  C
  C276     1.0000 0.33550  0.65900  0.55890  Biso   1.000  C
  C277     1.0000 0.41450  0.30890  0.59100  Biso   1.000  C
  C278     1.0000 0.08550  0.69110  0.09100  Biso   1.000  C
  C279     1.0000 0.91450  0.19110  0.40900  Biso   1.000  C
  C280     1.0000 0.58550  0.80890  0.90900  Biso   1.000  C
  C281     1.0000 0.30890  0.59100  0.41450  Biso   1.000  C
  C282     1.0000 0.69110  0.09100  0.08550  Biso   1.000  C
  C283     1.0000 0.19110  0.40900  0.91450  Biso   1.000  C
  C284     1.0000 0.80890  0.90900  0.58550  Biso   1.000  C
  C285     1.0000 0.59100  0.41450  0.30890  Biso   1.000  C
  C286     1.0000 0.09100  0.08550  0.69110  Biso   1.000  C
  C287     1.0000 0.40900  0.91450  0.19110  Biso   1.000  C
  C288     1.0000 0.90900  0.58550  0.80890  Biso   1.000  C
  H193     1.0000 0.54710  0.64210  0.86920  Biso   1.000  H
  H194     1.0000 0.95290  0.35790  0.36920  Biso   1.000  H
  H195     1.0000 0.45290  0.14210  0.63080  Biso   1.000  H
  H196     1.0000 0.04710  0.85790  0.13080  Biso   1.000  H
  H197     1.0000 0.86920  0.54710  0.64210  Biso   1.000  H
  H198     1.0000 0.36920  0.95290  0.35790  Biso   1.000  H
  H199     1.0000 0.63080  0.45290  0.14210  Biso   1.000  H
  H200     1.0000 0.13080  0.04710  0.85790  Biso   1.000  H
  H201     1.0000 0.64210  0.86920  0.54710  Biso   1.000  H
  H202     1.0000 0.35790  0.36920  0.95290  Biso   1.000  H
  H203     1.0000 0.14210  0.63080  0.45290  Biso   1.000  H
  H204     1.0000 0.85790  0.13080  0.04710  Biso   1.000  H
  H205     1.0000 0.89210  0.79710  0.11920  Biso   1.000  H
  H206     1.0000 0.60790  0.20290  0.61920  Biso   1.000  H
  H207     1.0000 0.39210  0.70290  0.88080  Biso   1.000  H
  H208     1.0000 0.10790  0.29710  0.38080  Biso   1.000  H
  H209     1.0000 0.79710  0.11920  0.89210  Biso   1.000  H
  H210     1.0000 0.20290  0.61920  0.60790  Biso   1.000  H
  H211     1.0000 0.70290  0.88080  0.39210  Biso   1.000  H
  H212     1.0000 0.29710  0.38080  0.10790  Biso   1.000  H
  H213     1.0000 0.11920  0.89210  0.79710  Biso   1.000  H
  H214     1.0000 0.61920  0.60790  0.20290  Biso   1.000  H
  H215     1.0000 0.88080  0.39210  0.70290  Biso   1.000  H
  H216     1.0000 0.38080  0.10790  0.29710  Biso   1.000  H
  H217     1.0000 0.04710  0.14210  0.36920  Biso   1.000  H
  H218     1.0000 0.45290  0.85790  0.86920  Biso   1.000  H
  H219     1.0000 0.95290  0.64210  0.13080  Biso   1.000  H
  H220     1.0000 0.54710  0.35790  0.63080  Biso   1.000  H
  H221     1.0000 0.36920  0.04710  0.14210  Biso   1.000  H
  H222     1.0000 0.86920  0.45290  0.85790  Biso   1.000  H
  H223     1.0000 0.13080  0.95290  0.64210  Biso   1.000  H
  H224     1.0000 0.63080  0.54710  0.35790  Biso   1.000  H
  H225     1.0000 0.14210  0.36920  0.04710  Biso   1.000  H
  H226     1.0000 0.85790  0.86920  0.45290  Biso   1.000  H
  H227     1.0000 0.64210  0.13080  0.95290  Biso   1.000  H
  H228     1.0000 0.35790  0.63080  0.54710  Biso   1.000  H
  H229     1.0000 0.39210  0.29710  0.61920  Biso   1.000  H
  H230     1.0000 0.10790  0.70290  0.11920  Biso   1.000  H
  H231     1.0000 0.89210  0.20290  0.38080  Biso   1.000  H
  H232     1.0000 0.60790  0.79710  0.88080  Biso   1.000  H
  H233     1.0000 0.29710  0.61920  0.39210  Biso   1.000  H
  H234     1.0000 0.70290  0.11920  0.10790  Biso   1.000  H
  H235     1.0000 0.20290  0.38080  0.89210  Biso   1.000  H
  H236     1.0000 0.79710  0.88080  0.60790  Biso   1.000  H
  H237     1.0000 0.61920  0.39210  0.29710  Biso   1.000  H
  H238     1.0000 0.11920  0.10790  0.70290  Biso   1.000  H
  H239     1.0000 0.38080  0.89210  0.20290  Biso   1.000  H
  H240     1.0000 0.88080  0.60790  0.79710  Biso   1.000  H
  C289     1.0000 0.63080  0.70300  0.78820  Biso   1.000  C
  C290     1.0000 0.86920  0.29700  0.28820  Biso   1.000  C
  C291     1.0000 0.36920  0.20300  0.71180  Biso   1.000  C
  C292     1.0000 0.13080  0.79700  0.21180  Biso   1.000  C
  C293     1.0000 0.78820  0.63080  0.70300  Biso   1.000  C
  C294     1.0000 0.28820  0.86920  0.29700  Biso   1.000  C
  C295     1.0000 0.71180  0.36920  0.20300  Biso   1.000  C
  C296     1.0000 0.21180  0.13080  0.79700  Biso   1.000  C
  C297     1.0000 0.70300  0.78820  0.63080  Biso   1.000  C
  C298     1.0000 0.29700  0.28820  0.86920  Biso   1.000  C
  C299     1.0000 0.20300  0.71180  0.36920  Biso   1.000  C
  C300     1.0000 0.79700  0.21180  0.13080  Biso   1.000  C
  C301     1.0000 0.95300  0.88080  0.03820  Biso   1.000  C
  C302     1.0000 0.54700  0.11920  0.53820  Biso   1.000  C
  C303     1.0000 0.45300  0.61920  0.96180  Biso   1.000  C
  C304     1.0000 0.04700  0.38080  0.46180  Biso   1.000  C
  C305     1.0000 0.88080  0.03820  0.95300  Biso   1.000  C
  C306     1.0000 0.11920  0.53820  0.54700  Biso   1.000  C
  C307     1.0000 0.61920  0.96180  0.45300  Biso   1.000  C
  C308     1.0000 0.38080  0.46180  0.04700  Biso   1.000  C
  C309     1.0000 0.03820  0.95300  0.88080  Biso   1.000  C
  C310     1.0000 0.53820  0.54700  0.11920  Biso   1.000  C
  C311     1.0000 0.96180  0.45300  0.61920  Biso   1.000  C
  C312     1.0000 0.46180  0.04700  0.38080  Biso   1.000  C
  C313     1.0000 0.13080  0.20300  0.28820  Biso   1.000  C
  C314     1.0000 0.36920  0.79700  0.78820  Biso   1.000  C
  C315     1.0000 0.86920  0.70300  0.21180  Biso   1.000  C
  C316     1.0000 0.63080  0.29700  0.71180  Biso   1.000  C
  C317     1.0000 0.28820  0.13080  0.20300  Biso   1.000  C
  C318     1.0000 0.78820  0.36920  0.79700  Biso   1.000  C
  C319     1.0000 0.21180  0.86920  0.70300  Biso   1.000  C
  C320     1.0000 0.71180  0.63080  0.29700  Biso   1.000  C
  C321     1.0000 0.20300  0.28820  0.13080  Biso   1.000  C
  C322     1.0000 0.79700  0.78820  0.36920  Biso   1.000  C
  C323     1.0000 0.70300  0.21180  0.86920  Biso   1.000  C
  C324     1.0000 0.29700  0.71180  0.63080  Biso   1.000  C
  C325     1.0000 0.45300  0.38080  0.53820  Biso   1.000  C
  C326     1.0000 0.04700  0.61920  0.03820  Biso   1.000  C
  C327     1.0000 0.95300  0.11920  0.46180  Biso   1.000  C
  C328     1.0000 0.54700  0.88080  0.96180  Biso   1.000  C
  C329     1.0000 0.38080  0.53820  0.45300  Biso   1.000  C
  C330     1.0000 0.61920  0.03820  0.04700  Biso   1.000  C
  C331     1.0000 0.11920  0.46180  0.95300  Biso   1.000  C
  C332     1.0000 0.88080  0.96180  0.54700  Biso   1.000  C
  C333     1.0000 0.53820  0.45300  0.38080  Biso   1.000  C
  C334     1.0000 0.03820  0.04700  0.61920  Biso   1.000  C
  C335     1.0000 0.46180  0.95300  0.11920  Biso   1.000  C
  C336     1.0000 0.96180  0.54700  0.88080  Biso   1.000  C
  H241     1.0000 0.66770  0.70700  0.78110  Biso   1.000  H
  H242     1.0000 0.83230  0.29300  0.28110  Biso   1.000  H
  H243     1.0000 0.33230  0.20700  0.71890  Biso   1.000  H
  H244     1.0000 0.16770  0.79300  0.21890  Biso   1.000  H
  H245     1.0000 0.78110  0.66770  0.70700  Biso   1.000  H
  H246     1.0000 0.28110  0.83230  0.29300  Biso   1.000  H
  H247     1.0000 0.71890  0.33230  0.20700  Biso   1.000  H
  H248     1.0000 0.21890  0.16770  0.79300  Biso   1.000  H
  H249     1.0000 0.70700  0.78110  0.66770  Biso   1.000  H
  H250     1.0000 0.29300  0.28110  0.83230  Biso   1.000  H
  H251     1.0000 0.20700  0.71890  0.33230  Biso   1.000  H
  H252     1.0000 0.79300  0.21890  0.16770  Biso   1.000  H
  H253     1.0000 0.95700  0.91770  0.03110  Biso   1.000  H
  H254     1.0000 0.54300  0.08230  0.53110  Biso   1.000  H
  H255     1.0000 0.45700  0.58230  0.96890  Biso   1.000  H
  H256     1.0000 0.04300  0.41770  0.46890  Biso   1.000  H
  H257     1.0000 0.91770  0.03110  0.95700  Biso   1.000  H
  H258     1.0000 0.08230  0.53110  0.54300  Biso   1.000  H
  H259     1.0000 0.58230  0.96890  0.45700  Biso   1.000  H
  H260     1.0000 0.41770  0.46890  0.04300  Biso   1.000  H
  H261     1.0000 0.03110  0.95700  0.91770  Biso   1.000  H
  H262     1.0000 0.53110  0.54300  0.08230  Biso   1.000  H
  H263     1.0000 0.96890  0.45700  0.58230  Biso   1.000  H
  H264     1.0000 0.46890  0.04300  0.41770  Biso   1.000  H
  H265     1.0000 0.16770  0.20700  0.28110  Biso   1.000  H
  H266     1.0000 0.33230  0.79300  0.78110  Biso   1.000  H
  H267     1.0000 0.83230  0.70700  0.21890  Biso   1.000  H
  H268     1.0000 0.66770  0.29300  0.71890  Biso   1.000  H
  H269     1.0000 0.28110  0.16770  0.20700  Biso   1.000  H
  H270     1.0000 0.78110  0.33230  0.79300  Biso   1.000  H
  H271     1.0000 0.21890  0.83230  0.70700  Biso   1.000  H
  H272     1.0000 0.71890  0.66770  0.29300  Biso   1.000  H
  H273     1.0000 0.20700  0.28110  0.16770  Biso   1.000  H
  H274     1.0000 0.79300  0.78110  0.33230  Biso   1.000  H
  H275     1.0000 0.70700  0.21890  0.83230  Biso   1.000  H
  H276     1.0000 0.29300  0.71890  0.66770  Biso   1.000  H
  H277     1.0000 0.45700  0.41770  0.53110  Biso   1.000  H
  H278     1.0000 0.04300  0.58230  0.03110  Biso   1.000  H
  H279     1.0000 0.95700  0.08230  0.46890  Biso   1.000  H
  H280     1.0000 0.54300  0.91770  0.96890  Biso   1.000  H
  H281     1.0000 0.41770  0.53110  0.45700  Biso   1.000  H
  H282     1.0000 0.58230  0.03110  0.04300  Biso   1.000  H
  H283     1.0000 0.08230  0.46890  0.95700  Biso   1.000  H
  H284     1.0000 0.91770  0.96890  0.54300  Biso   1.000  H
  H285     1.0000 0.53110  0.45700  0.41770  Biso   1.000  H
  H286     1.0000 0.03110  0.04300  0.58230  Biso   1.000  H
  H287     1.0000 0.46890  0.95700  0.08230  Biso   1.000  H
  H288     1.0000 0.96890  0.54300  0.91770  Biso   1.000  H
  C337     1.0000 0.81090  0.75630  0.95740  Biso   1.000  C
  C338     1.0000 0.68910  0.24370  0.45740  Biso   1.000  C
  C339     1.0000 0.18910  0.25630  0.54260  Biso   1.000  C
  C340     1.0000 0.31090  0.74370  0.04260  Biso   1.000  C
  C341     1.0000 0.95740  0.81090  0.75630  Biso   1.000  C
  C342     1.0000 0.45740  0.68910  0.24370  Biso   1.000  C
  C343     1.0000 0.54260  0.18910  0.25630  Biso   1.000  C
  C344     1.0000 0.04260  0.31090  0.74370  Biso   1.000  C
  C345     1.0000 0.75630  0.95740  0.81090  Biso   1.000  C
  C346     1.0000 0.24370  0.45740  0.68910  Biso   1.000  C
  C347     1.0000 0.25630  0.54260  0.18910  Biso   1.000  C
  C348     1.0000 0.74370  0.04260  0.31090  Biso   1.000  C
  C349     1.0000 0.00630  0.06090  0.20740  Biso   1.000  C
  C350     1.0000 0.49370  0.93910  0.70740  Biso   1.000  C
  C351     1.0000 0.50630  0.43910  0.79260  Biso   1.000  C
  C352     1.0000 0.99370  0.56090  0.29260  Biso   1.000  C
  C353     1.0000 0.06090  0.20740  0.00630  Biso   1.000  C
  C354     1.0000 0.93910  0.70740  0.49370  Biso   1.000  C
  C355     1.0000 0.43910  0.79260  0.50630  Biso   1.000  C
  C356     1.0000 0.56090  0.29260  0.99370  Biso   1.000  C
  C357     1.0000 0.20740  0.00630  0.06090  Biso   1.000  C
  C358     1.0000 0.70740  0.49370  0.93910  Biso   1.000  C
  C359     1.0000 0.79260  0.50630  0.43910  Biso   1.000  C
  C360     1.0000 0.29260  0.99370  0.56090  Biso   1.000  C
  C361     1.0000 0.31090  0.25630  0.45740  Biso   1.000  C
  C362     1.0000 0.18910  0.74370  0.95740  Biso   1.000  C
  C363     1.0000 0.68910  0.75630  0.04260  Biso   1.000  C
  C364     1.0000 0.81090  0.24370  0.54260  Biso   1.000  C
  C365     1.0000 0.45740  0.31090  0.25630  Biso   1.000  C
  C366     1.0000 0.95740  0.18910  0.74370  Biso   1.000  C
  C367     1.0000 0.04260  0.68910  0.75630  Biso   1.000  C
  C368     1.0000 0.54260  0.81090  0.24370  Biso   1.000  C
  C369     1.0000 0.25630  0.45740  0.31090  Biso   1.000  C
  C370     1.0000 0.74370  0.95740  0.18910  Biso   1.000  C
  C371     1.0000 0.75630  0.04260  0.68910  Biso   1.000  C
  C372     1.0000 0.24370  0.54260  0.81090  Biso   1.000  C
  C373     1.0000 0.50630  0.56090  0.70740  Biso   1.000  C
  C374     1.0000 0.99370  0.43910  0.20740  Biso   1.000  C
  C375     1.0000 0.00630  0.93910  0.29260  Biso   1.000  C
  C376     1.0000 0.49370  0.06090  0.79260  Biso   1.000  C
  C377     1.0000 0.56090  0.70740  0.50630  Biso   1.000  C
  C378     1.0000 0.43910  0.20740  0.99370  Biso   1.000  C
  C379     1.0000 0.93910  0.29260  0.00630  Biso   1.000  C
  C380     1.0000 0.06090  0.79260  0.49370  Biso   1.000  C
  C381     1.0000 0.70740  0.50630  0.56090  Biso   1.000  C
  C382     1.0000 0.20740  0.99370  0.43910  Biso   1.000  C
  C383     1.0000 0.29260  0.00630  0.93910  Biso   1.000  C
  C384     1.0000 0.79260  0.49370  0.06090  Biso   1.000  C
  C385     1.0000 0.52140  0.69000  0.80870  Biso   1.000  C
  C386     1.0000 0.97860  0.31000  0.30870  Biso   1.000  C
  C387     1.0000 0.47860  0.19000  0.69130  Biso   1.000  C
  C388     1.0000 0.02140  0.81000  0.19130  Biso   1.000  C
  C389     1.0000 0.80870  0.52140  0.69000  Biso   1.000  C
  C390     1.0000 0.30870  0.97860  0.31000  Biso   1.000  C
  C391     1.0000 0.69130  0.47860  0.19000  Biso   1.000  C
  C392     1.0000 0.19130  0.02140  0.81000  Biso   1.000  C
  C393     1.0000 0.69000  0.80870  0.52140  Biso   1.000  C
  C394     1.0000 0.31000  0.30870  0.97860  Biso   1.000  C
  C395     1.0000 0.19000  0.69130  0.47860  Biso   1.000  C
  C396     1.0000 0.81000  0.19130  0.02140  Biso   1.000  C
  C397     1.0000 0.94000  0.77140  0.05870  Biso   1.000  C
  C398     1.0000 0.56000  0.22860  0.55870  Biso   1.000  C
  C399     1.0000 0.44000  0.72860  0.94130  Biso   1.000  C
  C400     1.0000 0.06000  0.27140  0.44130  Biso   1.000  C
  C401     1.0000 0.77140  0.05870  0.94000  Biso   1.000  C
  C402     1.0000 0.22860  0.55870  0.56000  Biso   1.000  C
  C403     1.0000 0.72860  0.94130  0.44000  Biso   1.000  C
  C404     1.0000 0.27140  0.44130  0.06000  Biso   1.000  C
  C405     1.0000 0.05870  0.94000  0.77140  Biso   1.000  C
  C406     1.0000 0.55870  0.56000  0.22860  Biso   1.000  C
  C407     1.0000 0.94130  0.44000  0.72860  Biso   1.000  C
  C408     1.0000 0.44130  0.06000  0.27140  Biso   1.000  C
  C409     1.0000 0.02140  0.19000  0.30870  Biso   1.000  C
  C410     1.0000 0.47860  0.81000  0.80870  Biso   1.000  C
  C411     1.0000 0.97860  0.69000  0.19130  Biso   1.000  C
  C412     1.0000 0.52140  0.31000  0.69130  Biso   1.000  C
  C413     1.0000 0.30870  0.02140  0.19000  Biso   1.000  C
  C414     1.0000 0.80870  0.47860  0.81000  Biso   1.000  C
  C415     1.0000 0.19130  0.97860  0.69000  Biso   1.000  C
  C416     1.0000 0.69130  0.52140  0.31000  Biso   1.000  C
  C417     1.0000 0.19000  0.30870  0.02140  Biso   1.000  C
  C418     1.0000 0.81000  0.80870  0.47860  Biso   1.000  C
  C419     1.0000 0.69000  0.19130  0.97860  Biso   1.000  C
  C420     1.0000 0.31000  0.69130  0.52140  Biso   1.000  C
  C421     1.0000 0.44000  0.27140  0.55870  Biso   1.000  C
  C422     1.0000 0.06000  0.72860  0.05870  Biso   1.000  C
  C423     1.0000 0.94000  0.22860  0.44130  Biso   1.000  C
  C424     1.0000 0.56000  0.77140  0.94130  Biso   1.000  C
  C425     1.0000 0.27140  0.55870  0.44000  Biso   1.000  C
  C426     1.0000 0.72860  0.05870  0.06000  Biso   1.000  C
  C427     1.0000 0.22860  0.44130  0.94000  Biso   1.000  C
  C428     1.0000 0.77140  0.94130  0.56000  Biso   1.000  C
  C429     1.0000 0.55870  0.44000  0.27140  Biso   1.000  C
  C430     1.0000 0.05870  0.06000  0.72860  Biso   1.000  C
  C431     1.0000 0.44130  0.94000  0.22860  Biso   1.000  C
  C432     1.0000 0.94130  0.56000  0.77140  Biso   1.000  C
  H289     1.0000 0.48450  0.68540  0.81550  Biso   1.000  H
  H290     1.0000 0.01550  0.31460  0.31550  Biso   1.000  H
  H291     1.0000 0.51550  0.18540  0.68450  Biso   1.000  H
  H292     1.0000 0.98450  0.81460  0.18450  Biso   1.000  H
  H293     1.0000 0.81550  0.48450  0.68540  Biso   1.000  H
  H294     1.0000 0.31550  0.01550  0.31460  Biso   1.000  H
  H295     1.0000 0.68450  0.51550  0.18540  Biso   1.000  H
  H296     1.0000 0.18450  0.98450  0.81460  Biso   1.000  H
  H297     1.0000 0.68540  0.81550  0.48450  Biso   1.000  H
  H298     1.0000 0.31460  0.31550  0.01550  Biso   1.000  H
  H299     1.0000 0.18540  0.68450  0.51550  Biso   1.000  H
  H300     1.0000 0.81460  0.18450  0.98450  Biso   1.000  H
  H301     1.0000 0.93540  0.73450  0.06550  Biso   1.000  H
  H302     1.0000 0.56460  0.26550  0.56550  Biso   1.000  H
  H303     1.0000 0.43540  0.76550  0.93450  Biso   1.000  H
  H304     1.0000 0.06460  0.23450  0.43450  Biso   1.000  H
  H305     1.0000 0.73450  0.06550  0.93540  Biso   1.000  H
  H306     1.0000 0.26550  0.56550  0.56460  Biso   1.000  H
  H307     1.0000 0.76550  0.93450  0.43540  Biso   1.000  H
  H308     1.0000 0.23450  0.43450  0.06460  Biso   1.000  H
  H309     1.0000 0.06550  0.93540  0.73450  Biso   1.000  H
  H310     1.0000 0.56550  0.56460  0.26550  Biso   1.000  H
  H311     1.0000 0.93450  0.43540  0.76550  Biso   1.000  H
  H312     1.0000 0.43450  0.06460  0.23450  Biso   1.000  H
  H313     1.0000 0.98450  0.18540  0.31550  Biso   1.000  H
  H314     1.0000 0.51550  0.81460  0.81550  Biso   1.000  H
  H315     1.0000 0.01550  0.68540  0.18450  Biso   1.000  H
  H316     1.0000 0.48450  0.31460  0.68450  Biso   1.000  H
  H317     1.0000 0.31550  0.98450  0.18540  Biso   1.000  H
  H318     1.0000 0.81550  0.51550  0.81460  Biso   1.000  H
  H319     1.0000 0.18450  0.01550  0.68540  Biso   1.000  H
  H320     1.0000 0.68450  0.48450  0.31460  Biso   1.000  H
  H321     1.0000 0.18540  0.31550  0.98450  Biso   1.000  H
  H322     1.0000 0.81460  0.81550  0.51550  Biso   1.000  H
  H323     1.0000 0.68540  0.18450  0.01550  Biso   1.000  H
  H324     1.0000 0.31460  0.68450  0.48450  Biso   1.000  H
  H325     1.0000 0.43540  0.23450  0.56550  Biso   1.000  H
  H326     1.0000 0.06460  0.76550  0.06550  Biso   1.000  H
  H327     1.0000 0.93540  0.26550  0.43450  Biso   1.000  H
  H328     1.0000 0.56460  0.73450  0.93450  Biso   1.000  H
  H329     1.0000 0.23450  0.56550  0.43540  Biso   1.000  H
  H330     1.0000 0.76550  0.06550  0.06460  Biso   1.000  H
  H331     1.0000 0.26550  0.43450  0.93540  Biso   1.000  H
  H332     1.0000 0.73450  0.93450  0.56460  Biso   1.000  H
  H333     1.0000 0.56550  0.43540  0.23450  Biso   1.000  H
  H334     1.0000 0.06550  0.06460  0.76550  Biso   1.000  H
  H335     1.0000 0.43450  0.93540  0.26550  Biso   1.000  H
  H336     1.0000 0.93450  0.56460  0.73450  Biso   1.000  H
  O121     1.0000 0.63454  0.61990  0.91019  Biso   1.000  O
  O122     1.0000 0.86546  0.38010  0.41019  Biso   1.000  O
  O123     1.0000 0.36546  0.11990  0.58981  Biso   1.000  O
  O124     1.0000 0.13454  0.88010  0.08981  Biso   1.000  O
  O125     1.0000 0.91019  0.63454  0.61990  Biso   1.000  O
  O126     1.0000 0.41019  0.86546  0.38010  Biso   1.000  O
  O127     1.0000 0.58981  0.36546  0.11990  Biso   1.000  O
  O128     1.0000 0.08981  0.13454  0.88010  Biso   1.000  O
  O129     1.0000 0.61990  0.91019  0.63454  Biso   1.000  O
  O130     1.0000 0.38010  0.41019  0.86546  Biso   1.000  O
  O131     1.0000 0.11990  0.58981  0.36546  Biso   1.000  O
  O132     1.0000 0.88010  0.08981  0.13454  Biso   1.000  O
  O133     1.0000 0.86990  0.88454  0.16019  Biso   1.000  O
  O134     1.0000 0.63010  0.11546  0.66019  Biso   1.000  O
  O135     1.0000 0.36990  0.61546  0.83981  Biso   1.000  O
  O136     1.0000 0.13010  0.38454  0.33981  Biso   1.000  O
  O137     1.0000 0.88454  0.16019  0.86990  Biso   1.000  O
  O138     1.0000 0.11546  0.66019  0.63010  Biso   1.000  O
  O139     1.0000 0.61546  0.83981  0.36990  Biso   1.000  O
  O140     1.0000 0.38454  0.33981  0.13010  Biso   1.000  O
  O141     1.0000 0.16019  0.86990  0.88454  Biso   1.000  O
  O142     1.0000 0.66019  0.63010  0.11546  Biso   1.000  O
  O143     1.0000 0.83981  0.36990  0.61546  Biso   1.000  O
  O144     1.0000 0.33981  0.13010  0.38454  Biso   1.000  O
  O145     1.0000 0.13454  0.11990  0.41019  Biso   1.000  O
  O146     1.0000 0.36546  0.88010  0.91019  Biso   1.000  O
  O147     1.0000 0.86546  0.61990  0.08981  Biso   1.000  O
  O148     1.0000 0.63454  0.38010  0.58981  Biso   1.000  O
  O149     1.0000 0.41019  0.13454  0.11990  Biso   1.000  O
  O150     1.0000 0.91019  0.36546  0.88010  Biso   1.000  O
  O151     1.0000 0.08981  0.86546  0.61990  Biso   1.000  O
  O152     1.0000 0.58981  0.63454  0.38010  Biso   1.000  O
  O153     1.0000 0.11990  0.41019  0.13454  Biso   1.000  O
  O154     1.0000 0.88010  0.91019  0.36546  Biso   1.000  O
  O155     1.0000 0.61990  0.08981  0.86546  Biso   1.000  O
  O156     1.0000 0.38010  0.58981  0.63454  Biso   1.000  O
  O157     1.0000 0.36990  0.38454  0.66019  Biso   1.000  O
  O158     1.0000 0.13010  0.61546  0.16019  Biso   1.000  O
  O159     1.0000 0.86990  0.11546  0.33981  Biso   1.000  O
  O160     1.0000 0.63010  0.88454  0.83981  Biso   1.000  O
  O161     1.0000 0.38454  0.66019  0.36990  Biso   1.000  O
  O162     1.0000 0.61546  0.16019  0.13010  Biso   1.000  O
  O163     1.0000 0.11546  0.33981  0.86990  Biso   1.000  O
  O164     1.0000 0.88454  0.83981  0.63010  Biso   1.000  O
  O165     1.0000 0.66019  0.36990  0.38454  Biso   1.000  O
  O166     1.0000 0.16019  0.13010  0.61546  Biso   1.000  O
  O167     1.0000 0.33981  0.86990  0.11546  Biso   1.000  O
  O168     1.0000 0.83981  0.63010  0.88454  Biso   1.000  O
  C433     1.0000 0.74570  0.77690  0.89320  Biso   1.000  C
  C434     1.0000 0.75430  0.22310  0.39320  Biso   1.000  C
  C435     1.0000 0.25430  0.27690  0.60680  Biso   1.000  C
  C436     1.0000 0.24570  0.72310  0.10680  Biso   1.000  C
  C437     1.0000 0.89320  0.74570  0.77690  Biso   1.000  C
  C438     1.0000 0.39320  0.75430  0.22310  Biso   1.000  C
  C439     1.0000 0.60680  0.25430  0.27690  Biso   1.000  C
  C440     1.0000 0.10680  0.24570  0.72310  Biso   1.000  C
  C441     1.0000 0.77690  0.89320  0.74570  Biso   1.000  C
  C442     1.0000 0.22310  0.39320  0.75430  Biso   1.000  C
  C443     1.0000 0.27690  0.60680  0.25430  Biso   1.000  C
  C444     1.0000 0.72310  0.10680  0.24570  Biso   1.000  C
  C445     1.0000 0.02690  0.99570  0.14320  Biso   1.000  C
  C446     1.0000 0.47310  0.00430  0.64320  Biso   1.000  C
  C447     1.0000 0.52690  0.50430  0.85680  Biso   1.000  C
  C448     1.0000 0.97310  0.49570  0.35680  Biso   1.000  C
  C449     1.0000 0.99570  0.14320  0.02690  Biso   1.000  C
  C450     1.0000 0.00430  0.64320  0.47310  Biso   1.000  C
  C451     1.0000 0.50430  0.85680  0.52690  Biso   1.000  C
  C452     1.0000 0.49570  0.35680  0.97310  Biso   1.000  C
  C453     1.0000 0.14320  0.02690  0.99570  Biso   1.000  C
  C454     1.0000 0.64320  0.47310  0.00430  Biso   1.000  C
  C455     1.0000 0.85680  0.52690  0.50430  Biso   1.000  C
  C456     1.0000 0.35680  0.97310  0.49570  Biso   1.000  C
  C457     1.0000 0.24570  0.27690  0.39320  Biso   1.000  C
  C458     1.0000 0.25430  0.72310  0.89320  Biso   1.000  C
  C459     1.0000 0.75430  0.77690  0.10680  Biso   1.000  C
  C460     1.0000 0.74570  0.22310  0.60680  Biso   1.000  C
  C461     1.0000 0.39320  0.24570  0.27690  Biso   1.000  C
  C462     1.0000 0.89320  0.25430  0.72310  Biso   1.000  C
  C463     1.0000 0.10680  0.75430  0.77690  Biso   1.000  C
  C464     1.0000 0.60680  0.74570  0.22310  Biso   1.000  C
  C465     1.0000 0.27690  0.39320  0.24570  Biso   1.000  C
  C466     1.0000 0.72310  0.89320  0.25430  Biso   1.000  C
  C467     1.0000 0.77690  0.10680  0.75430  Biso   1.000  C
  C468     1.0000 0.22310  0.60680  0.74570  Biso   1.000  C
  C469     1.0000 0.52690  0.49570  0.64320  Biso   1.000  C
  C470     1.0000 0.97310  0.50430  0.14320  Biso   1.000  C
  C471     1.0000 0.02690  0.00430  0.35680  Biso   1.000  C
  C472     1.0000 0.47310  0.99570  0.85680  Biso   1.000  C
  C473     1.0000 0.49570  0.64320  0.52690  Biso   1.000  C
  C474     1.0000 0.50430  0.14320  0.97310  Biso   1.000  C
  C475     1.0000 0.00430  0.35680  0.02690  Biso   1.000  C
  C476     1.0000 0.99570  0.85680  0.47310  Biso   1.000  C
  C477     1.0000 0.64320  0.52690  0.49570  Biso   1.000  C
  C478     1.0000 0.14320  0.97310  0.50430  Biso   1.000  C
  C479     1.0000 0.35680  0.02690  0.00430  Biso   1.000  C
  C480     1.0000 0.85680  0.47310  0.99570  Biso   1.000  C
  H337     1.0000 0.71930  0.76520  0.86880  Biso   1.000  H
  H338     1.0000 0.78070  0.23480  0.36880  Biso   1.000  H
  H339     1.0000 0.28070  0.26520  0.63120  Biso   1.000  H
  H340     1.0000 0.21930  0.73480  0.13120  Biso   1.000  H
  H341     1.0000 0.86880  0.71930  0.76520  Biso   1.000  H
  H342     1.0000 0.36880  0.78070  0.23480  Biso   1.000  H
  H343     1.0000 0.63120  0.28070  0.26520  Biso   1.000  H
  H344     1.0000 0.13120  0.21930  0.73480  Biso   1.000  H
  H345     1.0000 0.76520  0.86880  0.71930  Biso   1.000  H
  H346     1.0000 0.23480  0.36880  0.78070  Biso   1.000  H
  H347     1.0000 0.26520  0.63120  0.28070  Biso   1.000  H
  H348     1.0000 0.73480  0.13120  0.21930  Biso   1.000  H
  H349     1.0000 0.01520  0.96930  0.11880  Biso   1.000  H
  H350     1.0000 0.48480  0.03070  0.61880  Biso   1.000  H
  H351     1.0000 0.51520  0.53070  0.88120  Biso   1.000  H
  H352     1.0000 0.98480  0.46930  0.38120  Biso   1.000  H
  H353     1.0000 0.96930  0.11880  0.01520  Biso   1.000  H
  H354     1.0000 0.03070  0.61880  0.48480  Biso   1.000  H
  H355     1.0000 0.53070  0.88120  0.51520  Biso   1.000  H
  H356     1.0000 0.46930  0.38120  0.98480  Biso   1.000  H
  H357     1.0000 0.11880  0.01520  0.96930  Biso   1.000  H
  H358     1.0000 0.61880  0.48480  0.03070  Biso   1.000  H
  H359     1.0000 0.88120  0.51520  0.53070  Biso   1.000  H
  H360     1.0000 0.38120  0.98480  0.46930  Biso   1.000  H
  H361     1.0000 0.21930  0.26520  0.36880  Biso   1.000  H
  H362     1.0000 0.28070  0.73480  0.86880  Biso   1.000  H
  H363     1.0000 0.78070  0.76520  0.13120  Biso   1.000  H
  H364     1.0000 0.71930  0.23480  0.63120  Biso   1.000  H
  H365     1.0000 0.36880  0.21930  0.26520  Biso   1.000  H
  H366     1.0000 0.86880  0.28070  0.73480  Biso   1.000  H
  H367     1.0000 0.13120  0.78070  0.76520  Biso   1.000  H
  H368     1.0000 0.63120  0.71930  0.23480  Biso   1.000  H
  H369     1.0000 0.26520  0.36880  0.21930  Biso   1.000  H
  H370     1.0000 0.73480  0.86880  0.28070  Biso   1.000  H
  H371     1.0000 0.76520  0.13120  0.78070  Biso   1.000  H
  H372     1.0000 0.23480  0.63120  0.71930  Biso   1.000  H
  H373     1.0000 0.51520  0.46930  0.61880  Biso   1.000  H
  H374     1.0000 0.98480  0.53070  0.11880  Biso   1.000  H
  H375     1.0000 0.01520  0.03070  0.38120  Biso   1.000  H
  H376     1.0000 0.48480  0.96930  0.88120  Biso   1.000  H
  H377     1.0000 0.46930  0.61880  0.51520  Biso   1.000  H
  H378     1.0000 0.53070  0.11880  0.98480  Biso   1.000  H
  H379     1.0000 0.03070  0.38120  0.01520  Biso   1.000  H
  H380     1.0000 0.96930  0.88120  0.48480  Biso   1.000  H
  H381     1.0000 0.61880  0.51520  0.46930  Biso   1.000  H
  H382     1.0000 0.11880  0.98480  0.53070  Biso   1.000  H
  H383     1.0000 0.38120  0.01520  0.03070  Biso   1.000  H
  H384     1.0000 0.88120  0.48480  0.96930  Biso   1.000  H
  C481     1.0000 0.65340  0.64900  0.87350  Biso   1.000  C
  C482     1.0000 0.84660  0.35100  0.37350  Biso   1.000  C
  C483     1.0000 0.34660  0.14900  0.62650  Biso   1.000  C
  C484     1.0000 0.15340  0.85100  0.12650  Biso   1.000  C
  C485     1.0000 0.87350  0.65340  0.64900  Biso   1.000  C
  C486     1.0000 0.37350  0.84660  0.35100  Biso   1.000  C
  C487     1.0000 0.62650  0.34660  0.14900  Biso   1.000  C
  C488     1.0000 0.12650  0.15340  0.85100  Biso   1.000  C
  C489     1.0000 0.64900  0.87350  0.65340  Biso   1.000  C
  C490     1.0000 0.35100  0.37350  0.84660  Biso   1.000  C
  C491     1.0000 0.14900  0.62650  0.34660  Biso   1.000  C
  C492     1.0000 0.85100  0.12650  0.15340  Biso   1.000  C
  C493     1.0000 0.89900  0.90340  0.12350  Biso   1.000  C
  C494     1.0000 0.60100  0.09660  0.62350  Biso   1.000  C
  C495     1.0000 0.39900  0.59660  0.87650  Biso   1.000  C
  C496     1.0000 0.10100  0.40340  0.37650  Biso   1.000  C
  C497     1.0000 0.90340  0.12350  0.89900  Biso   1.000  C
  C498     1.0000 0.09660  0.62350  0.60100  Biso   1.000  C
  C499     1.0000 0.59660  0.87650  0.39900  Biso   1.000  C
  C500     1.0000 0.40340  0.37650  0.10100  Biso   1.000  C
  C501     1.0000 0.12350  0.89900  0.90340  Biso   1.000  C
  C502     1.0000 0.62350  0.60100  0.09660  Biso   1.000  C
  C503     1.0000 0.87650  0.39900  0.59660  Biso   1.000  C
  C504     1.0000 0.37650  0.10100  0.40340  Biso   1.000  C
  C505     1.0000 0.15340  0.14900  0.37350  Biso   1.000  C
  C506     1.0000 0.34660  0.85100  0.87350  Biso   1.000  C
  C507     1.0000 0.84660  0.64900  0.12650  Biso   1.000  C
  C508     1.0000 0.65340  0.35100  0.62650  Biso   1.000  C
  C509     1.0000 0.37350  0.15340  0.14900  Biso   1.000  C
  C510     1.0000 0.87350  0.34660  0.85100  Biso   1.000  C
  C511     1.0000 0.12650  0.84660  0.64900  Biso   1.000  C
  C512     1.0000 0.62650  0.65340  0.35100  Biso   1.000  C
  C513     1.0000 0.14900  0.37350  0.15340  Biso   1.000  C
  C514     1.0000 0.85100  0.87350  0.34660  Biso   1.000  C
  C515     1.0000 0.64900  0.12650  0.84660  Biso   1.000  C
  C516     1.0000 0.35100  0.62650  0.65340  Biso   1.000  C
  C517     1.0000 0.39900  0.40340  0.62350  Biso   1.000  C
  C518     1.0000 0.10100  0.59660  0.12350  Biso   1.000  C
  C519     1.0000 0.89900  0.09660  0.37650  Biso   1.000  C
  C520     1.0000 0.60100  0.90340  0.87650  Biso   1.000  C
  C521     1.0000 0.40340  0.62350  0.39900  Biso   1.000  C
  C522     1.0000 0.59660  0.12350  0.10100  Biso   1.000  C
  C523     1.0000 0.09660  0.37650  0.89900  Biso   1.000  C
  C524     1.0000 0.90340  0.87650  0.60100  Biso   1.000  C
  C525     1.0000 0.62350  0.39900  0.40340  Biso   1.000  C
  C526     1.0000 0.12350  0.10100  0.59660  Biso   1.000  C
  C527     1.0000 0.37650  0.89900  0.09660  Biso   1.000  C
  C528     1.0000 0.87650  0.60100  0.90340  Biso   1.000  C
  C529     1.0000 0.79560  0.84820  0.93400  Biso   1.000  C
  C530     1.0000 0.70440  0.15180  0.43400  Biso   1.000  C
  C531     1.0000 0.20440  0.34820  0.56600  Biso   1.000  C
  C532     1.0000 0.29560  0.65180  0.06600  Biso   1.000  C
  C533     1.0000 0.93400  0.79560  0.84820  Biso   1.000  C
  C534     1.0000 0.43400  0.70440  0.15180  Biso   1.000  C
  C535     1.0000 0.56600  0.20440  0.34820  Biso   1.000  C
  C536     1.0000 0.06600  0.29560  0.65180  Biso   1.000  C
  C537     1.0000 0.84820  0.93400  0.79560  Biso   1.000  C
  C538     1.0000 0.15180  0.43400  0.70440  Biso   1.000  C
  C539     1.0000 0.34820  0.56600  0.20440  Biso   1.000  C
  C540     1.0000 0.65180  0.06600  0.29560  Biso   1.000  C
  C541     1.0000 0.09820  0.04560  0.18400  Biso   1.000  C
  C542     1.0000 0.40180  0.95440  0.68400  Biso   1.000  C
  C543     1.0000 0.59820  0.45440  0.81600  Biso   1.000  C
  C544     1.0000 0.90180  0.54560  0.31600  Biso   1.000  C
  C545     1.0000 0.04560  0.18400  0.09820  Biso   1.000  C
  C546     1.0000 0.95440  0.68400  0.40180  Biso   1.000  C
  C547     1.0000 0.45440  0.81600  0.59820  Biso   1.000  C
  C548     1.0000 0.54560  0.31600  0.90180  Biso   1.000  C
  C549     1.0000 0.18400  0.09820  0.04560  Biso   1.000  C
  C550     1.0000 0.68400  0.40180  0.95440  Biso   1.000  C
  C551     1.0000 0.81600  0.59820  0.45440  Biso   1.000  C
  C552     1.0000 0.31600  0.90180  0.54560  Biso   1.000  C
  C553     1.0000 0.29560  0.34820  0.43400  Biso   1.000  C
  C554     1.0000 0.20440  0.65180  0.93400  Biso   1.000  C
  C555     1.0000 0.70440  0.84820  0.06600  Biso   1.000  C
  C556     1.0000 0.79560  0.15180  0.56600  Biso   1.000  C
  C557     1.0000 0.43400  0.29560  0.34820  Biso   1.000  C
  C558     1.0000 0.93400  0.20440  0.65180  Biso   1.000  C
  C559     1.0000 0.06600  0.70440  0.84820  Biso   1.000  C
  C560     1.0000 0.56600  0.79560  0.15180  Biso   1.000  C
  C561     1.0000 0.34820  0.43400  0.29560  Biso   1.000  C
  C562     1.0000 0.65180  0.93400  0.20440  Biso   1.000  C
  C563     1.0000 0.84820  0.06600  0.70440  Biso   1.000  C
  C564     1.0000 0.15180  0.56600  0.79560  Biso   1.000  C
  C565     1.0000 0.59820  0.54560  0.68400  Biso   1.000  C
  C566     1.0000 0.90180  0.45440  0.18400  Biso   1.000  C
  C567     1.0000 0.09820  0.95440  0.31600  Biso   1.000  C
  C568     1.0000 0.40180  0.04560  0.81600  Biso   1.000  C
  C569     1.0000 0.54560  0.68400  0.59820  Biso   1.000  C
  C570     1.0000 0.45440  0.18400  0.90180  Biso   1.000  C
  C571     1.0000 0.95440  0.31600  0.09820  Biso   1.000  C
  C572     1.0000 0.04560  0.81600  0.40180  Biso   1.000  C
  C573     1.0000 0.68400  0.59820  0.54560  Biso   1.000  C
  C574     1.0000 0.18400  0.90180  0.45440  Biso   1.000  C
  C575     1.0000 0.31600  0.09820  0.95440  Biso   1.000  C
  C576     1.0000 0.81600  0.40180  0.04560  Biso   1.000  C
  H385     1.0000 0.80330  0.88510  0.93810  Biso   1.000  H
  H386     1.0000 0.69670  0.11490  0.43810  Biso   1.000  H
  H387     1.0000 0.19670  0.38510  0.56190  Biso   1.000  H
  H388     1.0000 0.30330  0.61490  0.06190  Biso   1.000  H
  H389     1.0000 0.93810  0.80330  0.88510  Biso   1.000  H
  H390     1.0000 0.43810  0.69670  0.11490  Biso   1.000  H
  H391     1.0000 0.56190  0.19670  0.38510  Biso   1.000  H
  H392     1.0000 0.06190  0.30330  0.61490  Biso   1.000  H
  H393     1.0000 0.88510  0.93810  0.80330  Biso   1.000  H
  H394     1.0000 0.11490  0.43810  0.69670  Biso   1.000  H
  H395     1.0000 0.38510  0.56190  0.19670  Biso   1.000  H
  H396     1.0000 0.61490  0.06190  0.30330  Biso   1.000  H
  H397     1.0000 0.13510  0.05330  0.18810  Biso   1.000  H
  H398     1.0000 0.36490  0.94670  0.68810  Biso   1.000  H
  H399     1.0000 0.63510  0.44670  0.81190  Biso   1.000  H
  H400     1.0000 0.86490  0.55330  0.31190  Biso   1.000  H
  H401     1.0000 0.05330  0.18810  0.13510  Biso   1.000  H
  H402     1.0000 0.94670  0.68810  0.36490  Biso   1.000  H
  H403     1.0000 0.44670  0.81190  0.63510  Biso   1.000  H
  H404     1.0000 0.55330  0.31190  0.86490  Biso   1.000  H
  H405     1.0000 0.18810  0.13510  0.05330  Biso   1.000  H
  H406     1.0000 0.68810  0.36490  0.94670  Biso   1.000  H
  H407     1.0000 0.81190  0.63510  0.44670  Biso   1.000  H
  H408     1.0000 0.31190  0.86490  0.55330  Biso   1.000  H
  H409     1.0000 0.30330  0.38510  0.43810  Biso   1.000  H
  H410     1.0000 0.19670  0.61490  0.93810  Biso   1.000  H
  H411     1.0000 0.69670  0.88510  0.06190  Biso   1.000  H
  H412     1.0000 0.80330  0.11490  0.56190  Biso   1.000  H
  H413     1.0000 0.43810  0.30330  0.38510  Biso   1.000  H
  H414     1.0000 0.93810  0.19670  0.61490  Biso   1.000  H
  H415     1.0000 0.06190  0.69670  0.88510  Biso   1.000  H
  H416     1.0000 0.56190  0.80330  0.11490  Biso   1.000  H
  H417     1.0000 0.38510  0.43810  0.30330  Biso   1.000  H
  H418     1.0000 0.61490  0.93810  0.19670  Biso   1.000  H
  H419     1.0000 0.88510  0.06190  0.69670  Biso   1.000  H
  H420     1.0000 0.11490  0.56190  0.80330  Biso   1.000  H
  H421     1.0000 0.63510  0.55330  0.68810  Biso   1.000  H
  H422     1.0000 0.86490  0.44670  0.18810  Biso   1.000  H
  H423     1.0000 0.13510  0.94670  0.31190  Biso   1.000  H
  H424     1.0000 0.36490  0.05330  0.81190  Biso   1.000  H
  H425     1.0000 0.55330  0.68810  0.63510  Biso   1.000  H
  H426     1.0000 0.44670  0.18810  0.86490  Biso   1.000  H
  H427     1.0000 0.94670  0.31190  0.13510  Biso   1.000  H
  H428     1.0000 0.05330  0.81190  0.36490  Biso   1.000  H
  H429     1.0000 0.68810  0.63510  0.55330  Biso   1.000  H
  H430     1.0000 0.18810  0.86490  0.44670  Biso   1.000  H
  H431     1.0000 0.31190  0.13510  0.94670  Biso   1.000  H
  H432     1.0000 0.81190  0.36490  0.05330  Biso   1.000  H
  C577     1.0000 0.75550  0.83150  0.89780  Biso   1.000  C
  C578     1.0000 0.74450  0.16850  0.39780  Biso   1.000  C
  C579     1.0000 0.24450  0.33150  0.60220  Biso   1.000  C
  C580     1.0000 0.25550  0.66850  0.10220  Biso   1.000  C
  C581     1.0000 0.89780  0.75550  0.83150  Biso   1.000  C
  C582     1.0000 0.39780  0.74450  0.16850  Biso   1.000  C
  C583     1.0000 0.60220  0.24450  0.33150  Biso   1.000  C
  C584     1.0000 0.10220  0.25550  0.66850  Biso   1.000  C
  C585     1.0000 0.83150  0.89780  0.75550  Biso   1.000  C
  C586     1.0000 0.16850  0.39780  0.74450  Biso   1.000  C
  C587     1.0000 0.33150  0.60220  0.24450  Biso   1.000  C
  C588     1.0000 0.66850  0.10220  0.25550  Biso   1.000  C
  C589     1.0000 0.08150  0.00550  0.14780  Biso   1.000  C
  C590     1.0000 0.41850  0.99450  0.64780  Biso   1.000  C
  C591     1.0000 0.58150  0.49450  0.85220  Biso   1.000  C
  C592     1.0000 0.91850  0.50550  0.35220  Biso   1.000  C
  C593     1.0000 0.00550  0.14780  0.08150  Biso   1.000  C
  C594     1.0000 0.99450  0.64780  0.41850  Biso   1.000  C
  C595     1.0000 0.49450  0.85220  0.58150  Biso   1.000  C
  C596     1.0000 0.50550  0.35220  0.91850  Biso   1.000  C
  C597     1.0000 0.14780  0.08150  0.00550  Biso   1.000  C
  C598     1.0000 0.64780  0.41850  0.99450  Biso   1.000  C
  C599     1.0000 0.85220  0.58150  0.49450  Biso   1.000  C
  C600     1.0000 0.35220  0.91850  0.50550  Biso   1.000  C
  C601     1.0000 0.25550  0.33150  0.39780  Biso   1.000  C
  C602     1.0000 0.24450  0.66850  0.89780  Biso   1.000  C
  C603     1.0000 0.74450  0.83150  0.10220  Biso   1.000  C
  C604     1.0000 0.75550  0.16850  0.60220  Biso   1.000  C
  C605     1.0000 0.39780  0.25550  0.33150  Biso   1.000  C
  C606     1.0000 0.89780  0.24450  0.66850  Biso   1.000  C
  C607     1.0000 0.10220  0.74450  0.83150  Biso   1.000  C
  C608     1.0000 0.60220  0.75550  0.16850  Biso   1.000  C
  C609     1.0000 0.33150  0.39780  0.25550  Biso   1.000  C
  C610     1.0000 0.66850  0.89780  0.24450  Biso   1.000  C
  C611     1.0000 0.83150  0.10220  0.74450  Biso   1.000  C
  C612     1.0000 0.16850  0.60220  0.75550  Biso   1.000  C
  C613     1.0000 0.58150  0.50550  0.64780  Biso   1.000  C
  C614     1.0000 0.91850  0.49450  0.14780  Biso   1.000  C
  C615     1.0000 0.08150  0.99450  0.35220  Biso   1.000  C
  C616     1.0000 0.41850  0.00550  0.85220  Biso   1.000  C
  C617     1.0000 0.50550  0.64780  0.58150  Biso   1.000  C
  C618     1.0000 0.49450  0.14780  0.91850  Biso   1.000  C
  C619     1.0000 0.99450  0.35220  0.08150  Biso   1.000  C
  C620     1.0000 0.00550  0.85220  0.41850  Biso   1.000  C
  C621     1.0000 0.64780  0.58150  0.50550  Biso   1.000  C
  C622     1.0000 0.14780  0.91850  0.49450  Biso   1.000  C
  C623     1.0000 0.35220  0.08150  0.99450  Biso   1.000  C
  C624     1.0000 0.85220  0.41850  0.00550  Biso   1.000  C
  H433     1.0000 0.73600  0.85660  0.87720  Biso   1.000  H
  H434     1.0000 0.76400  0.14340  0.37720  Biso   1.000  H
  H435     1.0000 0.26400  0.35660  0.62280  Biso   1.000  H
  H436     1.0000 0.23600  0.64340  0.12280  Biso   1.000  H
  H437     1.0000 0.87720  0.73600  0.85660  Biso   1.000  H
  H438     1.0000 0.37720  0.76400  0.14340  Biso   1.000  H
  H439     1.0000 0.62280  0.26400  0.35660  Biso   1.000  H
  H440     1.0000 0.12280  0.23600  0.64340  Biso   1.000  H
  H441     1.0000 0.85660  0.87720  0.73600  Biso   1.000  H
  H442     1.0000 0.14340  0.37720  0.76400  Biso   1.000  H
  H443     1.0000 0.35660  0.62280  0.26400  Biso   1.000  H
  H444     1.0000 0.64340  0.12280  0.23600  Biso   1.000  H
  H445     1.0000 0.10660  0.98600  0.12720  Biso   1.000  H
  H446     1.0000 0.39340  0.01400  0.62720  Biso   1.000  H
  H447     1.0000 0.60660  0.51400  0.87280  Biso   1.000  H
  H448     1.0000 0.89340  0.48600  0.37280  Biso   1.000  H
  H449     1.0000 0.98600  0.12720  0.10660  Biso   1.000  H
  H450     1.0000 0.01400  0.62720  0.39340  Biso   1.000  H
  H451     1.0000 0.51400  0.87280  0.60660  Biso   1.000  H
  H452     1.0000 0.48600  0.37280  0.89340  Biso   1.000  H
  H453     1.0000 0.12720  0.10660  0.98600  Biso   1.000  H
  H454     1.0000 0.62720  0.39340  0.01400  Biso   1.000  H
  H455     1.0000 0.87280  0.60660  0.51400  Biso   1.000  H
  H456     1.0000 0.37280  0.89340  0.48600  Biso   1.000  H
  H457     1.0000 0.23600  0.35660  0.37720  Biso   1.000  H
  H458     1.0000 0.26400  0.64340  0.87720  Biso   1.000  H
  H459     1.0000 0.76400  0.85660  0.12280  Biso   1.000  H
  H460     1.0000 0.73600  0.14340  0.62280  Biso   1.000  H
  H461     1.0000 0.37720  0.23600  0.35660  Biso   1.000  H
  H462     1.0000 0.87720  0.26400  0.64340  Biso   1.000  H
  H463     1.0000 0.12280  0.76400  0.85660  Biso   1.000  H
  H464     1.0000 0.62280  0.73600  0.14340  Biso   1.000  H
  H465     1.0000 0.35660  0.37720  0.23600  Biso   1.000  H
  H466     1.0000 0.64340  0.87720  0.26400  Biso   1.000  H
  H467     1.0000 0.85660  0.12280  0.76400  Biso   1.000  H
  H468     1.0000 0.14340  0.62280  0.73600  Biso   1.000  H
  H469     1.0000 0.60660  0.48600  0.62720  Biso   1.000  H
  H470     1.0000 0.89340  0.51400  0.12720  Biso   1.000  H
  H471     1.0000 0.10660  0.01400  0.37280  Biso   1.000  H
  H472     1.0000 0.39340  0.98600  0.87280  Biso   1.000  H
  H473     1.0000 0.48600  0.62720  0.60660  Biso   1.000  H
  H474     1.0000 0.51400  0.12720  0.89340  Biso   1.000  H
  H475     1.0000 0.01400  0.37280  0.10660  Biso   1.000  H
  H476     1.0000 0.98600  0.87280  0.39340  Biso   1.000  H
  H477     1.0000 0.62720  0.60660  0.48600  Biso   1.000  H
  H478     1.0000 0.12720  0.89340  0.51400  Biso   1.000  H
  H479     1.0000 0.37280  0.10660  0.01400  Biso   1.000  H
  H480     1.0000 0.87280  0.39340  0.98600  Biso   1.000  H
