data_image0
_cell_length_a       26.257
_cell_length_b       16.047
_cell_length_c       20.808
_cell_angle_alpha    90
_cell_angle_beta     95.45
_cell_angle_gamma    90

_symmetry_space_group_name_H-M    "P 1"
_symmetry_int_tables_number       1

loop_
  _symmetry_equiv_pos_as_xyz
  'x, y, z'

loop_
  _atom_site_label
  _atom_site_occupancy
  _atom_site_fract_x
  _atom_site_fract_y
  _atom_site_fract_z
  _atom_site_thermal_displace_type
  _atom_site_B_iso_or_equiv
  _atom_site_type_symbol
  O1       1.0000 0.45977  0.58750  0.31613  Biso   1.000  O
  O2       1.0000 0.54023  0.58750  0.18387  Biso   1.000  O
  O3       1.0000 0.95977  0.08750  0.31613  Biso   1.000  O
  O4       1.0000 0.04023  0.08750  0.18387  Biso   1.000  O
  O5       1.0000 0.54023  0.41250  0.68387  Biso   1.000  O
  O6       1.0000 0.45977  0.41250  0.81613  Biso   1.000  O
  O7       1.0000 0.04023  0.91250  0.68387  Biso   1.000  O
  O8       1.0000 0.95977  0.91250  0.81613  Biso   1.000  O
  O9       1.0000 0.43720  0.57920  0.20944  Biso   1.000  O
  O10      1.0000 0.56280  0.57920  0.29056  Biso   1.000  O
  O11      1.0000 0.93720  0.07920  0.20944  Biso   1.000  O
  O12      1.0000 0.06280  0.07920  0.29056  Biso   1.000  O
  O13      1.0000 0.56280  0.42080  0.79056  Biso   1.000  O
  O14      1.0000 0.43720  0.42080  0.70944  Biso   1.000  O
  O15      1.0000 0.06280  0.92080  0.79056  Biso   1.000  O
  O16      1.0000 0.93720  0.92080  0.70944  Biso   1.000  O
  C1       1.0000 0.43170  0.60610  0.26520  Biso   1.000  C
  C2       1.0000 0.56830  0.60610  0.23480  Biso   1.000  C
  C3       1.0000 0.93170  0.10610  0.26520  Biso   1.000  C
  C4       1.0000 0.06830  0.10610  0.23480  Biso   1.000  C
  C5       1.0000 0.56830  0.39390  0.73480  Biso   1.000  C
  C6       1.0000 0.43170  0.39390  0.76520  Biso   1.000  C
  C7       1.0000 0.06830  0.89390  0.73480  Biso   1.000  C
  C8       1.0000 0.93170  0.89390  0.76520  Biso   1.000  C
  C9       1.0000 0.38850  0.66480  0.27350  Biso   1.000  C
  C10      1.0000 0.61150  0.66480  0.22650  Biso   1.000  C
  C11      1.0000 0.88850  0.16480  0.27350  Biso   1.000  C
  C12      1.0000 0.11150  0.16480  0.22650  Biso   1.000  C
  C13      1.0000 0.61150  0.33520  0.72650  Biso   1.000  C
  C14      1.0000 0.38850  0.33520  0.77350  Biso   1.000  C
  C15      1.0000 0.11150  0.83520  0.72650  Biso   1.000  C
  C16      1.0000 0.88850  0.83520  0.77350  Biso   1.000  C
  C17      1.0000 0.35550  0.68860  0.21960  Biso   1.000  C
  C18      1.0000 0.64450  0.68860  0.28040  Biso   1.000  C
  C19      1.0000 0.85550  0.18860  0.21960  Biso   1.000  C
  C20      1.0000 0.14450  0.18860  0.28040  Biso   1.000  C
  C21      1.0000 0.64450  0.31140  0.78040  Biso   1.000  C
  C22      1.0000 0.35550  0.31140  0.71960  Biso   1.000  C
  C23      1.0000 0.14450  0.81140  0.78040  Biso   1.000  C
  C24      1.0000 0.85550  0.81140  0.71960  Biso   1.000  C
  H1       1.0000 0.36090  0.66820  0.17890  Biso   1.000  H
  H2       1.0000 0.63910  0.66820  0.32110  Biso   1.000  H
  H3       1.0000 0.86090  0.16820  0.17890  Biso   1.000  H
  H4       1.0000 0.13910  0.16820  0.32110  Biso   1.000  H
  H5       1.0000 0.63910  0.33180  0.82110  Biso   1.000  H
  H6       1.0000 0.36090  0.33180  0.67890  Biso   1.000  H
  H7       1.0000 0.13910  0.83180  0.82110  Biso   1.000  H
  H8       1.0000 0.86090  0.83180  0.67890  Biso   1.000  H
  C25      1.0000 0.31480  0.74270  0.22650  Biso   1.000  C
  C26      1.0000 0.68520  0.74270  0.27350  Biso   1.000  C
  C27      1.0000 0.81480  0.24270  0.22650  Biso   1.000  C
  C28      1.0000 0.18520  0.24270  0.27350  Biso   1.000  C
  C29      1.0000 0.68520  0.25730  0.77350  Biso   1.000  C
  C30      1.0000 0.31480  0.25730  0.72650  Biso   1.000  C
  C31      1.0000 0.18520  0.75730  0.77350  Biso   1.000  C
  C32      1.0000 0.81480  0.75730  0.72650  Biso   1.000  C
  H9       1.0000 0.29290  0.75840  0.19070  Biso   1.000  H
  H10      1.0000 0.70710  0.75840  0.30930  Biso   1.000  H
  H11      1.0000 0.79290  0.25840  0.19070  Biso   1.000  H
  H12      1.0000 0.20710  0.25840  0.30930  Biso   1.000  H
  H13      1.0000 0.70710  0.24160  0.80930  Biso   1.000  H
  H14      1.0000 0.29290  0.24160  0.69070  Biso   1.000  H
  H15      1.0000 0.20710  0.74160  0.80930  Biso   1.000  H
  H16      1.0000 0.79290  0.74160  0.69070  Biso   1.000  H
  C33      1.0000 0.37960  0.69470  0.33320  Biso   1.000  C
  C34      1.0000 0.62040  0.69470  0.16680  Biso   1.000  C
  C35      1.0000 0.87960  0.19470  0.33320  Biso   1.000  C
  C36      1.0000 0.12040  0.19470  0.16680  Biso   1.000  C
  C37      1.0000 0.62040  0.30530  0.66680  Biso   1.000  C
  C38      1.0000 0.37960  0.30530  0.83320  Biso   1.000  C
  C39      1.0000 0.12040  0.80530  0.66680  Biso   1.000  C
  C40      1.0000 0.87960  0.80530  0.83320  Biso   1.000  C
  H17      1.0000 0.40110  0.67830  0.36900  Biso   1.000  H
  H18      1.0000 0.59890  0.67830  0.13100  Biso   1.000  H
  H19      1.0000 0.90110  0.17830  0.36900  Biso   1.000  H
  H20      1.0000 0.09890  0.17830  0.13100  Biso   1.000  H
  H21      1.0000 0.59890  0.32170  0.63100  Biso   1.000  H
  H22      1.0000 0.40110  0.32170  0.86900  Biso   1.000  H
  H23      1.0000 0.09890  0.82170  0.63100  Biso   1.000  H
  H24      1.0000 0.90110  0.82170  0.86900  Biso   1.000  H
  C41      1.0000 0.33920  0.74900  0.34170  Biso   1.000  C
  C42      1.0000 0.66080  0.74900  0.15830  Biso   1.000  C
  C43      1.0000 0.83920  0.24900  0.34170  Biso   1.000  C
  C44      1.0000 0.16080  0.24900  0.15830  Biso   1.000  C
  C45      1.0000 0.66080  0.25100  0.65830  Biso   1.000  C
  C46      1.0000 0.33920  0.25100  0.84170  Biso   1.000  C
  C47      1.0000 0.16080  0.75100  0.65830  Biso   1.000  C
  C48      1.0000 0.83920  0.75100  0.84170  Biso   1.000  C
  H25      1.0000 0.33360  0.76890  0.38250  Biso   1.000  H
  H26      1.0000 0.66640  0.76890  0.11750  Biso   1.000  H
  H27      1.0000 0.83360  0.26890  0.38250  Biso   1.000  H
  H28      1.0000 0.16640  0.26890  0.11750  Biso   1.000  H
  H29      1.0000 0.66640  0.23110  0.61750  Biso   1.000  H
  H30      1.0000 0.33360  0.23110  0.88250  Biso   1.000  H
  H31      1.0000 0.16640  0.73110  0.61750  Biso   1.000  H
  H32      1.0000 0.83360  0.73110  0.88250  Biso   1.000  H
  C49      1.0000 0.30730  0.77260  0.28710  Biso   1.000  C
  C50      1.0000 0.69270  0.77260  0.21290  Biso   1.000  C
  C51      1.0000 0.80730  0.27260  0.28710  Biso   1.000  C
  C52      1.0000 0.19270  0.27260  0.21290  Biso   1.000  C
  C53      1.0000 0.69270  0.22740  0.71290  Biso   1.000  C
  C54      1.0000 0.30730  0.22740  0.78710  Biso   1.000  C
  C55      1.0000 0.19270  0.72740  0.71290  Biso   1.000  C
  C56      1.0000 0.80730  0.72740  0.78710  Biso   1.000  C
  O17      1.0000 0.26399  0.82040  0.29080  Biso   1.000  O
  O18      1.0000 0.73601  0.82040  0.20920  Biso   1.000  O
  O19      1.0000 0.76399  0.32040  0.29080  Biso   1.000  O
  O20      1.0000 0.23601  0.32040  0.20920  Biso   1.000  O
  O21      1.0000 0.73601  0.17960  0.70920  Biso   1.000  O
  O22      1.0000 0.26399  0.17960  0.79080  Biso   1.000  O
  O23      1.0000 0.23601  0.67960  0.70920  Biso   1.000  O
  O24      1.0000 0.76399  0.67960  0.79080  Biso   1.000  O
  C57      1.0000 0.26480  0.89420  0.32590  Biso   1.000  C
  C58      1.0000 0.73520  0.89420  0.17410  Biso   1.000  C
  C59      1.0000 0.76480  0.39420  0.32590  Biso   1.000  C
  C60      1.0000 0.23520  0.39420  0.17410  Biso   1.000  C
  C61      1.0000 0.73520  0.10580  0.67410  Biso   1.000  C
  C62      1.0000 0.26480  0.10580  0.82590  Biso   1.000  C
  C63      1.0000 0.23520  0.60580  0.67410  Biso   1.000  C
  C64      1.0000 0.76480  0.60580  0.82590  Biso   1.000  C
  C65      1.0000 0.30850  0.93610  0.35010  Biso   1.000  C
  C66      1.0000 0.69150  0.93610  0.14990  Biso   1.000  C
  C67      1.0000 0.80850  0.43610  0.35010  Biso   1.000  C
  C68      1.0000 0.19150  0.43610  0.14990  Biso   1.000  C
  C69      1.0000 0.69150  0.06390  0.64990  Biso   1.000  C
  C70      1.0000 0.30850  0.06390  0.85010  Biso   1.000  C
  C71      1.0000 0.19150  0.56390  0.64990  Biso   1.000  C
  C72      1.0000 0.80850  0.56390  0.85010  Biso   1.000  C
  H33      1.0000 0.34080  0.91430  0.34530  Biso   1.000  H
  H34      1.0000 0.65920  0.91430  0.15470  Biso   1.000  H
  H35      1.0000 0.84080  0.41430  0.34530  Biso   1.000  H
  H36      1.0000 0.15920  0.41430  0.15470  Biso   1.000  H
  H37      1.0000 0.65920  0.08570  0.65470  Biso   1.000  H
  H38      1.0000 0.34080  0.08570  0.84530  Biso   1.000  H
  H39      1.0000 0.15920  0.58570  0.65470  Biso   1.000  H
  H40      1.0000 0.84080  0.58570  0.84530  Biso   1.000  H
  C73      1.0000 0.65570  0.45220  0.50670  Biso   1.000  C
  C74      1.0000 0.34430  0.45220  0.99330  Biso   1.000  C
  C75      1.0000 0.15570  0.95220  0.50670  Biso   1.000  C
  C76      1.0000 0.84430  0.95220  0.99330  Biso   1.000  C
  C77      1.0000 0.34430  0.54780  0.49330  Biso   1.000  C
  C78      1.0000 0.65570  0.54780  0.00670  Biso   1.000  C
  C79      1.0000 0.84430  0.04780  0.49330  Biso   1.000  C
  C80      1.0000 0.15570  0.04780  0.00670  Biso   1.000  C
  H41      1.0000 0.66700  0.42430  0.46980  Biso   1.000  H
  H42      1.0000 0.33300  0.42430  0.03020  Biso   1.000  H
  H43      1.0000 0.16700  0.92430  0.46980  Biso   1.000  H
  H44      1.0000 0.83300  0.92430  0.03020  Biso   1.000  H
  H45      1.0000 0.33300  0.57570  0.53020  Biso   1.000  H
  H46      1.0000 0.66700  0.57570  0.96980  Biso   1.000  H
  H47      1.0000 0.83300  0.07570  0.53020  Biso   1.000  H
  H48      1.0000 0.16700  0.07570  0.96980  Biso   1.000  H
  H49      1.0000 0.67760  0.49900  0.51780  Biso   1.000  H
  H50      1.0000 0.32240  0.49900  0.98220  Biso   1.000  H
  H51      1.0000 0.17760  0.99900  0.51780  Biso   1.000  H
  H52      1.0000 0.82240  0.99900  0.98220  Biso   1.000  H
  H53      1.0000 0.32240  0.50100  0.48220  Biso   1.000  H
  H54      1.0000 0.67760  0.50100  0.01780  Biso   1.000  H
  H55      1.0000 0.82240  0.00100  0.48220  Biso   1.000  H
  H56      1.0000 0.17760  0.00100  0.01780  Biso   1.000  H
  H57      1.0000 0.65690  0.41430  0.54250  Biso   1.000  H
  H58      1.0000 0.34310  0.41430  0.95750  Biso   1.000  H
  H59      1.0000 0.15690  0.91430  0.54250  Biso   1.000  H
  H60      1.0000 0.84310  0.91430  0.95750  Biso   1.000  H
  H61      1.0000 0.34310  0.58570  0.45750  Biso   1.000  H
  H62      1.0000 0.65690  0.58570  0.04250  Biso   1.000  H
  H63      1.0000 0.84310  0.08570  0.45750  Biso   1.000  H
  H64      1.0000 0.15690  0.08570  0.04250  Biso   1.000  H
  O25      1.0000 0.69878  0.82100  0.42540  Biso   1.000  O
  O26      1.0000 0.30122  0.82100  0.07460  Biso   1.000  O
  O27      1.0000 0.19878  0.32100  0.42540  Biso   1.000  O
  O28      1.0000 0.80122  0.32100  0.07460  Biso   1.000  O
  O29      1.0000 0.30122  0.17900  0.57460  Biso   1.000  O
  O30      1.0000 0.69878  0.17900  0.92540  Biso   1.000  O
  O31      1.0000 0.80122  0.67900  0.57460  Biso   1.000  O
  O32      1.0000 0.19878  0.67900  0.92540  Biso   1.000  O
  O33      1.0000 0.29197  0.16180  0.44453  Biso   1.000  O
  O34      1.0000 0.70803  0.16180  0.05547  Biso   1.000  O
  O35      1.0000 0.79197  0.66180  0.44453  Biso   1.000  O
  O36      1.0000 0.20803  0.66180  0.05547  Biso   1.000  O
  O37      1.0000 0.70803  0.83820  0.55547  Biso   1.000  O
  O38      1.0000 0.29197  0.83820  0.94453  Biso   1.000  O
  O39      1.0000 0.20803  0.33820  0.55547  Biso   1.000  O
  O40      1.0000 0.79197  0.33820  0.94453  Biso   1.000  O
  O41      1.0000 0.55408  0.40700  0.29871  Biso   1.000  O
  O42      1.0000 0.44592  0.40700  0.20129  Biso   1.000  O
  O43      1.0000 0.05408  0.90700  0.29871  Biso   1.000  O
  O44      1.0000 0.94592  0.90700  0.20129  Biso   1.000  O
  O45      1.0000 0.44592  0.59300  0.70129  Biso   1.000  O
  O46      1.0000 0.55408  0.59300  0.79871  Biso   1.000  O
  O47      1.0000 0.94592  0.09300  0.70129  Biso   1.000  O
  O48      1.0000 0.05408  0.09300  0.79871  Biso   1.000  O
  Cu1      1.0000 0.50909  0.49876  0.31369  Biso   1.000  Cu
  Cu2      1.0000 0.49091  0.49876  0.18631  Biso   1.000  Cu
  Cu3      1.0000 0.00909  0.99876  0.31369  Biso   1.000  Cu
  Cu4      1.0000 0.99091  0.99876  0.18631  Biso   1.000  Cu
  Cu5      1.0000 0.49091  0.50124  0.68631  Biso   1.000  Cu
  Cu6      1.0000 0.50909  0.50124  0.81369  Biso   1.000  Cu
  Cu7      1.0000 0.99091  0.00124  0.68631  Biso   1.000  Cu
  Cu8      1.0000 0.00909  0.00124  0.81369  Biso   1.000  Cu
  Cu9      1.0000 0.70007  0.74128  0.49695  Biso   1.000  Cu
  Cu10     1.0000 0.29993  0.74128  0.00305  Biso   1.000  Cu
  Cu11     1.0000 0.20007  0.24128  0.49695  Biso   1.000  Cu
  Cu12     1.0000 0.79993  0.24128  0.00305  Biso   1.000  Cu
  Cu13     1.0000 0.29993  0.25872  0.50305  Biso   1.000  Cu
  Cu14     1.0000 0.70007  0.25872  0.99695  Biso   1.000  Cu
  Cu15     1.0000 0.79993  0.75872  0.50305  Biso   1.000  Cu
  Cu16     1.0000 0.20007  0.75872  0.99695  Biso   1.000  Cu
  O49      1.0000 0.53670  0.50060  0.41583  Biso   1.000  O
  O50      1.0000 0.46330  0.50060  0.08417  Biso   1.000  O
  O51      1.0000 0.03670  0.00060  0.41583  Biso   1.000  O
  O52      1.0000 0.96330  0.00060  0.08417  Biso   1.000  O
  O53      1.0000 0.46330  0.49940  0.58417  Biso   1.000  O
  O54      1.0000 0.53670  0.49940  0.91583  Biso   1.000  O
  O55      1.0000 0.96330  0.99940  0.58417  Biso   1.000  O
  O56      1.0000 0.03670  0.99940  0.91583  Biso   1.000  O
  O57      1.0000 0.54857  0.41740  0.19063  Biso   1.000  O
  O58      1.0000 0.45143  0.41740  0.30937  Biso   1.000  O
  O59      1.0000 0.04857  0.91740  0.19063  Biso   1.000  O
  O60      1.0000 0.95143  0.91740  0.30937  Biso   1.000  O
  O61      1.0000 0.45143  0.58260  0.80937  Biso   1.000  O
  O62      1.0000 0.54857  0.58260  0.69063  Biso   1.000  O
  O63      1.0000 0.95143  0.08260  0.80937  Biso   1.000  O
  O64      1.0000 0.04857  0.08260  0.69063  Biso   1.000  O
  O65      1.0000 0.20637  0.14780  0.43667  Biso   1.000  O
  O66      1.0000 0.79363  0.14780  0.06333  Biso   1.000  O
  O67      1.0000 0.70637  0.64780  0.43667  Biso   1.000  O
  O68      1.0000 0.29363  0.64780  0.06333  Biso   1.000  O
  O69      1.0000 0.79363  0.85220  0.56333  Biso   1.000  O
  O70      1.0000 0.20637  0.85220  0.93667  Biso   1.000  O
  O71      1.0000 0.29363  0.35220  0.56333  Biso   1.000  O
  O72      1.0000 0.70637  0.35220  0.93667  Biso   1.000  O
  O73      1.0000 0.78426  0.83790  0.43186  Biso   1.000  O
  O74      1.0000 0.21574  0.83790  0.06814  Biso   1.000  O
  O75      1.0000 0.28426  0.33790  0.43186  Biso   1.000  O
  O76      1.0000 0.71574  0.33790  0.06814  Biso   1.000  O
  O77      1.0000 0.21574  0.16210  0.56814  Biso   1.000  O
  O78      1.0000 0.78426  0.16210  0.93186  Biso   1.000  O
  O79      1.0000 0.71574  0.66210  0.56814  Biso   1.000  O
  O80      1.0000 0.28426  0.66210  0.93186  Biso   1.000  O
  O81      1.0000 0.62037  0.73690  0.50580  Biso   1.000  O
  O82      1.0000 0.37963  0.73690  0.99420  Biso   1.000  O
  O83      1.0000 0.12037  0.23690  0.50580  Biso   1.000  O
  O84      1.0000 0.87963  0.23690  0.99420  Biso   1.000  O
  O85      1.0000 0.37963  0.26310  0.49420  Biso   1.000  O
  O86      1.0000 0.62037  0.26310  0.00580  Biso   1.000  O
  O87      1.0000 0.87963  0.76310  0.49420  Biso   1.000  O
  O88      1.0000 0.12037  0.76310  0.00580  Biso   1.000  O
  O89      1.0000 0.71441  0.13240  0.24190  Biso   1.000  O
  O90      1.0000 0.28559  0.13240  0.25810  Biso   1.000  O
  O91      1.0000 0.21441  0.63240  0.24190  Biso   1.000  O
  O92      1.0000 0.78559  0.63240  0.25810  Biso   1.000  O
  O93      1.0000 0.28559  0.86760  0.75810  Biso   1.000  O
  O94      1.0000 0.71441  0.86760  0.74190  Biso   1.000  O
  O95      1.0000 0.78559  0.36760  0.75810  Biso   1.000  O
  O96      1.0000 0.21441  0.36760  0.74190  Biso   1.000  O
  N1       1.0000 0.60390  0.48090  0.49170  Biso   1.000  N
  N2       1.0000 0.39610  0.48090  0.00830  Biso   1.000  N
  N3       1.0000 0.10390  0.98090  0.49170  Biso   1.000  N
  N4       1.0000 0.89610  0.98090  0.00830  Biso   1.000  N
  N5       1.0000 0.39610  0.51910  0.50830  Biso   1.000  N
  N6       1.0000 0.60390  0.51910  0.99170  Biso   1.000  N
  N7       1.0000 0.89610  0.01910  0.50830  Biso   1.000  N
  N8       1.0000 0.10390  0.01910  0.99170  Biso   1.000  N
  C81      1.0000 0.56580  0.38490  0.24340  Biso   1.000  C
  C82      1.0000 0.43420  0.38490  0.25660  Biso   1.000  C
  C83      1.0000 0.06580  0.88490  0.24340  Biso   1.000  C
  C84      1.0000 0.93420  0.88490  0.25660  Biso   1.000  C
  C85      1.0000 0.43420  0.61510  0.75660  Biso   1.000  C
  C86      1.0000 0.56580  0.61510  0.74340  Biso   1.000  C
  C87      1.0000 0.93420  0.11510  0.75660  Biso   1.000  C
  C88      1.0000 0.06580  0.11510  0.74340  Biso   1.000  C
  C89      1.0000 0.21210  0.00220  0.36380  Biso   1.000  C
  C90      1.0000 0.78790  0.00220  0.13620  Biso   1.000  C
  C91      1.0000 0.71210  0.50220  0.36380  Biso   1.000  C
  C92      1.0000 0.28790  0.50220  0.13620  Biso   1.000  C
  C93      1.0000 0.78790  0.99780  0.63620  Biso   1.000  C
  C94      1.0000 0.21210  0.99780  0.86380  Biso   1.000  C
  C95      1.0000 0.28790  0.49780  0.63620  Biso   1.000  C
  C96      1.0000 0.71210  0.49780  0.86380  Biso   1.000  C
  H65      1.0000 0.17990  0.02430  0.36790  Biso   1.000  H
  H66      1.0000 0.82010  0.02430  0.13210  Biso   1.000  H
  H67      1.0000 0.67990  0.52430  0.36790  Biso   1.000  H
  H68      1.0000 0.32010  0.52430  0.13210  Biso   1.000  H
  H69      1.0000 0.82010  0.97570  0.63210  Biso   1.000  H
  H70      1.0000 0.17990  0.97570  0.86790  Biso   1.000  H
  H71      1.0000 0.32010  0.47570  0.63210  Biso   1.000  H
  H72      1.0000 0.67990  0.47570  0.86790  Biso   1.000  H
  C97      1.0000 0.25070  0.12410  0.42580  Biso   1.000  C
  C98      1.0000 0.74930  0.12410  0.07420  Biso   1.000  C
  C99      1.0000 0.75070  0.62410  0.42580  Biso   1.000  C
  C100     1.0000 0.24930  0.62410  0.07420  Biso   1.000  C
  C101     1.0000 0.74930  0.87590  0.57420  Biso   1.000  C
  C102     1.0000 0.25070  0.87590  0.92580  Biso   1.000  C
  C103     1.0000 0.24930  0.37590  0.57420  Biso   1.000  C
  C104     1.0000 0.75070  0.37590  0.92580  Biso   1.000  C
  C105     1.0000 0.73890  0.85590  0.41030  Biso   1.000  C
  C106     1.0000 0.26110  0.85590  0.08970  Biso   1.000  C
  C107     1.0000 0.23890  0.35590  0.41030  Biso   1.000  C
  C108     1.0000 0.76110  0.35590  0.08970  Biso   1.000  C
  C109     1.0000 0.26110  0.14410  0.58970  Biso   1.000  C
  C110     1.0000 0.73890  0.14410  0.91030  Biso   1.000  C
  C111     1.0000 0.76110  0.64410  0.58970  Biso   1.000  C
  C112     1.0000 0.23890  0.64410  0.91030  Biso   1.000  C
  C113     1.0000 0.60350  0.31550  0.24280  Biso   1.000  C
  C114     1.0000 0.39650  0.31550  0.25720  Biso   1.000  C
  C115     1.0000 0.10350  0.81550  0.24280  Biso   1.000  C
  C116     1.0000 0.89650  0.81550  0.25720  Biso   1.000  C
  C117     1.0000 0.39650  0.68450  0.75720  Biso   1.000  C
  C118     1.0000 0.60350  0.68450  0.74280  Biso   1.000  C
  C119     1.0000 0.89650  0.18450  0.75720  Biso   1.000  C
  C120     1.0000 0.10350  0.18450  0.74280  Biso   1.000  C
  C121     1.0000 0.76700  0.04080  0.30620  Biso   1.000  C
  C122     1.0000 0.23300  0.04080  0.19380  Biso   1.000  C
  C123     1.0000 0.26700  0.54080  0.30620  Biso   1.000  C
  C124     1.0000 0.73300  0.54080  0.19380  Biso   1.000  C
  C125     1.0000 0.23300  0.95920  0.69380  Biso   1.000  C
  C126     1.0000 0.76700  0.95920  0.80620  Biso   1.000  C
  C127     1.0000 0.73300  0.45920  0.69380  Biso   1.000  C
  C128     1.0000 0.26700  0.45920  0.80620  Biso   1.000  C
  H73      1.0000 0.79510  0.07130  0.29540  Biso   1.000  H
  H74      1.0000 0.20490  0.07130  0.20460  Biso   1.000  H
  H75      1.0000 0.29510  0.57130  0.29540  Biso   1.000  H
  H76      1.0000 0.70490  0.57130  0.20460  Biso   1.000  H
  H77      1.0000 0.20490  0.92870  0.70460  Biso   1.000  H
  H78      1.0000 0.79510  0.92870  0.79540  Biso   1.000  H
  H79      1.0000 0.70490  0.42870  0.70460  Biso   1.000  H
  H80      1.0000 0.29510  0.42870  0.79540  Biso   1.000  H
  C129     1.0000 0.66130  0.23260  0.18720  Biso   1.000  C
  C130     1.0000 0.33870  0.23260  0.31280  Biso   1.000  C
  C131     1.0000 0.16130  0.73260  0.18720  Biso   1.000  C
  C132     1.0000 0.83870  0.73260  0.31280  Biso   1.000  C
  C133     1.0000 0.33870  0.76740  0.81280  Biso   1.000  C
  C134     1.0000 0.66130  0.76740  0.68720  Biso   1.000  C
  C135     1.0000 0.83870  0.26740  0.81280  Biso   1.000  C
  C136     1.0000 0.16130  0.26740  0.68720  Biso   1.000  C
  H81      1.0000 0.67590  0.21880  0.14960  Biso   1.000  H
  H82      1.0000 0.32410  0.21880  0.35040  Biso   1.000  H
  H83      1.0000 0.17590  0.71880  0.14960  Biso   1.000  H
  H84      1.0000 0.82410  0.71880  0.35040  Biso   1.000  H
  H85      1.0000 0.32410  0.78120  0.85040  Biso   1.000  H
  H86      1.0000 0.67590  0.78120  0.64960  Biso   1.000  H
  H87      1.0000 0.82410  0.28120  0.85040  Biso   1.000  H
  H88      1.0000 0.17590  0.28120  0.64960  Biso   1.000  H
  C137     1.0000 0.71810  0.06450  0.28320  Biso   1.000  C
  C138     1.0000 0.28190  0.06450  0.21680  Biso   1.000  C
  C139     1.0000 0.21810  0.56450  0.28320  Biso   1.000  C
  C140     1.0000 0.78190  0.56450  0.21680  Biso   1.000  C
  C141     1.0000 0.28190  0.93550  0.71680  Biso   1.000  C
  C142     1.0000 0.71810  0.93550  0.78320  Biso   1.000  C
  C143     1.0000 0.78190  0.43550  0.71680  Biso   1.000  C
  C144     1.0000 0.21810  0.43550  0.78320  Biso   1.000  C
  C145     1.0000 0.77390  0.97110  0.34570  Biso   1.000  C
  C146     1.0000 0.22610  0.97110  0.15430  Biso   1.000  C
  C147     1.0000 0.27390  0.47110  0.34570  Biso   1.000  C
  C148     1.0000 0.72610  0.47110  0.15430  Biso   1.000  C
  C149     1.0000 0.22610  0.02890  0.65430  Biso   1.000  C
  C150     1.0000 0.77390  0.02890  0.84570  Biso   1.000  C
  C151     1.0000 0.72610  0.52890  0.65430  Biso   1.000  C
  C152     1.0000 0.27390  0.52890  0.84570  Biso   1.000  C
  H89      1.0000 0.80680  0.95430  0.36070  Biso   1.000  H
  H90      1.0000 0.19320  0.95430  0.13930  Biso   1.000  H
  H91      1.0000 0.30680  0.45430  0.36070  Biso   1.000  H
  H92      1.0000 0.69320  0.45430  0.13930  Biso   1.000  H
  H93      1.0000 0.19320  0.04570  0.63930  Biso   1.000  H
  H94      1.0000 0.80680  0.04570  0.86070  Biso   1.000  H
  H95      1.0000 0.69320  0.54570  0.63930  Biso   1.000  H
  H96      1.0000 0.30680  0.54570  0.86070  Biso   1.000  H
  C153     1.0000 0.73210  0.92660  0.36280  Biso   1.000  C
  C154     1.0000 0.26790  0.92660  0.13720  Biso   1.000  C
  C155     1.0000 0.23210  0.42660  0.36280  Biso   1.000  C
  C156     1.0000 0.76790  0.42660  0.13720  Biso   1.000  C
  C157     1.0000 0.26790  0.07340  0.63720  Biso   1.000  C
  C158     1.0000 0.73210  0.07340  0.86280  Biso   1.000  C
  C159     1.0000 0.76790  0.57340  0.63720  Biso   1.000  C
  C160     1.0000 0.23210  0.57340  0.86280  Biso   1.000  C
  C161     1.0000 0.25560  0.04500  0.38960  Biso   1.000  C
  C162     1.0000 0.74440  0.04500  0.11040  Biso   1.000  C
  C163     1.0000 0.75560  0.54500  0.38960  Biso   1.000  C
  C164     1.0000 0.24440  0.54500  0.11040  Biso   1.000  C
  C165     1.0000 0.74440  0.95500  0.61040  Biso   1.000  C
  C166     1.0000 0.25560  0.95500  0.88960  Biso   1.000  C
  C167     1.0000 0.24440  0.45500  0.61040  Biso   1.000  C
  C168     1.0000 0.75560  0.45500  0.88960  Biso   1.000  C
  C169     1.0000 0.61750  0.27080  0.29930  Biso   1.000  C
  C170     1.0000 0.38250  0.27080  0.20070  Biso   1.000  C
  C171     1.0000 0.11750  0.77080  0.29930  Biso   1.000  C
  C172     1.0000 0.88250  0.77080  0.20070  Biso   1.000  C
  C173     1.0000 0.38250  0.72920  0.70070  Biso   1.000  C
  C174     1.0000 0.61750  0.72920  0.79930  Biso   1.000  C
  C175     1.0000 0.88250  0.22920  0.70070  Biso   1.000  C
  C176     1.0000 0.11750  0.22920  0.79930  Biso   1.000  C
  H97      1.0000 0.60240  0.28380  0.33670  Biso   1.000  H
  H98      1.0000 0.39760  0.28380  0.16330  Biso   1.000  H
  H99      1.0000 0.10240  0.78380  0.33670  Biso   1.000  H
  H100     1.0000 0.89760  0.78380  0.16330  Biso   1.000  H
  H101     1.0000 0.39760  0.71620  0.66330  Biso   1.000  H
  H102     1.0000 0.60240  0.71620  0.83670  Biso   1.000  H
  H103     1.0000 0.89760  0.21620  0.66330  Biso   1.000  H
  H104     1.0000 0.10240  0.21620  0.83670  Biso   1.000  H
  C177     1.0000 0.62580  0.29550  0.18690  Biso   1.000  C
  C178     1.0000 0.37420  0.29550  0.31310  Biso   1.000  C
  C179     1.0000 0.12580  0.79550  0.18690  Biso   1.000  C
  C180     1.0000 0.87420  0.79550  0.31310  Biso   1.000  C
  C181     1.0000 0.37420  0.70450  0.81310  Biso   1.000  C
  C182     1.0000 0.62580  0.70450  0.68690  Biso   1.000  C
  C183     1.0000 0.87420  0.20450  0.81310  Biso   1.000  C
  C184     1.0000 0.12580  0.20450  0.68690  Biso   1.000  C
  H105     1.0000 0.61670  0.32480  0.14900  Biso   1.000  H
  H106     1.0000 0.38330  0.32480  0.35100  Biso   1.000  H
  H107     1.0000 0.11670  0.82480  0.14900  Biso   1.000  H
  H108     1.0000 0.88330  0.82480  0.35100  Biso   1.000  H
  H109     1.0000 0.38330  0.67520  0.85100  Biso   1.000  H
  H110     1.0000 0.61670  0.67520  0.64900  Biso   1.000  H
  H111     1.0000 0.88330  0.17520  0.85100  Biso   1.000  H
  H112     1.0000 0.11670  0.17520  0.64900  Biso   1.000  H
  C185     1.0000 0.21650  0.92730  0.33220  Biso   1.000  C
  C186     1.0000 0.78350  0.92730  0.16780  Biso   1.000  C
  C187     1.0000 0.71650  0.42730  0.33220  Biso   1.000  C
  C188     1.0000 0.28350  0.42730  0.16780  Biso   1.000  C
  C189     1.0000 0.78350  0.07270  0.66780  Biso   1.000  C
  C190     1.0000 0.21650  0.07270  0.83220  Biso   1.000  C
  C191     1.0000 0.28350  0.57270  0.66780  Biso   1.000  C
  C192     1.0000 0.71650  0.57270  0.83220  Biso   1.000  C
  H113     1.0000 0.18730  0.89910  0.31520  Biso   1.000  H
  H114     1.0000 0.81270  0.89910  0.18480  Biso   1.000  H
  H115     1.0000 0.68730  0.39910  0.31520  Biso   1.000  H
  H116     1.0000 0.31270  0.39910  0.18480  Biso   1.000  H
  H117     1.0000 0.81270  0.10090  0.68480  Biso   1.000  H
  H118     1.0000 0.18730  0.10090  0.81520  Biso   1.000  H
  H119     1.0000 0.31270  0.60090  0.68480  Biso   1.000  H
  H120     1.0000 0.68730  0.60090  0.81520  Biso   1.000  H
  C193     1.0000 0.57960  0.47340  0.43280  Biso   1.000  C
  C194     1.0000 0.42040  0.47340  0.06720  Biso   1.000  C
  C195     1.0000 0.07960  0.97340  0.43280  Biso   1.000  C
  C196     1.0000 0.92040  0.97340  0.06720  Biso   1.000  C
  C197     1.0000 0.42040  0.52660  0.56720  Biso   1.000  C
  C198     1.0000 0.57960  0.52660  0.93280  Biso   1.000  C
  C199     1.0000 0.92040  0.02660  0.56720  Biso   1.000  C
  C200     1.0000 0.07960  0.02660  0.93280  Biso   1.000  C
  H121     1.0000 0.59650  0.44520  0.40200  Biso   1.000  H
  H122     1.0000 0.40350  0.44520  0.09800  Biso   1.000  H
  H123     1.0000 0.09650  0.94520  0.40200  Biso   1.000  H
  H124     1.0000 0.90350  0.94520  0.09800  Biso   1.000  H
  H125     1.0000 0.40350  0.55480  0.59800  Biso   1.000  H
  H126     1.0000 0.59650  0.55480  0.90200  Biso   1.000  H
  H127     1.0000 0.90350  0.05480  0.59800  Biso   1.000  H
  H128     1.0000 0.09650  0.05480  0.90200  Biso   1.000  H
  C201     1.0000 0.67640  0.01890  0.29810  Biso   1.000  C
  C202     1.0000 0.32360  0.01890  0.20190  Biso   1.000  C
  C203     1.0000 0.17640  0.51890  0.29810  Biso   1.000  C
  C204     1.0000 0.82360  0.51890  0.20190  Biso   1.000  C
  C205     1.0000 0.32360  0.98110  0.70190  Biso   1.000  C
  C206     1.0000 0.67640  0.98110  0.79810  Biso   1.000  C
  C207     1.0000 0.82360  0.48110  0.70190  Biso   1.000  C
  C208     1.0000 0.17640  0.48110  0.79810  Biso   1.000  C
  H129     1.0000 0.64360  0.03420  0.28120  Biso   1.000  H
  H130     1.0000 0.35640  0.03420  0.21880  Biso   1.000  H
  H131     1.0000 0.14360  0.53420  0.28120  Biso   1.000  H
  H132     1.0000 0.85640  0.53420  0.21880  Biso   1.000  H
  H133     1.0000 0.35640  0.96580  0.71880  Biso   1.000  H
  H134     1.0000 0.64360  0.96580  0.78120  Biso   1.000  H
  H135     1.0000 0.85640  0.46580  0.71880  Biso   1.000  H
  H136     1.0000 0.14360  0.46580  0.78120  Biso   1.000  H
  C209     1.0000 0.30330  0.01140  0.38160  Biso   1.000  C
  C210     1.0000 0.69670  0.01140  0.11840  Biso   1.000  C
  C211     1.0000 0.80330  0.51140  0.38160  Biso   1.000  C
  C212     1.0000 0.19670  0.51140  0.11840  Biso   1.000  C
  C213     1.0000 0.69670  0.98860  0.61840  Biso   1.000  C
  C214     1.0000 0.30330  0.98860  0.88160  Biso   1.000  C
  C215     1.0000 0.19670  0.48860  0.61840  Biso   1.000  C
  C216     1.0000 0.80330  0.48860  0.88160  Biso   1.000  C
  H137     1.0000 0.33250  0.04010  0.39780  Biso   1.000  H
  H138     1.0000 0.66750  0.04010  0.10220  Biso   1.000  H
  H139     1.0000 0.83250  0.54010  0.39780  Biso   1.000  H
  H140     1.0000 0.16750  0.54010  0.10220  Biso   1.000  H
  H141     1.0000 0.66750  0.95990  0.60220  Biso   1.000  H
  H142     1.0000 0.33250  0.95990  0.89780  Biso   1.000  H
  H143     1.0000 0.16750  0.45990  0.60220  Biso   1.000  H
  H144     1.0000 0.83250  0.45990  0.89780  Biso   1.000  H
  C217     1.0000 0.68320  0.95090  0.33780  Biso   1.000  C
  C218     1.0000 0.31680  0.95090  0.16220  Biso   1.000  C
  C219     1.0000 0.18320  0.45090  0.33780  Biso   1.000  C
  C220     1.0000 0.81680  0.45090  0.16220  Biso   1.000  C
  C221     1.0000 0.31680  0.04910  0.66220  Biso   1.000  C
  C222     1.0000 0.68320  0.04910  0.83780  Biso   1.000  C
  C223     1.0000 0.81680  0.54910  0.66220  Biso   1.000  C
  C224     1.0000 0.18320  0.54910  0.83780  Biso   1.000  C
  H145     1.0000 0.65490  0.92060  0.34810  Biso   1.000  H
  H146     1.0000 0.34510  0.92060  0.15190  Biso   1.000  H
  H147     1.0000 0.15490  0.42060  0.34810  Biso   1.000  H
  H148     1.0000 0.84510  0.42060  0.15190  Biso   1.000  H
  H149     1.0000 0.34510  0.07940  0.65190  Biso   1.000  H
  H150     1.0000 0.65490  0.07940  0.84810  Biso   1.000  H
  H151     1.0000 0.84510  0.57940  0.65190  Biso   1.000  H
  H152     1.0000 0.15490  0.57940  0.84810  Biso   1.000  H
  C225     1.0000 0.67530  0.18960  0.24440  Biso   1.000  C
  C226     1.0000 0.32470  0.18960  0.25560  Biso   1.000  C
  C227     1.0000 0.17530  0.68960  0.24440  Biso   1.000  C
  C228     1.0000 0.82470  0.68960  0.25560  Biso   1.000  C
  C229     1.0000 0.32470  0.81040  0.75560  Biso   1.000  C
  C230     1.0000 0.67530  0.81040  0.74440  Biso   1.000  C
  C231     1.0000 0.82470  0.31040  0.75560  Biso   1.000  C
  C232     1.0000 0.17530  0.31040  0.74440  Biso   1.000  C
  C233     1.0000 0.65300  0.20820  0.30030  Biso   1.000  C
  C234     1.0000 0.34700  0.20820  0.19970  Biso   1.000  C
  C235     1.0000 0.15300  0.70820  0.30030  Biso   1.000  C
  C236     1.0000 0.84700  0.70820  0.19970  Biso   1.000  C
  C237     1.0000 0.34700  0.79180  0.69970  Biso   1.000  C
  C238     1.0000 0.65300  0.79180  0.80030  Biso   1.000  C
  C239     1.0000 0.84700  0.29180  0.69970  Biso   1.000  C
  C240     1.0000 0.15300  0.29180  0.80030  Biso   1.000  C
  H153     1.0000 0.66190  0.17850  0.33810  Biso   1.000  H
  H154     1.0000 0.33810  0.17850  0.16190  Biso   1.000  H
  H155     1.0000 0.16190  0.67850  0.33810  Biso   1.000  H
  H156     1.0000 0.83810  0.67850  0.16190  Biso   1.000  H
  H157     1.0000 0.33810  0.82150  0.66190  Biso   1.000  H
  H158     1.0000 0.66190  0.82150  0.83810  Biso   1.000  H
  H159     1.0000 0.83810  0.32150  0.66190  Biso   1.000  H
  H160     1.0000 0.16190  0.32150  0.83810  Biso   1.000  H
  C241     1.0000 0.58160  0.52410  0.54350  Biso   1.000  C
  C242     1.0000 0.41840  0.52410  0.95650  Biso   1.000  C
  C243     1.0000 0.08160  0.02410  0.54350  Biso   1.000  C
  C244     1.0000 0.91840  0.02410  0.95650  Biso   1.000  C
  C245     1.0000 0.41840  0.47590  0.45650  Biso   1.000  C
  C246     1.0000 0.58160  0.47590  0.04350  Biso   1.000  C
  C247     1.0000 0.91840  0.97590  0.45650  Biso   1.000  C
  C248     1.0000 0.08160  0.97590  0.04350  Biso   1.000  C
  H161     1.0000 0.54730  0.54100  0.52900  Biso   1.000  H
  H162     1.0000 0.45270  0.54100  0.97100  Biso   1.000  H
  H163     1.0000 0.04730  0.04100  0.52900  Biso   1.000  H
  H164     1.0000 0.95270  0.04100  0.97100  Biso   1.000  H
  H165     1.0000 0.45270  0.45900  0.47100  Biso   1.000  H
  H166     1.0000 0.54730  0.45900  0.02900  Biso   1.000  H
  H167     1.0000 0.95270  0.95900  0.47100  Biso   1.000  H
  H168     1.0000 0.04730  0.95900  0.02900  Biso   1.000  H
  H169     1.0000 0.58090  0.48740  0.57990  Biso   1.000  H
  H170     1.0000 0.41910  0.48740  0.92010  Biso   1.000  H
  H171     1.0000 0.08090  0.98740  0.57990  Biso   1.000  H
  H172     1.0000 0.91910  0.98740  0.92010  Biso   1.000  H
  H173     1.0000 0.41910  0.51260  0.42010  Biso   1.000  H
  H174     1.0000 0.58090  0.51260  0.07990  Biso   1.000  H
  H175     1.0000 0.91910  0.01260  0.42010  Biso   1.000  H
  H176     1.0000 0.08090  0.01260  0.07990  Biso   1.000  H
  H177     1.0000 0.60180  0.57230  0.55600  Biso   1.000  H
  H178     1.0000 0.39820  0.57230  0.94400  Biso   1.000  H
  H179     1.0000 0.10180  0.07230  0.55600  Biso   1.000  H
  H180     1.0000 0.89820  0.07230  0.94400  Biso   1.000  H
  H181     1.0000 0.39820  0.42770  0.44400  Biso   1.000  H
  H182     1.0000 0.60180  0.42770  0.05600  Biso   1.000  H
  H183     1.0000 0.89820  0.92770  0.44400  Biso   1.000  H
  H184     1.0000 0.10180  0.92770  0.05600  Biso   1.000  H
  N9       1.0000 0.53480  0.72300  0.48800  Biso   1.000  N
  N10      1.0000 0.46520  0.72300  0.01200  Biso   1.000  N
  N11      1.0000 0.03480  0.22300  0.48800  Biso   1.000  N
  N12      1.0000 0.96520  0.22300  0.01200  Biso   1.000  N
  N13      1.0000 0.46520  0.27700  0.51200  Biso   1.000  N
  N14      1.0000 0.53480  0.27700  0.98800  Biso   1.000  N
  N15      1.0000 0.96520  0.77700  0.51200  Biso   1.000  N
  N16      1.0000 0.03480  0.77700  0.98800  Biso   1.000  N
  C249     1.0000 0.58750  0.72150  0.47360  Biso   1.000  C
  C250     1.0000 0.41250  0.72150  0.02640  Biso   1.000  C
  C251     1.0000 0.08750  0.22150  0.47360  Biso   1.000  C
  C252     1.0000 0.91250  0.22150  0.02640  Biso   1.000  C
  C253     1.0000 0.41250  0.27850  0.52640  Biso   1.000  C
  C254     1.0000 0.58750  0.27850  0.97360  Biso   1.000  C
  C255     1.0000 0.91250  0.77850  0.52640  Biso   1.000  C
  C256     1.0000 0.08750  0.77850  0.97360  Biso   1.000  C
  H185     1.0000 0.59350  0.70540  0.43200  Biso   1.000  H
  H186     1.0000 0.40650  0.70540  0.06800  Biso   1.000  H
  H187     1.0000 0.09350  0.20540  0.43200  Biso   1.000  H
  H188     1.0000 0.90650  0.20540  0.06800  Biso   1.000  H
  H189     1.0000 0.40650  0.29460  0.56800  Biso   1.000  H
  H190     1.0000 0.59350  0.29460  0.93200  Biso   1.000  H
  H191     1.0000 0.90650  0.79460  0.56800  Biso   1.000  H
  H192     1.0000 0.09350  0.79460  0.93200  Biso   1.000  H
  C257     1.0000 0.52470  0.74570  0.55260  Biso   1.000  C
  C258     1.0000 0.47530  0.74570  0.94740  Biso   1.000  C
  C259     1.0000 0.02470  0.24570  0.55260  Biso   1.000  C
  C260     1.0000 0.97530  0.24570  0.94740  Biso   1.000  C
  C261     1.0000 0.47530  0.25430  0.44740  Biso   1.000  C
  C262     1.0000 0.52470  0.25430  0.05260  Biso   1.000  C
  C263     1.0000 0.97530  0.75430  0.44740  Biso   1.000  C
  C264     1.0000 0.02470  0.75430  0.05260  Biso   1.000  C
  H193     1.0000 0.48850  0.74400  0.55600  Biso   1.000  H
  H194     1.0000 0.51150  0.74400  0.94400  Biso   1.000  H
  H195     1.0000 0.98850  0.24400  0.55600  Biso   1.000  H
  H196     1.0000 0.01150  0.24400  0.94400  Biso   1.000  H
  H197     1.0000 0.51150  0.25600  0.44400  Biso   1.000  H
  H198     1.0000 0.48850  0.25600  0.05600  Biso   1.000  H
  H199     1.0000 0.01150  0.75600  0.44400  Biso   1.000  H
  H200     1.0000 0.98850  0.75600  0.05600  Biso   1.000  H
  H201     1.0000 0.53720  0.80110  0.56190  Biso   1.000  H
  H202     1.0000 0.46280  0.80110  0.93810  Biso   1.000  H
  H203     1.0000 0.03720  0.30110  0.56190  Biso   1.000  H
  H204     1.0000 0.96280  0.30110  0.93810  Biso   1.000  H
  H205     1.0000 0.46280  0.19890  0.43810  Biso   1.000  H
  H206     1.0000 0.53720  0.19890  0.06190  Biso   1.000  H
  H207     1.0000 0.96280  0.69890  0.43810  Biso   1.000  H
  H208     1.0000 0.03720  0.69890  0.06190  Biso   1.000  H
  H209     1.0000 0.54160  0.70730  0.58280  Biso   1.000  H
  H210     1.0000 0.45840  0.70730  0.91720  Biso   1.000  H
  H211     1.0000 0.04160  0.20730  0.58280  Biso   1.000  H
  H212     1.0000 0.95840  0.20730  0.91720  Biso   1.000  H
  H213     1.0000 0.45840  0.29270  0.41720  Biso   1.000  H
  H214     1.0000 0.54160  0.29270  0.08280  Biso   1.000  H
  H215     1.0000 0.95840  0.79270  0.41720  Biso   1.000  H
  H216     1.0000 0.04160  0.79270  0.08280  Biso   1.000  H
  C265     1.0000 0.49670  0.69530  0.44750  Biso   1.000  C
  C266     1.0000 0.50330  0.69530  0.05250  Biso   1.000  C
  C267     1.0000 0.99670  0.19530  0.44750  Biso   1.000  C
  C268     1.0000 0.00330  0.19530  0.05250  Biso   1.000  C
  C269     1.0000 0.50330  0.30470  0.55250  Biso   1.000  C
  C270     1.0000 0.49670  0.30470  0.94750  Biso   1.000  C
  C271     1.0000 0.00330  0.80470  0.55250  Biso   1.000  C
  C272     1.0000 0.99670  0.80470  0.94750  Biso   1.000  C
  H217     1.0000 0.50930  0.68110  0.40710  Biso   1.000  H
  H218     1.0000 0.49070  0.68110  0.09290  Biso   1.000  H
  H219     1.0000 0.00930  0.18110  0.40710  Biso   1.000  H
  H220     1.0000 0.99070  0.18110  0.09290  Biso   1.000  H
  H221     1.0000 0.49070  0.31890  0.59290  Biso   1.000  H
  H222     1.0000 0.50930  0.31890  0.90710  Biso   1.000  H
  H223     1.0000 0.99070  0.81890  0.59290  Biso   1.000  H
  H224     1.0000 0.00930  0.81890  0.90710  Biso   1.000  H
  H225     1.0000 0.47100  0.73790  0.44060  Biso   1.000  H
  H226     1.0000 0.52900  0.73790  0.05940  Biso   1.000  H
  H227     1.0000 0.97100  0.23790  0.44060  Biso   1.000  H
  H228     1.0000 0.02900  0.23790  0.05940  Biso   1.000  H
  H229     1.0000 0.52900  0.26210  0.55940  Biso   1.000  H
  H230     1.0000 0.47100  0.26210  0.94060  Biso   1.000  H
  H231     1.0000 0.02900  0.76210  0.55940  Biso   1.000  H
  H232     1.0000 0.97100  0.76210  0.94060  Biso   1.000  H
  H233     1.0000 0.48200  0.64680  0.46540  Biso   1.000  H
  H234     1.0000 0.51800  0.64680  0.03460  Biso   1.000  H
  H235     1.0000 0.98200  0.14680  0.46540  Biso   1.000  H
  H236     1.0000 0.01800  0.14680  0.03460  Biso   1.000  H
  H237     1.0000 0.51800  0.35320  0.53460  Biso   1.000  H
  H238     1.0000 0.48200  0.35320  0.96540  Biso   1.000  H
  H239     1.0000 0.01800  0.85320  0.53460  Biso   1.000  H
  H240     1.0000 0.98200  0.85320  0.96540  Biso   1.000  H
  N17      1.0000 0.68280  0.82900  0.97380  Biso   1.000  N
  N18      1.0000 0.31720  0.82900  0.52620  Biso   1.000  N
  N19      1.0000 0.18280  0.32900  0.97380  Biso   1.000  N
  N20      1.0000 0.81720  0.32900  0.52620  Biso   1.000  N
  N21      1.0000 0.31720  0.17100  0.02620  Biso   1.000  N
  N22      1.0000 0.68280  0.17100  0.47380  Biso   1.000  N
  N23      1.0000 0.81720  0.67100  0.02620  Biso   1.000  N
  N24      1.0000 0.18280  0.67100  0.47380  Biso   1.000  N
  C273     1.0000 0.70460  0.90030  0.97350  Biso   1.000  C
  C274     1.0000 0.29540  0.90030  0.52650  Biso   1.000  C
  C275     1.0000 0.20460  0.40030  0.97350  Biso   1.000  C
  C276     1.0000 0.79540  0.40030  0.52650  Biso   1.000  C
  C277     1.0000 0.29540  0.09970  0.02650  Biso   1.000  C
  C278     1.0000 0.70460  0.09970  0.47350  Biso   1.000  C
  C279     1.0000 0.79540  0.59970  0.02650  Biso   1.000  C
  C280     1.0000 0.20460  0.59970  0.47350  Biso   1.000  C
  H241     1.0000 0.67910  0.94340  0.97010  Biso   1.000  H
  H242     1.0000 0.32090  0.94340  0.52990  Biso   1.000  H
  H243     1.0000 0.17910  0.44340  0.97010  Biso   1.000  H
  H244     1.0000 0.82090  0.44340  0.52990  Biso   1.000  H
  H245     1.0000 0.32090  0.05660  0.02990  Biso   1.000  H
  H246     1.0000 0.67910  0.05660  0.47010  Biso   1.000  H
  H247     1.0000 0.82090  0.55660  0.02990  Biso   1.000  H
  H248     1.0000 0.17910  0.55660  0.47010  Biso   1.000  H
  H249     1.0000 0.72470  0.90370  0.93730  Biso   1.000  H
  H250     1.0000 0.27530  0.90370  0.56270  Biso   1.000  H
  H251     1.0000 0.22470  0.40370  0.93730  Biso   1.000  H
  H252     1.0000 0.77530  0.40370  0.56270  Biso   1.000  H
  H253     1.0000 0.27530  0.09630  0.06270  Biso   1.000  H
  H254     1.0000 0.72470  0.09630  0.43730  Biso   1.000  H
  H255     1.0000 0.77530  0.59630  0.06270  Biso   1.000  H
  H256     1.0000 0.22470  0.59630  0.43730  Biso   1.000  H
  H257     1.0000 0.72650  0.90750  0.01270  Biso   1.000  H
  H258     1.0000 0.27350  0.90750  0.48730  Biso   1.000  H
  H259     1.0000 0.22650  0.40750  0.01270  Biso   1.000  H
  H260     1.0000 0.77350  0.40750  0.48730  Biso   1.000  H
  H261     1.0000 0.27350  0.09250  0.98730  Biso   1.000  H
  H262     1.0000 0.72650  0.09250  0.51270  Biso   1.000  H
  H263     1.0000 0.77350  0.59250  0.98730  Biso   1.000  H
  H264     1.0000 0.22650  0.59250  0.51270  Biso   1.000  H
  C281     1.0000 0.70920  0.75000  0.98400  Biso   1.000  C
  C282     1.0000 0.29080  0.75000  0.51600  Biso   1.000  C
  C283     1.0000 0.20920  0.25000  0.98400  Biso   1.000  C
  C284     1.0000 0.79080  0.25000  0.51600  Biso   1.000  C
  C285     1.0000 0.29080  0.25000  0.01600  Biso   1.000  C
  C286     1.0000 0.70920  0.25000  0.48400  Biso   1.000  C
  C287     1.0000 0.79080  0.75000  0.01600  Biso   1.000  C
  C288     1.0000 0.20920  0.75000  0.48400  Biso   1.000  C
  H265     1.0000 0.74480  0.75750  0.97780  Biso   1.000  H
  H266     1.0000 0.25520  0.75750  0.52220  Biso   1.000  H
  H267     1.0000 0.24480  0.25750  0.97780  Biso   1.000  H
  H268     1.0000 0.75520  0.25750  0.52220  Biso   1.000  H
  H269     1.0000 0.25520  0.24250  0.02220  Biso   1.000  H
  H270     1.0000 0.74480  0.24250  0.47780  Biso   1.000  H
  H271     1.0000 0.75520  0.74250  0.02220  Biso   1.000  H
  H272     1.0000 0.24480  0.74250  0.47780  Biso   1.000  H
  H273     1.0000 0.69450  0.71010  0.95310  Biso   1.000  H
  H274     1.0000 0.30550  0.71010  0.54690  Biso   1.000  H
  H275     1.0000 0.19450  0.21010  0.95310  Biso   1.000  H
  H276     1.0000 0.80550  0.21010  0.54690  Biso   1.000  H
  H277     1.0000 0.30550  0.28990  0.04690  Biso   1.000  H
  H278     1.0000 0.69450  0.28990  0.45310  Biso   1.000  H
  H279     1.0000 0.80550  0.78990  0.04690  Biso   1.000  H
  H280     1.0000 0.19450  0.78990  0.45310  Biso   1.000  H
  H281     1.0000 0.70600  0.73060  0.02670  Biso   1.000  H
  H282     1.0000 0.29400  0.73060  0.47330  Biso   1.000  H
  H283     1.0000 0.20600  0.23060  0.02670  Biso   1.000  H
  H284     1.0000 0.79400  0.23060  0.47330  Biso   1.000  H
  H285     1.0000 0.29400  0.26940  0.97330  Biso   1.000  H
  H286     1.0000 0.70600  0.26940  0.52670  Biso   1.000  H
  H287     1.0000 0.79400  0.76940  0.97330  Biso   1.000  H
  H288     1.0000 0.20600  0.76940  0.52670  Biso   1.000  H
  O97      1.0000 0.61710  0.73600  0.97860  Biso   1.000  O
  O98      1.0000 0.38290  0.73600  0.52140  Biso   1.000  O
  O99      1.0000 0.11710  0.23600  0.97860  Biso   1.000  O
  O100     1.0000 0.88290  0.23600  0.52140  Biso   1.000  O
  O101     1.0000 0.38290  0.26400  0.02140  Biso   1.000  O
  O102     1.0000 0.61710  0.26400  0.47860  Biso   1.000  O
  O103     1.0000 0.88290  0.76400  0.02140  Biso   1.000  O
  O104     1.0000 0.11710  0.76400  0.47860  Biso   1.000  O
  C289     1.0000 0.63330  0.81150  0.98270  Biso   1.000  C
  C290     1.0000 0.36670  0.81150  0.51730  Biso   1.000  C
  C291     1.0000 0.13330  0.31150  0.98270  Biso   1.000  C
  C292     1.0000 0.86670  0.31150  0.51730  Biso   1.000  C
  C293     1.0000 0.36670  0.18850  0.01730  Biso   1.000  C
  C294     1.0000 0.63330  0.18850  0.48270  Biso   1.000  C
  C295     1.0000 0.86670  0.68850  0.01730  Biso   1.000  C
  C296     1.0000 0.13330  0.68850  0.48270  Biso   1.000  C
