data_image0
_cell_length_a       18.7614
_cell_length_b       25.3542
_cell_length_c       16.1008
_cell_angle_alpha    90
_cell_angle_beta     99.441
_cell_angle_gamma    90

_symmetry_space_group_name_H-M    "P 1"
_symmetry_int_tables_number       1

loop_
  _symmetry_equiv_pos_as_xyz
  'x, y, z'

loop_
  _atom_site_label
  _atom_site_occupancy
  _atom_site_fract_x
  _atom_site_fract_y
  _atom_site_fract_z
  _atom_site_thermal_displace_type
  _atom_site_B_iso_or_equiv
  _atom_site_type_symbol
  O1       1.0000 0.22572  0.10378  0.63891  Biso   1.000  O
  O2       1.0000 0.72572  0.60378  0.63891  Biso   1.000  O
  O3       1.0000 0.77428  0.10378  0.86109  Biso   1.000  O
  O4       1.0000 0.27428  0.60378  0.86109  Biso   1.000  O
  O5       1.0000 0.77428  0.89622  0.36109  Biso   1.000  O
  O6       1.0000 0.27428  0.39622  0.36109  Biso   1.000  O
  O7       1.0000 0.22572  0.89622  0.13891  Biso   1.000  O
  O8       1.0000 0.72572  0.39622  0.13891  Biso   1.000  O
  Cu1      1.0000 0.41366  0.12685  0.80859  Biso   1.000  Cu
  Cu2      1.0000 0.91366  0.62685  0.80859  Biso   1.000  Cu
  Cu3      1.0000 0.58634  0.12685  0.69141  Biso   1.000  Cu
  Cu4      1.0000 0.08634  0.62685  0.69141  Biso   1.000  Cu
  Cu5      1.0000 0.58634  0.87315  0.19141  Biso   1.000  Cu
  Cu6      1.0000 0.08634  0.37315  0.19141  Biso   1.000  Cu
  Cu7      1.0000 0.41366  0.87315  0.30859  Biso   1.000  Cu
  Cu8      1.0000 0.91366  0.37315  0.30859  Biso   1.000  Cu
  Cu9      1.0000 0.08985  0.87113  0.45146  Biso   1.000  Cu
  Cu10     1.0000 0.58985  0.37113  0.45146  Biso   1.000  Cu
  Cu11     1.0000 0.91015  0.87113  0.04854  Biso   1.000  Cu
  Cu12     1.0000 0.41015  0.37113  0.04854  Biso   1.000  Cu
  Cu13     1.0000 0.91015  0.12887  0.54854  Biso   1.000  Cu
  Cu14     1.0000 0.41015  0.62887  0.54854  Biso   1.000  Cu
  Cu15     1.0000 0.08985  0.12887  0.95146  Biso   1.000  Cu
  Cu16     1.0000 0.58985  0.62887  0.95146  Biso   1.000  Cu
  V1       1.0000 0.25748  0.08085  0.89684  Biso   1.000  V
  V2       1.0000 0.75748  0.58085  0.89684  Biso   1.000  V
  V3       1.0000 0.74252  0.08085  0.60316  Biso   1.000  V
  V4       1.0000 0.24252  0.58085  0.60316  Biso   1.000  V
  V5       1.0000 0.74252  0.91915  0.10316  Biso   1.000  V
  V6       1.0000 0.24252  0.41915  0.10316  Biso   1.000  V
  V7       1.0000 0.25748  0.91915  0.39684  Biso   1.000  V
  V8       1.0000 0.75748  0.41915  0.39684  Biso   1.000  V
  V9       1.0000 0.33106  0.87703  0.75293  Biso   1.000  V
  V10      1.0000 0.83106  0.37703  0.75293  Biso   1.000  V
  V11      1.0000 0.66894  0.87703  0.74707  Biso   1.000  V
  V12      1.0000 0.16894  0.37703  0.74707  Biso   1.000  V
  V13      1.0000 0.66894  0.12297  0.24707  Biso   1.000  V
  V14      1.0000 0.16894  0.62297  0.24707  Biso   1.000  V
  V15      1.0000 0.33106  0.12297  0.25293  Biso   1.000  V
  V16      1.0000 0.83106  0.62297  0.25293  Biso   1.000  V
  V17      1.0000 0.24125  0.94447  0.87679  Biso   1.000  V
  V18      1.0000 0.74125  0.44447  0.87679  Biso   1.000  V
  V19      1.0000 0.75875  0.94447  0.62321  Biso   1.000  V
  V20      1.0000 0.25875  0.44447  0.62321  Biso   1.000  V
  V21      1.0000 0.75875  0.05553  0.12321  Biso   1.000  V
  V22      1.0000 0.25875  0.55553  0.12321  Biso   1.000  V
  V23      1.0000 0.24125  0.05553  0.37679  Biso   1.000  V
  V24      1.0000 0.74125  0.55553  0.37679  Biso   1.000  V
  V25      1.0000 0.19756  0.13636  0.53397  Biso   1.000  V
  V26      1.0000 0.69756  0.63636  0.53397  Biso   1.000  V
  V27      1.0000 0.80244  0.13636  0.96603  Biso   1.000  V
  V28      1.0000 0.30244  0.63636  0.96603  Biso   1.000  V
  V29      1.0000 0.80244  0.86364  0.46603  Biso   1.000  V
  V30      1.0000 0.30244  0.36364  0.46603  Biso   1.000  V
  V31      1.0000 0.19756  0.86364  0.03397  Biso   1.000  V
  V32      1.0000 0.69756  0.36364  0.03397  Biso   1.000  V
  P1       1.0000 0.27873  0.06929  0.69918  Biso   1.000  P
  P2       1.0000 0.77873  0.56929  0.69918  Biso   1.000  P
  P3       1.0000 0.72127  0.06929  0.80082  Biso   1.000  P
  P4       1.0000 0.22127  0.56929  0.80082  Biso   1.000  P
  P5       1.0000 0.72127  0.93071  0.30082  Biso   1.000  P
  P6       1.0000 0.22127  0.43071  0.30082  Biso   1.000  P
  P7       1.0000 0.27873  0.93071  0.19918  Biso   1.000  P
  P8       1.0000 0.77873  0.43071  0.19918  Biso   1.000  P
  P9       1.0000 0.22175  0.91289  0.58727  Biso   1.000  P
  P10      1.0000 0.72175  0.41289  0.58727  Biso   1.000  P
  P11      1.0000 0.77825  0.91289  0.91273  Biso   1.000  P
  P12      1.0000 0.27825  0.41289  0.91273  Biso   1.000  P
  P13      1.0000 0.77825  0.08711  0.41273  Biso   1.000  P
  P14      1.0000 0.27825  0.58711  0.41273  Biso   1.000  P
  P15      1.0000 0.22175  0.08711  0.08727  Biso   1.000  P
  P16      1.0000 0.72175  0.58711  0.08727  Biso   1.000  P
  O9       1.0000 0.35351  0.09360  0.71621  Biso   1.000  O
  O10      1.0000 0.85351  0.59360  0.71621  Biso   1.000  O
  O11      1.0000 0.64649  0.09360  0.78379  Biso   1.000  O
  O12      1.0000 0.14649  0.59360  0.78379  Biso   1.000  O
  O13      1.0000 0.64649  0.90640  0.28379  Biso   1.000  O
  O14      1.0000 0.14649  0.40640  0.28379  Biso   1.000  O
  O15      1.0000 0.35351  0.90640  0.21621  Biso   1.000  O
  O16      1.0000 0.85351  0.40640  0.21621  Biso   1.000  O
  O17      1.0000 0.24456  0.05785  0.77711  Biso   1.000  O
  O18      1.0000 0.74456  0.55785  0.77711  Biso   1.000  O
  O19      1.0000 0.75544  0.05785  0.72289  Biso   1.000  O
  O20      1.0000 0.25544  0.55785  0.72289  Biso   1.000  O
  O21      1.0000 0.75544  0.94215  0.22289  Biso   1.000  O
  O22      1.0000 0.25544  0.44215  0.22289  Biso   1.000  O
  O23      1.0000 0.24456  0.94215  0.27711  Biso   1.000  O
  O24      1.0000 0.74456  0.44215  0.27711  Biso   1.000  O
  O25      1.0000 0.33305  0.11220  0.89112  Biso   1.000  O
  O26      1.0000 0.83305  0.61220  0.89112  Biso   1.000  O
  O27      1.0000 0.66695  0.11220  0.60888  Biso   1.000  O
  O28      1.0000 0.16695  0.61220  0.60888  Biso   1.000  O
  O29      1.0000 0.66695  0.88780  0.10888  Biso   1.000  O
  O30      1.0000 0.16695  0.38780  0.10888  Biso   1.000  O
  O31      1.0000 0.33305  0.88780  0.39112  Biso   1.000  O
  O32      1.0000 0.83305  0.38780  0.39112  Biso   1.000  O
  O33      1.0000 0.24908  0.00706  0.91837  Biso   1.000  O
  O34      1.0000 0.74908  0.50706  0.91837  Biso   1.000  O
  O35      1.0000 0.75092  0.00706  0.58163  Biso   1.000  O
  O36      1.0000 0.25092  0.50706  0.58163  Biso   1.000  O
  O37      1.0000 0.75092  0.99294  0.08163  Biso   1.000  O
  O38      1.0000 0.25092  0.49294  0.08163  Biso   1.000  O
  O39      1.0000 0.24908  0.99294  0.41837  Biso   1.000  O
  O40      1.0000 0.74908  0.49294  0.41837  Biso   1.000  O
  O41      1.0000 0.27183  0.91513  0.52177  Biso   1.000  O
  O42      1.0000 0.77183  0.41513  0.52177  Biso   1.000  O
  O43      1.0000 0.72817  0.91513  0.97823  Biso   1.000  O
  O44      1.0000 0.22817  0.41513  0.97823  Biso   1.000  O
  O45      1.0000 0.72817  0.08487  0.47823  Biso   1.000  O
  O46      1.0000 0.22817  0.58487  0.47823  Biso   1.000  O
  O47      1.0000 0.27183  0.08487  0.02177  Biso   1.000  O
  O48      1.0000 0.77183  0.58487  0.02177  Biso   1.000  O
  O49      1.0000 0.18880  0.87794  0.38553  Biso   1.000  O
  O50      1.0000 0.68880  0.37794  0.38553  Biso   1.000  O
  O51      1.0000 0.81120  0.87794  0.11447  Biso   1.000  O
  O52      1.0000 0.31120  0.37794  0.11447  Biso   1.000  O
  O53      1.0000 0.81120  0.12206  0.61447  Biso   1.000  O
  O54      1.0000 0.31120  0.62206  0.61447  Biso   1.000  O
  O55      1.0000 0.18880  0.12206  0.88553  Biso   1.000  O
  O56      1.0000 0.68880  0.62206  0.88553  Biso   1.000  O
  O57      1.0000 0.14562  0.89428  0.55453  Biso   1.000  O
  O58      1.0000 0.64562  0.39428  0.55453  Biso   1.000  O
  O59      1.0000 0.85438  0.89428  0.94547  Biso   1.000  O
  O60      1.0000 0.35438  0.39428  0.94547  Biso   1.000  O
  O61      1.0000 0.85438  0.10572  0.44547  Biso   1.000  O
  O62      1.0000 0.35438  0.60572  0.44547  Biso   1.000  O
  O63      1.0000 0.14562  0.10572  0.05453  Biso   1.000  O
  O64      1.0000 0.64562  0.60572  0.05453  Biso   1.000  O
  O65      1.0000 0.25590  0.87657  0.66053  Biso   1.000  O
  O66      1.0000 0.75590  0.37657  0.66053  Biso   1.000  O
  O67      1.0000 0.74410  0.87657  0.83947  Biso   1.000  O
  O68      1.0000 0.24410  0.37657  0.83947  Biso   1.000  O
  O69      1.0000 0.74410  0.12343  0.33947  Biso   1.000  O
  O70      1.0000 0.24410  0.62343  0.33947  Biso   1.000  O
  O71      1.0000 0.25590  0.12343  0.16053  Biso   1.000  O
  O72      1.0000 0.75590  0.62343  0.16053  Biso   1.000  O
  O73      1.0000 0.40824  0.88689  0.72291  Biso   1.000  O
  O74      1.0000 0.90824  0.38689  0.72291  Biso   1.000  O
  O75      1.0000 0.59176  0.88689  0.77709  Biso   1.000  O
  O76      1.0000 0.09176  0.38689  0.77709  Biso   1.000  O
  O77      1.0000 0.59176  0.11311  0.27709  Biso   1.000  O
  O78      1.0000 0.09176  0.61311  0.27709  Biso   1.000  O
  O79      1.0000 0.40824  0.11311  0.22291  Biso   1.000  O
  O80      1.0000 0.90824  0.61311  0.22291  Biso   1.000  O
  O81      1.0000 0.33207  0.82068  0.80080  Biso   1.000  O
  O82      1.0000 0.83207  0.32068  0.80080  Biso   1.000  O
  O83      1.0000 0.66793  0.82068  0.69920  Biso   1.000  O
  O84      1.0000 0.16793  0.32068  0.69920  Biso   1.000  O
  O85      1.0000 0.66793  0.17932  0.19920  Biso   1.000  O
  O86      1.0000 0.16793  0.67932  0.19920  Biso   1.000  O
  O87      1.0000 0.33207  0.17932  0.30080  Biso   1.000  O
  O88      1.0000 0.83207  0.67932  0.30080  Biso   1.000  O
  O89      1.0000 0.31484  0.93046  0.82435  Biso   1.000  O
  O90      1.0000 0.81484  0.43046  0.82435  Biso   1.000  O
  O91      1.0000 0.68516  0.93046  0.67565  Biso   1.000  O
  O92      1.0000 0.18516  0.43046  0.67565  Biso   1.000  O
  O93      1.0000 0.68516  0.06954  0.17565  Biso   1.000  O
  O94      1.0000 0.18516  0.56954  0.17565  Biso   1.000  O
  O95      1.0000 0.31484  0.06954  0.32435  Biso   1.000  O
  O96      1.0000 0.81484  0.56954  0.32435  Biso   1.000  O
  O97      1.0000 0.16607  0.93782  0.81231  Biso   1.000  O
  O98      1.0000 0.66607  0.43782  0.81231  Biso   1.000  O
  O99      1.0000 0.83393  0.93782  0.68769  Biso   1.000  O
  O100     1.0000 0.33393  0.43782  0.68769  Biso   1.000  O
  O101     1.0000 0.83393  0.06218  0.18769  Biso   1.000  O
  O102     1.0000 0.33393  0.56218  0.18769  Biso   1.000  O
  O103     1.0000 0.16607  0.06218  0.31231  Biso   1.000  O
  O104     1.0000 0.66607  0.56218  0.31231  Biso   1.000  O
  O105     1.0000 0.24403  0.10115  0.46018  Biso   1.000  O
  O106     1.0000 0.74403  0.60115  0.46018  Biso   1.000  O
  O107     1.0000 0.75597  0.10115  0.03982  Biso   1.000  O
  O108     1.0000 0.25597  0.60115  0.03982  Biso   1.000  O
  O109     1.0000 0.75597  0.89885  0.53982  Biso   1.000  O
  O110     1.0000 0.25597  0.39885  0.53982  Biso   1.000  O
  O111     1.0000 0.24403  0.89885  0.96018  Biso   1.000  O
  O112     1.0000 0.74403  0.39885  0.96018  Biso   1.000  O
  O113     1.0000 0.22360  0.19738  0.54118  Biso   1.000  O
  O114     1.0000 0.72360  0.69738  0.54118  Biso   1.000  O
  O115     1.0000 0.77640  0.19738  0.95882  Biso   1.000  O
  O116     1.0000 0.27640  0.69738  0.95882  Biso   1.000  O
  O117     1.0000 0.77640  0.80262  0.45882  Biso   1.000  O
  O118     1.0000 0.27640  0.30262  0.45882  Biso   1.000  O
  O119     1.0000 0.22360  0.80262  0.04118  Biso   1.000  O
  O120     1.0000 0.72360  0.30262  0.04118  Biso   1.000  O
  O121     1.0000 0.11010  0.13484  0.50581  Biso   1.000  O
  O122     1.0000 0.61010  0.63484  0.50581  Biso   1.000  O
  O123     1.0000 0.88990  0.13484  0.99419  Biso   1.000  O
  O124     1.0000 0.38990  0.63484  0.99419  Biso   1.000  O
  O125     1.0000 0.88990  0.86516  0.49419  Biso   1.000  O
  O126     1.0000 0.38990  0.36516  0.49419  Biso   1.000  O
  O127     1.0000 0.11010  0.86516  0.00581  Biso   1.000  O
  O128     1.0000 0.61010  0.36516  0.00581  Biso   1.000  O
  N1       1.0000 0.39116  0.20284  0.77420  Biso   1.000  N
  N2       1.0000 0.89116  0.70284  0.77420  Biso   1.000  N
  N3       1.0000 0.60884  0.20284  0.72580  Biso   1.000  N
  N4       1.0000 0.10884  0.70284  0.72580  Biso   1.000  N
  N5       1.0000 0.60884  0.79716  0.22580  Biso   1.000  N
  N6       1.0000 0.10884  0.29716  0.22580  Biso   1.000  N
  N7       1.0000 0.39116  0.79716  0.27420  Biso   1.000  N
  N8       1.0000 0.89116  0.29716  0.27420  Biso   1.000  N
  N9       1.0000 0.49118  0.16252  0.88192  Biso   1.000  N
  N10      1.0000 0.99118  0.66252  0.88192  Biso   1.000  N
  N11      1.0000 0.50882  0.16252  0.61808  Biso   1.000  N
  N12      1.0000 0.00882  0.66252  0.61808  Biso   1.000  N
  N13      1.0000 0.50882  0.83748  0.11808  Biso   1.000  N
  N14      1.0000 0.00882  0.33748  0.11808  Biso   1.000  N
  N15      1.0000 0.49118  0.83748  0.38192  Biso   1.000  N
  N16      1.0000 0.99118  0.33748  0.38192  Biso   1.000  N
  N17      1.0000 0.47341  0.06355  0.85573  Biso   1.000  N
  N18      1.0000 0.97341  0.56355  0.85573  Biso   1.000  N
  N19      1.0000 0.52659  0.06355  0.64427  Biso   1.000  N
  N20      1.0000 0.02659  0.56355  0.64427  Biso   1.000  N
  N21      1.0000 0.52659  0.93645  0.14427  Biso   1.000  N
  N22      1.0000 0.02659  0.43645  0.14427  Biso   1.000  N
  N23      1.0000 0.47341  0.93645  0.35573  Biso   1.000  N
  N24      1.0000 0.97341  0.43645  0.35573  Biso   1.000  N
  N25      1.0000 0.10463  0.79252  0.47045  Biso   1.000  N
  N26      1.0000 0.60463  0.29252  0.47045  Biso   1.000  N
  N27      1.0000 0.89537  0.79252  0.02955  Biso   1.000  N
  N28      1.0000 0.39537  0.29252  0.02955  Biso   1.000  N
  N29      1.0000 0.89537  0.20748  0.52955  Biso   1.000  N
  N30      1.0000 0.39537  0.70748  0.52955  Biso   1.000  N
  N31      1.0000 0.10463  0.20748  0.97045  Biso   1.000  N
  N32      1.0000 0.60463  0.70748  0.97045  Biso   1.000  N
  N33      1.0000 0.00801  0.84442  0.37438  Biso   1.000  N
  N34      1.0000 0.50801  0.34442  0.37438  Biso   1.000  N
  N35      1.0000 0.99199  0.84442  0.12562  Biso   1.000  N
  N36      1.0000 0.49199  0.34442  0.12562  Biso   1.000  N
  N37      1.0000 0.99199  0.15558  0.62562  Biso   1.000  N
  N38      1.0000 0.49199  0.65558  0.62562  Biso   1.000  N
  N39      1.0000 0.00801  0.15558  0.87438  Biso   1.000  N
  N40      1.0000 0.50801  0.65558  0.87438  Biso   1.000  N
  N41      1.0000 0.04215  0.94040  0.40860  Biso   1.000  N
  N42      1.0000 0.54215  0.44040  0.40860  Biso   1.000  N
  N43      1.0000 0.95785  0.94040  0.09140  Biso   1.000  N
  N44      1.0000 0.45785  0.44040  0.09140  Biso   1.000  N
  N45      1.0000 0.95785  0.05960  0.59140  Biso   1.000  N
  N46      1.0000 0.45785  0.55960  0.59140  Biso   1.000  N
  N47      1.0000 0.04215  0.05960  0.90860  Biso   1.000  N
  N48      1.0000 0.54215  0.55960  0.90860  Biso   1.000  N
  C1       1.0000 0.33729  0.21941  0.71476  Biso   1.000  C
  C2       1.0000 0.83729  0.71941  0.71476  Biso   1.000  C
  C3       1.0000 0.66271  0.21941  0.78524  Biso   1.000  C
  C4       1.0000 0.16271  0.71941  0.78524  Biso   1.000  C
  C5       1.0000 0.66271  0.78059  0.28524  Biso   1.000  C
  C6       1.0000 0.16271  0.28059  0.28524  Biso   1.000  C
  C7       1.0000 0.33729  0.78059  0.21476  Biso   1.000  C
  C8       1.0000 0.83729  0.28059  0.21476  Biso   1.000  C
  H1       1.0000 0.30680  0.19400  0.68330  Biso   1.000  H
  H2       1.0000 0.80680  0.69400  0.68330  Biso   1.000  H
  H3       1.0000 0.69320  0.19400  0.81670  Biso   1.000  H
  H4       1.0000 0.19320  0.69400  0.81670  Biso   1.000  H
  H5       1.0000 0.69320  0.80600  0.31670  Biso   1.000  H
  H6       1.0000 0.19320  0.30600  0.31670  Biso   1.000  H
  H7       1.0000 0.30680  0.80600  0.18330  Biso   1.000  H
  H8       1.0000 0.80680  0.30600  0.18330  Biso   1.000  H
  C9       1.0000 0.32463  0.27276  0.69765  Biso   1.000  C
  C10      1.0000 0.82463  0.77276  0.69765  Biso   1.000  C
  C11      1.0000 0.67537  0.27276  0.80235  Biso   1.000  C
  C12      1.0000 0.17537  0.77276  0.80235  Biso   1.000  C
  C13      1.0000 0.67537  0.72724  0.30235  Biso   1.000  C
  C14      1.0000 0.17537  0.22724  0.30235  Biso   1.000  C
  C15      1.0000 0.32463  0.72724  0.19765  Biso   1.000  C
  C16      1.0000 0.82463  0.22724  0.19765  Biso   1.000  C
  H9       1.0000 0.28670  0.28370  0.65450  Biso   1.000  H
  H10      1.0000 0.78670  0.78370  0.65450  Biso   1.000  H
  H11      1.0000 0.71330  0.28370  0.84550  Biso   1.000  H
  H12      1.0000 0.21330  0.78370  0.84550  Biso   1.000  H
  H13      1.0000 0.71330  0.71630  0.34550  Biso   1.000  H
  H14      1.0000 0.21330  0.21630  0.34550  Biso   1.000  H
  H15      1.0000 0.28670  0.71630  0.15450  Biso   1.000  H
  H16      1.0000 0.78670  0.21630  0.15450  Biso   1.000  H
  C17      1.0000 0.36843  0.30965  0.74488  Biso   1.000  C
  C18      1.0000 0.86843  0.80965  0.74488  Biso   1.000  C
  C19      1.0000 0.63157  0.30965  0.75512  Biso   1.000  C
  C20      1.0000 0.13157  0.80965  0.75512  Biso   1.000  C
  C21      1.0000 0.63157  0.69035  0.25512  Biso   1.000  C
  C22      1.0000 0.13157  0.19035  0.25512  Biso   1.000  C
  C23      1.0000 0.36843  0.69035  0.24488  Biso   1.000  C
  C24      1.0000 0.86843  0.19035  0.24488  Biso   1.000  C
  H17      1.0000 0.36020  0.34630  0.73510  Biso   1.000  H
  H18      1.0000 0.86020  0.84630  0.73510  Biso   1.000  H
  H19      1.0000 0.63980  0.34630  0.76490  Biso   1.000  H
  H20      1.0000 0.13980  0.84630  0.76490  Biso   1.000  H
  H21      1.0000 0.63980  0.65370  0.26490  Biso   1.000  H
  H22      1.0000 0.13980  0.15370  0.26490  Biso   1.000  H
  H23      1.0000 0.36020  0.65370  0.23510  Biso   1.000  H
  H24      1.0000 0.86020  0.15370  0.23510  Biso   1.000  H
  C25      1.0000 0.42460  0.29265  0.80674  Biso   1.000  C
  C26      1.0000 0.92460  0.79265  0.80674  Biso   1.000  C
  C27      1.0000 0.57540  0.29265  0.69326  Biso   1.000  C
  C28      1.0000 0.07540  0.79265  0.69326  Biso   1.000  C
  C29      1.0000 0.57540  0.70735  0.19326  Biso   1.000  C
  C30      1.0000 0.07540  0.20735  0.19326  Biso   1.000  C
  C31      1.0000 0.42460  0.70735  0.30674  Biso   1.000  C
  C32      1.0000 0.92460  0.20735  0.30674  Biso   1.000  C
  H25      1.0000 0.45530  0.31740  0.83930  Biso   1.000  H
  H26      1.0000 0.95530  0.81740  0.83930  Biso   1.000  H
  H27      1.0000 0.54470  0.31740  0.66070  Biso   1.000  H
  H28      1.0000 0.04470  0.81740  0.66070  Biso   1.000  H
  H29      1.0000 0.54470  0.68260  0.16070  Biso   1.000  H
  H30      1.0000 0.04470  0.18260  0.16070  Biso   1.000  H
  H31      1.0000 0.45530  0.68260  0.33930  Biso   1.000  H
  H32      1.0000 0.95530  0.18260  0.33930  Biso   1.000  H
  C33      1.0000 0.43490  0.23886  0.81994  Biso   1.000  C
  C34      1.0000 0.93490  0.73886  0.81994  Biso   1.000  C
  C35      1.0000 0.56510  0.23886  0.68006  Biso   1.000  C
  C36      1.0000 0.06510  0.73886  0.68006  Biso   1.000  C
  C37      1.0000 0.56510  0.76114  0.18006  Biso   1.000  C
  C38      1.0000 0.06510  0.26114  0.18006  Biso   1.000  C
  C39      1.0000 0.43490  0.76114  0.31994  Biso   1.000  C
  C40      1.0000 0.93490  0.26114  0.31994  Biso   1.000  C
  C41      1.0000 0.49311  0.21537  0.88179  Biso   1.000  C
  C42      1.0000 0.99311  0.71537  0.88179  Biso   1.000  C
  C43      1.0000 0.50689  0.21537  0.61821  Biso   1.000  C
  C44      1.0000 0.00689  0.71537  0.61821  Biso   1.000  C
  C45      1.0000 0.50689  0.78463  0.11821  Biso   1.000  C
  C46      1.0000 0.00689  0.28463  0.11821  Biso   1.000  C
  C47      1.0000 0.49311  0.78463  0.38179  Biso   1.000  C
  C48      1.0000 0.99311  0.28463  0.38179  Biso   1.000  C
  C49      1.0000 0.54771  0.24204  0.93503  Biso   1.000  C
  C50      1.0000 0.04771  0.74204  0.93503  Biso   1.000  C
  C51      1.0000 0.45229  0.24204  0.56497  Biso   1.000  C
  C52      1.0000 0.95229  0.74204  0.56497  Biso   1.000  C
  C53      1.0000 0.45229  0.75796  0.06497  Biso   1.000  C
  C54      1.0000 0.95229  0.25796  0.06497  Biso   1.000  C
  C55      1.0000 0.54771  0.75796  0.43503  Biso   1.000  C
  C56      1.0000 0.04771  0.25796  0.43503  Biso   1.000  C
  H33      1.0000 0.54970  0.27950  0.93550  Biso   1.000  H
  H34      1.0000 0.04970  0.77950  0.93550  Biso   1.000  H
  H35      1.0000 0.45030  0.27950  0.56450  Biso   1.000  H
  H36      1.0000 0.95030  0.77950  0.56450  Biso   1.000  H
  H37      1.0000 0.45030  0.72050  0.06450  Biso   1.000  H
  H38      1.0000 0.95030  0.22050  0.06450  Biso   1.000  H
  H39      1.0000 0.54970  0.72050  0.43550  Biso   1.000  H
  H40      1.0000 0.04970  0.22050  0.43550  Biso   1.000  H
  C57      1.0000 0.59909  0.21235  0.98739  Biso   1.000  C
  C58      1.0000 0.09909  0.71235  0.98739  Biso   1.000  C
  C59      1.0000 0.40091  0.21235  0.51261  Biso   1.000  C
  C60      1.0000 0.90091  0.71235  0.51261  Biso   1.000  C
  C61      1.0000 0.40091  0.78765  0.01261  Biso   1.000  C
  C62      1.0000 0.90091  0.28765  0.01261  Biso   1.000  C
  C63      1.0000 0.59909  0.78765  0.48739  Biso   1.000  C
  C64      1.0000 0.09909  0.28765  0.48739  Biso   1.000  C
  H41      1.0000 0.63650  0.22970  0.02430  Biso   1.000  H
  H42      1.0000 0.13650  0.72970  0.02430  Biso   1.000  H
  H43      1.0000 0.36350  0.22970  0.47570  Biso   1.000  H
  H44      1.0000 0.86350  0.72970  0.47570  Biso   1.000  H
  H45      1.0000 0.36350  0.77030  0.97570  Biso   1.000  H
  H46      1.0000 0.86350  0.27030  0.97570  Biso   1.000  H
  H47      1.0000 0.63650  0.77030  0.52430  Biso   1.000  H
  H48      1.0000 0.13650  0.27030  0.52430  Biso   1.000  H
  C65      1.0000 0.59622  0.15744  0.98627  Biso   1.000  C
  C66      1.0000 0.09622  0.65744  0.98627  Biso   1.000  C
  C67      1.0000 0.40378  0.15744  0.51373  Biso   1.000  C
  C68      1.0000 0.90378  0.65744  0.51373  Biso   1.000  C
  C69      1.0000 0.40378  0.84256  0.01373  Biso   1.000  C
  C70      1.0000 0.90378  0.34256  0.01373  Biso   1.000  C
  C71      1.0000 0.59622  0.84256  0.48627  Biso   1.000  C
  C72      1.0000 0.09622  0.34256  0.48627  Biso   1.000  C
  H49      1.0000 0.63110  0.13710  0.02210  Biso   1.000  H
  H50      1.0000 0.13110  0.63710  0.02210  Biso   1.000  H
  H51      1.0000 0.36890  0.13710  0.47790  Biso   1.000  H
  H52      1.0000 0.86890  0.63710  0.47790  Biso   1.000  H
  H53      1.0000 0.36890  0.86290  0.97790  Biso   1.000  H
  H54      1.0000 0.86890  0.36290  0.97790  Biso   1.000  H
  H55      1.0000 0.63110  0.86290  0.52210  Biso   1.000  H
  H56      1.0000 0.13110  0.36290  0.52210  Biso   1.000  H
  C73      1.0000 0.54088  0.13324  0.93125  Biso   1.000  C
  C74      1.0000 0.04088  0.63324  0.93125  Biso   1.000  C
  C75      1.0000 0.45912  0.13324  0.56875  Biso   1.000  C
  C76      1.0000 0.95912  0.63324  0.56875  Biso   1.000  C
  C77      1.0000 0.45912  0.86676  0.06875  Biso   1.000  C
  C78      1.0000 0.95912  0.36676  0.06875  Biso   1.000  C
  C79      1.0000 0.54088  0.86676  0.43125  Biso   1.000  C
  C80      1.0000 0.04088  0.36676  0.43125  Biso   1.000  C
  C81      1.0000 0.53024  0.07586  0.91653  Biso   1.000  C
  C82      1.0000 0.03024  0.57586  0.91653  Biso   1.000  C
  C83      1.0000 0.46976  0.07586  0.58347  Biso   1.000  C
  C84      1.0000 0.96976  0.57586  0.58347  Biso   1.000  C
  C85      1.0000 0.46976  0.92414  0.08347  Biso   1.000  C
  C86      1.0000 0.96976  0.42414  0.08347  Biso   1.000  C
  C87      1.0000 0.53024  0.92414  0.41653  Biso   1.000  C
  C88      1.0000 0.03024  0.42414  0.41653  Biso   1.000  C
  C89      1.0000 0.57448  0.03709  0.95829  Biso   1.000  C
  C90      1.0000 0.07448  0.53709  0.95829  Biso   1.000  C
  C91      1.0000 0.42552  0.03709  0.54171  Biso   1.000  C
  C92      1.0000 0.92552  0.53709  0.54171  Biso   1.000  C
  C93      1.0000 0.42552  0.96291  0.04171  Biso   1.000  C
  C94      1.0000 0.92552  0.46291  0.04171  Biso   1.000  C
  C95      1.0000 0.57448  0.96291  0.45829  Biso   1.000  C
  C96      1.0000 0.07448  0.46291  0.45829  Biso   1.000  C
  H57      1.0000 0.61260  0.04620  0.00240  Biso   1.000  H
  H58      1.0000 0.11260  0.54620  0.00240  Biso   1.000  H
  H59      1.0000 0.38740  0.04620  0.49760  Biso   1.000  H
  H60      1.0000 0.88740  0.54620  0.49760  Biso   1.000  H
  H61      1.0000 0.38740  0.95380  0.99760  Biso   1.000  H
  H62      1.0000 0.88740  0.45380  0.99760  Biso   1.000  H
  H63      1.0000 0.61260  0.95380  0.50240  Biso   1.000  H
  H64      1.0000 0.11260  0.45380  0.50240  Biso   1.000  H
  C97      1.0000 0.56224  0.98472  0.93465  Biso   1.000  C
  C98      1.0000 0.06224  0.48472  0.93465  Biso   1.000  C
  C99      1.0000 0.43776  0.98472  0.56535  Biso   1.000  C
  C100     1.0000 0.93776  0.48472  0.56535  Biso   1.000  C
  C101     1.0000 0.43776  0.01528  0.06535  Biso   1.000  C
  C102     1.0000 0.93776  0.51528  0.06535  Biso   1.000  C
  C103     1.0000 0.56224  0.01528  0.43465  Biso   1.000  C
  C104     1.0000 0.06224  0.51528  0.43465  Biso   1.000  C
  H65      1.0000 0.59300  0.95770  0.96130  Biso   1.000  H
  H66      1.0000 0.09300  0.45770  0.96130  Biso   1.000  H
  H67      1.0000 0.40700  0.95770  0.53870  Biso   1.000  H
  H68      1.0000 0.90700  0.45770  0.53870  Biso   1.000  H
  H69      1.0000 0.40700  0.04230  0.03870  Biso   1.000  H
  H70      1.0000 0.90700  0.54230  0.03870  Biso   1.000  H
  H71      1.0000 0.59300  0.04230  0.46130  Biso   1.000  H
  H72      1.0000 0.09300  0.54230  0.46130  Biso   1.000  H
  C105     1.0000 0.50473  0.97212  0.87180  Biso   1.000  C
  C106     1.0000 0.00473  0.47212  0.87180  Biso   1.000  C
  C107     1.0000 0.49527  0.97212  0.62820  Biso   1.000  C
  C108     1.0000 0.99527  0.47212  0.62820  Biso   1.000  C
  C109     1.0000 0.49527  0.02788  0.12820  Biso   1.000  C
  C110     1.0000 0.99527  0.52788  0.12820  Biso   1.000  C
  C111     1.0000 0.50473  0.02788  0.37180  Biso   1.000  C
  C112     1.0000 0.00473  0.52788  0.37180  Biso   1.000  C
  H73      1.0000 0.49570  0.93660  0.85430  Biso   1.000  H
  H74      1.0000 0.99570  0.43660  0.85430  Biso   1.000  H
  H75      1.0000 0.50430  0.93660  0.64570  Biso   1.000  H
  H76      1.0000 0.00430  0.43660  0.64570  Biso   1.000  H
  H77      1.0000 0.50430  0.06340  0.14570  Biso   1.000  H
  H78      1.0000 0.00430  0.56340  0.14570  Biso   1.000  H
  H79      1.0000 0.49570  0.06340  0.35430  Biso   1.000  H
  H80      1.0000 0.99570  0.56340  0.35430  Biso   1.000  H
  C113     1.0000 0.46068  0.01288  0.83519  Biso   1.000  C
  C114     1.0000 0.96068  0.51288  0.83519  Biso   1.000  C
  C115     1.0000 0.53932  0.01288  0.66481  Biso   1.000  C
  C116     1.0000 0.03932  0.51288  0.66481  Biso   1.000  C
  C117     1.0000 0.53932  0.98712  0.16481  Biso   1.000  C
  C118     1.0000 0.03932  0.48712  0.16481  Biso   1.000  C
  C119     1.0000 0.46068  0.98712  0.33519  Biso   1.000  C
  C120     1.0000 0.96068  0.48712  0.33519  Biso   1.000  C
  H81      1.0000 0.42000  0.00440  0.79400  Biso   1.000  H
  H82      1.0000 0.92000  0.50440  0.79400  Biso   1.000  H
  H83      1.0000 0.58000  0.00440  0.70600  Biso   1.000  H
  H84      1.0000 0.08000  0.50440  0.70600  Biso   1.000  H
  H85      1.0000 0.58000  0.99560  0.20600  Biso   1.000  H
  H86      1.0000 0.08000  0.49560  0.20600  Biso   1.000  H
  H87      1.0000 0.42000  0.99560  0.29400  Biso   1.000  H
  H88      1.0000 0.92000  0.49560  0.29400  Biso   1.000  H
  C121     1.0000 0.15968  0.76938  0.52076  Biso   1.000  C
  C122     1.0000 0.65968  0.26938  0.52076  Biso   1.000  C
  C123     1.0000 0.84032  0.76938  0.97924  Biso   1.000  C
  C124     1.0000 0.34032  0.26938  0.97924  Biso   1.000  C
  C125     1.0000 0.84032  0.23062  0.47924  Biso   1.000  C
  C126     1.0000 0.34032  0.73062  0.47924  Biso   1.000  C
  C127     1.0000 0.15968  0.23062  0.02076  Biso   1.000  C
  C128     1.0000 0.65968  0.73062  0.02076  Biso   1.000  C
  H89      1.0000 0.19170  0.79050  0.55880  Biso   1.000  H
  H90      1.0000 0.69170  0.29050  0.55880  Biso   1.000  H
  H91      1.0000 0.80830  0.79050  0.94120  Biso   1.000  H
  H92      1.0000 0.30830  0.29050  0.94120  Biso   1.000  H
  H93      1.0000 0.80830  0.20950  0.44120  Biso   1.000  H
  H94      1.0000 0.30830  0.70950  0.44120  Biso   1.000  H
  H95      1.0000 0.19170  0.20950  0.05880  Biso   1.000  H
  H96      1.0000 0.69170  0.70950  0.05880  Biso   1.000  H
  C129     1.0000 0.17127  0.71531  0.51883  Biso   1.000  C
  C130     1.0000 0.67127  0.21531  0.51883  Biso   1.000  C
  C131     1.0000 0.82873  0.71531  0.98117  Biso   1.000  C
  C132     1.0000 0.32873  0.21531  0.98117  Biso   1.000  C
  C133     1.0000 0.82873  0.28469  0.48117  Biso   1.000  C
  C134     1.0000 0.32873  0.78469  0.48117  Biso   1.000  C
  C135     1.0000 0.17127  0.28469  0.01883  Biso   1.000  C
  C136     1.0000 0.67127  0.78469  0.01883  Biso   1.000  C
  H97      1.0000 0.21030  0.69960  0.55570  Biso   1.000  H
  H98      1.0000 0.71030  0.19960  0.55570  Biso   1.000  H
  H99      1.0000 0.78970  0.69960  0.94430  Biso   1.000  H
  H100     1.0000 0.28970  0.19960  0.94430  Biso   1.000  H
  H101     1.0000 0.78970  0.30040  0.44430  Biso   1.000  H
  H102     1.0000 0.28970  0.80040  0.44430  Biso   1.000  H
  H103     1.0000 0.21030  0.30040  0.05570  Biso   1.000  H
  H104     1.0000 0.71030  0.80040  0.05570  Biso   1.000  H
  C137     1.0000 0.12517  0.68442  0.46239  Biso   1.000  C
  C138     1.0000 0.62517  0.18442  0.46239  Biso   1.000  C
  C139     1.0000 0.87483  0.68442  0.03761  Biso   1.000  C
  C140     1.0000 0.37483  0.18442  0.03761  Biso   1.000  C
  C141     1.0000 0.87483  0.31558  0.53761  Biso   1.000  C
  C142     1.0000 0.37483  0.81558  0.53761  Biso   1.000  C
  C143     1.0000 0.12517  0.31558  0.96239  Biso   1.000  C
  C144     1.0000 0.62517  0.81558  0.96239  Biso   1.000  C
  H105     1.0000 0.13300  0.64750  0.45920  Biso   1.000  H
  H106     1.0000 0.63300  0.14750  0.45920  Biso   1.000  H
  H107     1.0000 0.86700  0.64750  0.04080  Biso   1.000  H
  H108     1.0000 0.36700  0.14750  0.04080  Biso   1.000  H
  H109     1.0000 0.86700  0.35250  0.54080  Biso   1.000  H
  H110     1.0000 0.36700  0.85250  0.54080  Biso   1.000  H
  H111     1.0000 0.13300  0.35250  0.95920  Biso   1.000  H
  H112     1.0000 0.63300  0.85250  0.95920  Biso   1.000  H
  C145     1.0000 0.06728  0.70809  0.41047  Biso   1.000  C
  C146     1.0000 0.56728  0.20809  0.41047  Biso   1.000  C
  C147     1.0000 0.93272  0.70809  0.08953  Biso   1.000  C
  C148     1.0000 0.43272  0.20809  0.08953  Biso   1.000  C
  C149     1.0000 0.93272  0.29191  0.58953  Biso   1.000  C
  C150     1.0000 0.43272  0.79191  0.58953  Biso   1.000  C
  C151     1.0000 0.06728  0.29191  0.91047  Biso   1.000  C
  C152     1.0000 0.56728  0.79191  0.91047  Biso   1.000  C
  H113     1.0000 0.03500  0.68770  0.37150  Biso   1.000  H
  H114     1.0000 0.53500  0.18770  0.37150  Biso   1.000  H
  H115     1.0000 0.96500  0.68770  0.12850  Biso   1.000  H
  H116     1.0000 0.46500  0.18770  0.12850  Biso   1.000  H
  H117     1.0000 0.96500  0.31230  0.62850  Biso   1.000  H
  H118     1.0000 0.46500  0.81230  0.62850  Biso   1.000  H
  H119     1.0000 0.03500  0.31230  0.87150  Biso   1.000  H
  H120     1.0000 0.53500  0.81230  0.87150  Biso   1.000  H
  C153     1.0000 0.05801  0.76223  0.41711  Biso   1.000  C
  C154     1.0000 0.55801  0.26223  0.41711  Biso   1.000  C
  C155     1.0000 0.94199  0.76223  0.08289  Biso   1.000  C
  C156     1.0000 0.44199  0.26223  0.08289  Biso   1.000  C
  C157     1.0000 0.94199  0.23777  0.58289  Biso   1.000  C
  C158     1.0000 0.44199  0.73777  0.58289  Biso   1.000  C
  C159     1.0000 0.05801  0.23777  0.91711  Biso   1.000  C
  C160     1.0000 0.55801  0.73777  0.91711  Biso   1.000  C
  C161     1.0000 0.99837  0.79210  0.36755  Biso   1.000  C
  C162     1.0000 0.49837  0.29210  0.36755  Biso   1.000  C
  C163     1.0000 0.00163  0.79210  0.13245  Biso   1.000  C
  C164     1.0000 0.50163  0.29210  0.13245  Biso   1.000  C
  C165     1.0000 0.00163  0.20790  0.63245  Biso   1.000  C
  C166     1.0000 0.50163  0.70790  0.63245  Biso   1.000  C
  C167     1.0000 0.99837  0.20790  0.86755  Biso   1.000  C
  C168     1.0000 0.49837  0.70790  0.86755  Biso   1.000  C
  C169     1.0000 0.93668  0.77120  0.31920  Biso   1.000  C
  C170     1.0000 0.43668  0.27120  0.31920  Biso   1.000  C
  C171     1.0000 0.06332  0.77120  0.18080  Biso   1.000  C
  C172     1.0000 0.56332  0.27120  0.18080  Biso   1.000  C
  C173     1.0000 0.06332  0.22880  0.68080  Biso   1.000  C
  C174     1.0000 0.56332  0.72880  0.68080  Biso   1.000  C
  C175     1.0000 0.93668  0.22880  0.81920  Biso   1.000  C
  C176     1.0000 0.43668  0.72880  0.81920  Biso   1.000  C
  H121     1.0000 0.92910  0.73420  0.31500  Biso   1.000  H
  H122     1.0000 0.42910  0.23420  0.31500  Biso   1.000  H
  H123     1.0000 0.07090  0.73420  0.18500  Biso   1.000  H
  H124     1.0000 0.57090  0.23420  0.18500  Biso   1.000  H
  H125     1.0000 0.07090  0.26580  0.68500  Biso   1.000  H
  H126     1.0000 0.57090  0.76580  0.68500  Biso   1.000  H
  H127     1.0000 0.92910  0.26580  0.81500  Biso   1.000  H
  H128     1.0000 0.42910  0.76580  0.81500  Biso   1.000  H
  C177     1.0000 0.88622  0.80648  0.27703  Biso   1.000  C
  C178     1.0000 0.38622  0.30648  0.27703  Biso   1.000  C
  C179     1.0000 0.11378  0.80648  0.22297  Biso   1.000  C
  C180     1.0000 0.61378  0.30648  0.22297  Biso   1.000  C
  C181     1.0000 0.11378  0.19352  0.72297  Biso   1.000  C
  C182     1.0000 0.61378  0.69352  0.72297  Biso   1.000  C
  C183     1.0000 0.88622  0.19352  0.77703  Biso   1.000  C
  C184     1.0000 0.38622  0.69352  0.77703  Biso   1.000  C
  H129     1.0000 0.84360  0.79340  0.24330  Biso   1.000  H
  H130     1.0000 0.34360  0.29340  0.24330  Biso   1.000  H
  H131     1.0000 0.15640  0.79340  0.25670  Biso   1.000  H
  H132     1.0000 0.65640  0.29340  0.25670  Biso   1.000  H
  H133     1.0000 0.15640  0.20660  0.75670  Biso   1.000  H
  H134     1.0000 0.65640  0.70660  0.75670  Biso   1.000  H
  H135     1.0000 0.84360  0.20660  0.74330  Biso   1.000  H
  H136     1.0000 0.34360  0.70660  0.74330  Biso   1.000  H
  C185     1.0000 0.89751  0.86059  0.28378  Biso   1.000  C
  C186     1.0000 0.39751  0.36059  0.28378  Biso   1.000  C
  C187     1.0000 0.10249  0.86059  0.21622  Biso   1.000  C
  C188     1.0000 0.60249  0.36059  0.21622  Biso   1.000  C
  C189     1.0000 0.10249  0.13941  0.71622  Biso   1.000  C
  C190     1.0000 0.60249  0.63941  0.71622  Biso   1.000  C
  C191     1.0000 0.89751  0.13941  0.78378  Biso   1.000  C
  C192     1.0000 0.39751  0.63941  0.78378  Biso   1.000  C
  H137     1.0000 0.86380  0.88470  0.25400  Biso   1.000  H
  H138     1.0000 0.36380  0.38470  0.25400  Biso   1.000  H
  H139     1.0000 0.13620  0.88470  0.24600  Biso   1.000  H
  H140     1.0000 0.63620  0.38470  0.24600  Biso   1.000  H
  H141     1.0000 0.13620  0.11530  0.74600  Biso   1.000  H
  H142     1.0000 0.63620  0.61530  0.74600  Biso   1.000  H
  H143     1.0000 0.86380  0.11530  0.75400  Biso   1.000  H
  H144     1.0000 0.36380  0.61530  0.75400  Biso   1.000  H
  C193     1.0000 0.95948  0.87850  0.33536  Biso   1.000  C
  C194     1.0000 0.45948  0.37850  0.33536  Biso   1.000  C
  C195     1.0000 0.04052  0.87850  0.16464  Biso   1.000  C
  C196     1.0000 0.54052  0.37850  0.16464  Biso   1.000  C
  C197     1.0000 0.04052  0.12150  0.66464  Biso   1.000  C
  C198     1.0000 0.54052  0.62150  0.66464  Biso   1.000  C
  C199     1.0000 0.95948  0.12150  0.83536  Biso   1.000  C
  C200     1.0000 0.45948  0.62150  0.83536  Biso   1.000  C
  C201     1.0000 0.97969  0.93399  0.35351  Biso   1.000  C
  C202     1.0000 0.47969  0.43399  0.35351  Biso   1.000  C
  C203     1.0000 0.02031  0.93399  0.14649  Biso   1.000  C
  C204     1.0000 0.52031  0.43399  0.14649  Biso   1.000  C
  C205     1.0000 0.02031  0.06601  0.64649  Biso   1.000  C
  C206     1.0000 0.52031  0.56601  0.64649  Biso   1.000  C
  C207     1.0000 0.97969  0.06601  0.85351  Biso   1.000  C
  C208     1.0000 0.47969  0.56601  0.85351  Biso   1.000  C
  C209     1.0000 0.93996  0.97686  0.31792  Biso   1.000  C
  C210     1.0000 0.43996  0.47686  0.31792  Biso   1.000  C
  C211     1.0000 0.06004  0.97686  0.18208  Biso   1.000  C
  C212     1.0000 0.56004  0.47686  0.18208  Biso   1.000  C
  C213     1.0000 0.06004  0.02314  0.68208  Biso   1.000  C
  C214     1.0000 0.56004  0.52314  0.68208  Biso   1.000  C
  C215     1.0000 0.93996  0.02314  0.81792  Biso   1.000  C
  C216     1.0000 0.43996  0.52314  0.81792  Biso   1.000  C
  H145     1.0000 0.89680  0.97170  0.27880  Biso   1.000  H
  H146     1.0000 0.39680  0.47170  0.27880  Biso   1.000  H
  H147     1.0000 0.10320  0.97170  0.22120  Biso   1.000  H
  H148     1.0000 0.60320  0.47170  0.22120  Biso   1.000  H
  H149     1.0000 0.10320  0.02830  0.72120  Biso   1.000  H
  H150     1.0000 0.60320  0.52830  0.72120  Biso   1.000  H
  H151     1.0000 0.89680  0.02830  0.77880  Biso   1.000  H
  H152     1.0000 0.39680  0.52830  0.77880  Biso   1.000  H
  C217     1.0000 0.96428  0.02766  0.34046  Biso   1.000  C
  C218     1.0000 0.46428  0.52766  0.34046  Biso   1.000  C
  C219     1.0000 0.03572  0.02766  0.15954  Biso   1.000  C
  C220     1.0000 0.53572  0.52766  0.15954  Biso   1.000  C
  C221     1.0000 0.03572  0.97234  0.65954  Biso   1.000  C
  C222     1.0000 0.53572  0.47234  0.65954  Biso   1.000  C
  C223     1.0000 0.96428  0.97234  0.84046  Biso   1.000  C
  C224     1.0000 0.46428  0.47234  0.84046  Biso   1.000  C
  H153     1.0000 0.93740  0.05750  0.31750  Biso   1.000  H
  H154     1.0000 0.43740  0.55750  0.31750  Biso   1.000  H
  H155     1.0000 0.06260  0.05750  0.18250  Biso   1.000  H
  H156     1.0000 0.56260  0.55750  0.18250  Biso   1.000  H
  H157     1.0000 0.06260  0.94250  0.68250  Biso   1.000  H
  H158     1.0000 0.56260  0.44250  0.68250  Biso   1.000  H
  H159     1.0000 0.93740  0.94250  0.81750  Biso   1.000  H
  H160     1.0000 0.43740  0.44250  0.81750  Biso   1.000  H
  C225     1.0000 0.02801  0.03422  0.39663  Biso   1.000  C
  C226     1.0000 0.52801  0.53422  0.39663  Biso   1.000  C
  C227     1.0000 0.97199  0.03422  0.10337  Biso   1.000  C
  C228     1.0000 0.47199  0.53422  0.10337  Biso   1.000  C
  C229     1.0000 0.97199  0.96578  0.60337  Biso   1.000  C
  C230     1.0000 0.47199  0.46578  0.60337  Biso   1.000  C
  C231     1.0000 0.02801  0.96578  0.89663  Biso   1.000  C
  C232     1.0000 0.52801  0.46578  0.89663  Biso   1.000  C
  H161     1.0000 0.04560  0.06850  0.41270  Biso   1.000  H
  H162     1.0000 0.54560  0.56850  0.41270  Biso   1.000  H
  H163     1.0000 0.95440  0.06850  0.08730  Biso   1.000  H
  H164     1.0000 0.45440  0.56850  0.08730  Biso   1.000  H
  H165     1.0000 0.95440  0.93150  0.58730  Biso   1.000  H
  H166     1.0000 0.45440  0.43150  0.58730  Biso   1.000  H
  H167     1.0000 0.04560  0.93150  0.91270  Biso   1.000  H
  H168     1.0000 0.54560  0.43150  0.91270  Biso   1.000  H
  C233     1.0000 0.06561  0.98931  0.42893  Biso   1.000  C
  C234     1.0000 0.56561  0.48931  0.42893  Biso   1.000  C
  C235     1.0000 0.93439  0.98931  0.07107  Biso   1.000  C
  C236     1.0000 0.43439  0.48931  0.07107  Biso   1.000  C
  C237     1.0000 0.93439  0.01069  0.57107  Biso   1.000  C
  C238     1.0000 0.43439  0.51069  0.57107  Biso   1.000  C
  C239     1.0000 0.06561  0.01069  0.92893  Biso   1.000  C
  C240     1.0000 0.56561  0.51069  0.92893  Biso   1.000  C
  H169     1.0000 0.10970  0.99360  0.46690  Biso   1.000  H
  H170     1.0000 0.60970  0.49360  0.46690  Biso   1.000  H
  H171     1.0000 0.89030  0.99360  0.03310  Biso   1.000  H
  H172     1.0000 0.39030  0.49360  0.03310  Biso   1.000  H
  H173     1.0000 0.89030  0.00640  0.53310  Biso   1.000  H
  H174     1.0000 0.39030  0.50640  0.53310  Biso   1.000  H
  H175     1.0000 0.10970  0.00640  0.96690  Biso   1.000  H
  H176     1.0000 0.60970  0.50640  0.96690  Biso   1.000  H
  C241     1.0000 0.28600  0.00782  0.64592  Biso   1.000  C
  C242     1.0000 0.78600  0.50782  0.64592  Biso   1.000  C
  C243     1.0000 0.71400  0.00782  0.85408  Biso   1.000  C
  C244     1.0000 0.21400  0.50782  0.85408  Biso   1.000  C
  C245     1.0000 0.71400  0.99218  0.35408  Biso   1.000  C
  C246     1.0000 0.21400  0.49218  0.35408  Biso   1.000  C
  C247     1.0000 0.28600  0.99218  0.14592  Biso   1.000  C
  C248     1.0000 0.78600  0.49218  0.14592  Biso   1.000  C
  H177     1.0000 0.30150  0.01480  0.59100  Biso   1.000  H
  H178     1.0000 0.80150  0.51480  0.59100  Biso   1.000  H
  H179     1.0000 0.69850  0.01480  0.90900  Biso   1.000  H
  H180     1.0000 0.19850  0.51480  0.90900  Biso   1.000  H
  H181     1.0000 0.69850  0.98520  0.40900  Biso   1.000  H
  H182     1.0000 0.19850  0.48520  0.40900  Biso   1.000  H
  H183     1.0000 0.30150  0.98520  0.09100  Biso   1.000  H
  H184     1.0000 0.80150  0.48520  0.09100  Biso   1.000  H
  H185     1.0000 0.32360  0.98580  0.67990  Biso   1.000  H
  H186     1.0000 0.82360  0.48580  0.67990  Biso   1.000  H
  H187     1.0000 0.67640  0.98580  0.82010  Biso   1.000  H
  H188     1.0000 0.17640  0.48580  0.82010  Biso   1.000  H
  H189     1.0000 0.67640  0.01420  0.32010  Biso   1.000  H
  H190     1.0000 0.17640  0.51420  0.32010  Biso   1.000  H
  H191     1.0000 0.32360  0.01420  0.17990  Biso   1.000  H
  H192     1.0000 0.82360  0.51420  0.17990  Biso   1.000  H
  C249     1.0000 0.21476  0.97751  0.63117  Biso   1.000  C
  C250     1.0000 0.71476  0.47751  0.63117  Biso   1.000  C
  C251     1.0000 0.78524  0.97751  0.86883  Biso   1.000  C
  C252     1.0000 0.28524  0.47751  0.86883  Biso   1.000  C
  C253     1.0000 0.78524  0.02249  0.36883  Biso   1.000  C
  C254     1.0000 0.28524  0.52249  0.36883  Biso   1.000  C
  C255     1.0000 0.21476  0.02249  0.13117  Biso   1.000  C
  C256     1.0000 0.71476  0.52249  0.13117  Biso   1.000  C
  H193     1.0000 0.19690  0.97400  0.68540  Biso   1.000  H
  H194     1.0000 0.69690  0.47400  0.68540  Biso   1.000  H
  H195     1.0000 0.80310  0.97400  0.81460  Biso   1.000  H
  H196     1.0000 0.30310  0.47400  0.81460  Biso   1.000  H
  H197     1.0000 0.80310  0.02600  0.31460  Biso   1.000  H
  H198     1.0000 0.30310  0.52600  0.31460  Biso   1.000  H
  H199     1.0000 0.19690  0.02600  0.18540  Biso   1.000  H
  H200     1.0000 0.69690  0.52600  0.18540  Biso   1.000  H
  H201     1.0000 0.17870  0.99820  0.59260  Biso   1.000  H
  H202     1.0000 0.67870  0.49820  0.59260  Biso   1.000  H
  H203     1.0000 0.82130  0.99820  0.90740  Biso   1.000  H
  H204     1.0000 0.32130  0.49820  0.90740  Biso   1.000  H
  H205     1.0000 0.82130  0.00180  0.40740  Biso   1.000  H
  H206     1.0000 0.32130  0.50180  0.40740  Biso   1.000  H
  H207     1.0000 0.17870  0.00180  0.09260  Biso   1.000  H
  H208     1.0000 0.67870  0.50180  0.09260  Biso   1.000  H
