data_image0
_cell_length_a       49.567
_cell_length_b       18.394
_cell_length_c       8.701
_cell_angle_alpha    90
_cell_angle_beta     90
_cell_angle_gamma    90

_symmetry_space_group_name_H-M    "P 1"
_symmetry_int_tables_number       1

loop_
  _symmetry_equiv_pos_as_xyz
  'x, y, z'

loop_
  _atom_site_label
  _atom_site_occupancy
  _atom_site_fract_x
  _atom_site_fract_y
  _atom_site_fract_z
  _atom_site_thermal_displace_type
  _atom_site_B_iso_or_equiv
  _atom_site_type_symbol
  Cu1      1.0000 0.05615  0.62500  0.12500  Biso   1.000  Cu
  Cu2      1.0000 0.05615  0.12500  0.62500  Biso   1.000  Cu
  Cu3      1.0000 0.55615  0.62500  0.62500  Biso   1.000  Cu
  Cu4      1.0000 0.19385  0.62500  0.12500  Biso   1.000  Cu
  Cu5      1.0000 0.55615  0.12500  0.12500  Biso   1.000  Cu
  Cu6      1.0000 0.69385  0.12500  0.12500  Biso   1.000  Cu
  Cu7      1.0000 0.69385  0.62500  0.62500  Biso   1.000  Cu
  Cu8      1.0000 0.19385  0.12500  0.62500  Biso   1.000  Cu
  Cu9      1.0000 0.94385  0.37500  0.87500  Biso   1.000  Cu
  Cu10     1.0000 0.94385  0.87500  0.37500  Biso   1.000  Cu
  Cu11     1.0000 0.44385  0.37500  0.37500  Biso   1.000  Cu
  Cu12     1.0000 0.30615  0.37500  0.37500  Biso   1.000  Cu
  Cu13     1.0000 0.44385  0.87500  0.87500  Biso   1.000  Cu
  Cu14     1.0000 0.30615  0.87500  0.87500  Biso   1.000  Cu
  Cu15     1.0000 0.80615  0.37500  0.87500  Biso   1.000  Cu
  Cu16     1.0000 0.80615  0.87500  0.37500  Biso   1.000  Cu
  O1       1.0000 0.08651  0.20041  0.56280  Biso   1.000  O
  O2       1.0000 0.08651  0.70041  0.06280  Biso   1.000  O
  O3       1.0000 0.08651  0.04959  0.68720  Biso   1.000  O
  O4       1.0000 0.58651  0.20041  0.06280  Biso   1.000  O
  O5       1.0000 0.16349  0.20041  0.68720  Biso   1.000  O
  O6       1.0000 0.58651  0.70041  0.56280  Biso   1.000  O
  O7       1.0000 0.16349  0.04959  0.56280  Biso   1.000  O
  O8       1.0000 0.66349  0.54959  0.56280  Biso   1.000  O
  O9       1.0000 0.66349  0.20041  0.18720  Biso   1.000  O
  O10      1.0000 0.08651  0.54959  0.18720  Biso   1.000  O
  O11      1.0000 0.66349  0.04959  0.06280  Biso   1.000  O
  O12      1.0000 0.66349  0.70041  0.68720  Biso   1.000  O
  O13      1.0000 0.16349  0.54959  0.06280  Biso   1.000  O
  O14      1.0000 0.58651  0.54959  0.68720  Biso   1.000  O
  O15      1.0000 0.16349  0.70041  0.18720  Biso   1.000  O
  O16      1.0000 0.58651  0.04959  0.18720  Biso   1.000  O
  O17      1.0000 0.91349  0.79959  0.43720  Biso   1.000  O
  O18      1.0000 0.91349  0.29959  0.93720  Biso   1.000  O
  O19      1.0000 0.91349  0.45041  0.81280  Biso   1.000  O
  O20      1.0000 0.41349  0.79959  0.93720  Biso   1.000  O
  O21      1.0000 0.33651  0.79959  0.81280  Biso   1.000  O
  O22      1.0000 0.41349  0.29959  0.43720  Biso   1.000  O
  O23      1.0000 0.33651  0.45041  0.43720  Biso   1.000  O
  O24      1.0000 0.83651  0.95041  0.43720  Biso   1.000  O
  O25      1.0000 0.83651  0.79959  0.31280  Biso   1.000  O
  O26      1.0000 0.91349  0.95041  0.31280  Biso   1.000  O
  O27      1.0000 0.83651  0.45041  0.93720  Biso   1.000  O
  O28      1.0000 0.83651  0.29959  0.81280  Biso   1.000  O
  O29      1.0000 0.33651  0.95041  0.93720  Biso   1.000  O
  O30      1.0000 0.41349  0.95041  0.81280  Biso   1.000  O
  O31      1.0000 0.33651  0.29959  0.31280  Biso   1.000  O
  O32      1.0000 0.41349  0.45041  0.31280  Biso   1.000  O
  O33      1.0000 0.04907  0.25244  0.47390  Biso   1.000  O
  O34      1.0000 0.04907  0.75244  0.97390  Biso   1.000  O
  O35      1.0000 0.04907  0.99756  0.77610  Biso   1.000  O
  O36      1.0000 0.54907  0.25244  0.97390  Biso   1.000  O
  O37      1.0000 0.20093  0.25244  0.77610  Biso   1.000  O
  O38      1.0000 0.54907  0.75244  0.47390  Biso   1.000  O
  O39      1.0000 0.20093  0.99756  0.47390  Biso   1.000  O
  O40      1.0000 0.70093  0.49756  0.47390  Biso   1.000  O
  O41      1.0000 0.70093  0.25244  0.27610  Biso   1.000  O
  O42      1.0000 0.04907  0.49756  0.27610  Biso   1.000  O
  O43      1.0000 0.70093  0.99756  0.97390  Biso   1.000  O
  O44      1.0000 0.70093  0.75244  0.77610  Biso   1.000  O
  O45      1.0000 0.20093  0.49756  0.97390  Biso   1.000  O
  O46      1.0000 0.54907  0.49756  0.77610  Biso   1.000  O
  O47      1.0000 0.20093  0.75244  0.27610  Biso   1.000  O
  O48      1.0000 0.54907  0.99756  0.27610  Biso   1.000  O
  O49      1.0000 0.95093  0.74756  0.52610  Biso   1.000  O
  O50      1.0000 0.95093  0.24756  0.02610  Biso   1.000  O
  O51      1.0000 0.95093  0.50244  0.72390  Biso   1.000  O
  O52      1.0000 0.45093  0.74756  0.02610  Biso   1.000  O
  O53      1.0000 0.29907  0.74756  0.72390  Biso   1.000  O
  O54      1.0000 0.45093  0.24756  0.52610  Biso   1.000  O
  O55      1.0000 0.29907  0.50244  0.52610  Biso   1.000  O
  O56      1.0000 0.79907  0.00244  0.52610  Biso   1.000  O
  O57      1.0000 0.79907  0.74756  0.22390  Biso   1.000  O
  O58      1.0000 0.95093  0.00244  0.22390  Biso   1.000  O
  O59      1.0000 0.79907  0.50244  0.02610  Biso   1.000  O
  O60      1.0000 0.79907  0.24756  0.72390  Biso   1.000  O
  O61      1.0000 0.29907  0.00244  0.02610  Biso   1.000  O
  O62      1.0000 0.45093  0.00244  0.72390  Biso   1.000  O
  O63      1.0000 0.29907  0.24756  0.22390  Biso   1.000  O
  O64      1.0000 0.45093  0.50244  0.22390  Biso   1.000  O
  O65      1.0000 0.12500  0.12500  0.84450  Biso   1.000  O
  O66      1.0000 0.12500  0.62500  0.34450  Biso   1.000  O
  O67      1.0000 0.12500  0.12500  0.40550  Biso   1.000  O
  O68      1.0000 0.62500  0.12500  0.34450  Biso   1.000  O
  O69      1.0000 0.62500  0.62500  0.84450  Biso   1.000  O
  O70      1.0000 0.62500  0.12500  0.90550  Biso   1.000  O
  O71      1.0000 0.12500  0.62500  0.90550  Biso   1.000  O
  O72      1.0000 0.62500  0.62500  0.40550  Biso   1.000  O
  O73      1.0000 0.87500  0.87500  0.15550  Biso   1.000  O
  O74      1.0000 0.87500  0.37500  0.65550  Biso   1.000  O
  O75      1.0000 0.87500  0.37500  0.09450  Biso   1.000  O
  O76      1.0000 0.37500  0.87500  0.65550  Biso   1.000  O
  O77      1.0000 0.37500  0.87500  0.09450  Biso   1.000  O
  O78      1.0000 0.37500  0.37500  0.15550  Biso   1.000  O
  O79      1.0000 0.87500  0.87500  0.59450  Biso   1.000  O
  O80      1.0000 0.37500  0.37500  0.59450  Biso   1.000  O
  O81      1.0000 0.12500  0.05150  0.12500  Biso   1.000  O
  O82      1.0000 0.12500  0.55150  0.62500  Biso   1.000  O
  O83      1.0000 0.12500  0.19850  0.12500  Biso   1.000  O
  O84      1.0000 0.62500  0.05150  0.62500  Biso   1.000  O
  O85      1.0000 0.62500  0.55150  0.12500  Biso   1.000  O
  O86      1.0000 0.62500  0.69850  0.12500  Biso   1.000  O
  O87      1.0000 0.12500  0.69850  0.62500  Biso   1.000  O
  O88      1.0000 0.62500  0.19850  0.62500  Biso   1.000  O
  O89      1.0000 0.87500  0.94850  0.87500  Biso   1.000  O
  O90      1.0000 0.87500  0.44850  0.37500  Biso   1.000  O
  O91      1.0000 0.87500  0.30150  0.37500  Biso   1.000  O
  O92      1.0000 0.37500  0.94850  0.37500  Biso   1.000  O
  O93      1.0000 0.37500  0.44850  0.87500  Biso   1.000  O
  O94      1.0000 0.37500  0.30150  0.87500  Biso   1.000  O
  O95      1.0000 0.87500  0.80150  0.87500  Biso   1.000  O
  O96      1.0000 0.37500  0.80150  0.37500  Biso   1.000  O
  N1       1.0000 0.04869  0.67031  0.33400  Biso   1.000  N
  N2       1.0000 0.04869  0.17031  0.83400  Biso   1.000  N
  N3       1.0000 0.04869  0.57969  0.91600  Biso   1.000  N
  N4       1.0000 0.54869  0.67031  0.83400  Biso   1.000  N
  N5       1.0000 0.20131  0.67031  0.91600  Biso   1.000  N
  N6       1.0000 0.54869  0.17031  0.33400  Biso   1.000  N
  N7       1.0000 0.20131  0.57969  0.33400  Biso   1.000  N
  N8       1.0000 0.70131  0.07969  0.33400  Biso   1.000  N
  N9       1.0000 0.70131  0.67031  0.41600  Biso   1.000  N
  N10      1.0000 0.04869  0.07969  0.41600  Biso   1.000  N
  N11      1.0000 0.70131  0.57969  0.83400  Biso   1.000  N
  N12      1.0000 0.70131  0.17031  0.91600  Biso   1.000  N
  N13      1.0000 0.20131  0.07969  0.83400  Biso   1.000  N
  N14      1.0000 0.54869  0.07969  0.91600  Biso   1.000  N
  N15      1.0000 0.20131  0.17031  0.41600  Biso   1.000  N
  N16      1.0000 0.54869  0.57969  0.41600  Biso   1.000  N
  N17      1.0000 0.95131  0.32969  0.66600  Biso   1.000  N
  N18      1.0000 0.95131  0.82969  0.16600  Biso   1.000  N
  N19      1.0000 0.95131  0.92031  0.58400  Biso   1.000  N
  N20      1.0000 0.45131  0.32969  0.16600  Biso   1.000  N
  N21      1.0000 0.29869  0.32969  0.58400  Biso   1.000  N
  N22      1.0000 0.45131  0.82969  0.66600  Biso   1.000  N
  N23      1.0000 0.29869  0.92031  0.66600  Biso   1.000  N
  N24      1.0000 0.79869  0.42031  0.66600  Biso   1.000  N
  N25      1.0000 0.79869  0.32969  0.08400  Biso   1.000  N
  N26      1.0000 0.95131  0.42031  0.08400  Biso   1.000  N
  N27      1.0000 0.79869  0.92031  0.16600  Biso   1.000  N
  N28      1.0000 0.79869  0.82969  0.58400  Biso   1.000  N
  N29      1.0000 0.29869  0.42031  0.16600  Biso   1.000  N
  N30      1.0000 0.45131  0.42031  0.58400  Biso   1.000  N
  N31      1.0000 0.29869  0.82969  0.08400  Biso   1.000  N
  N32      1.0000 0.45131  0.92031  0.08400  Biso   1.000  N
  N33      1.0000 0.01652  0.62500  0.12500  Biso   1.000  N
  N34      1.0000 0.01652  0.12500  0.62500  Biso   1.000  N
  N35      1.0000 0.51652  0.62500  0.62500  Biso   1.000  N
  N36      1.0000 0.23348  0.62500  0.12500  Biso   1.000  N
  N37      1.0000 0.51652  0.12500  0.12500  Biso   1.000  N
  N38      1.0000 0.73348  0.12500  0.12500  Biso   1.000  N
  N39      1.0000 0.73348  0.62500  0.62500  Biso   1.000  N
  N40      1.0000 0.23348  0.12500  0.62500  Biso   1.000  N
  N41      1.0000 0.98348  0.37500  0.87500  Biso   1.000  N
  N42      1.0000 0.98348  0.87500  0.37500  Biso   1.000  N
  N43      1.0000 0.48348  0.37500  0.37500  Biso   1.000  N
  N44      1.0000 0.26652  0.37500  0.37500  Biso   1.000  N
  N45      1.0000 0.48348  0.87500  0.87500  Biso   1.000  N
  N46      1.0000 0.26652  0.87500  0.87500  Biso   1.000  N
  N47      1.0000 0.76652  0.37500  0.87500  Biso   1.000  N
  N48      1.0000 0.76652  0.87500  0.37500  Biso   1.000  N
  N49      1.0000 0.13226  0.37500  0.37500  Biso   1.000  N
  N50      1.0000 0.13226  0.87500  0.87500  Biso   1.000  N
  N51      1.0000 0.63226  0.37500  0.87500  Biso   1.000  N
  N52      1.0000 0.11774  0.37500  0.87500  Biso   1.000  N
  N53      1.0000 0.63226  0.87500  0.37500  Biso   1.000  N
  N54      1.0000 0.11774  0.87500  0.37500  Biso   1.000  N
  N55      1.0000 0.61774  0.37500  0.37500  Biso   1.000  N
  N56      1.0000 0.61774  0.87500  0.87500  Biso   1.000  N
  N57      1.0000 0.86774  0.62500  0.62500  Biso   1.000  N
  N58      1.0000 0.86774  0.12500  0.12500  Biso   1.000  N
  N59      1.0000 0.36774  0.62500  0.12500  Biso   1.000  N
  N60      1.0000 0.38226  0.62500  0.62500  Biso   1.000  N
  N61      1.0000 0.36774  0.12500  0.62500  Biso   1.000  N
  N62      1.0000 0.88226  0.12500  0.62500  Biso   1.000  N
  N63      1.0000 0.88226  0.62500  0.12500  Biso   1.000  N
  N64      1.0000 0.38226  0.12500  0.12500  Biso   1.000  N
  C1       1.0000 0.06705  0.69220  0.43520  Biso   1.000  C
  C2       1.0000 0.06705  0.19220  0.93520  Biso   1.000  C
  C3       1.0000 0.06705  0.55780  0.81480  Biso   1.000  C
  C4       1.0000 0.56705  0.69220  0.93520  Biso   1.000  C
  C5       1.0000 0.18295  0.69220  0.81480  Biso   1.000  C
  C6       1.0000 0.56705  0.19220  0.43520  Biso   1.000  C
  C7       1.0000 0.18295  0.55780  0.43520  Biso   1.000  C
  C8       1.0000 0.68295  0.05780  0.43520  Biso   1.000  C
  C9       1.0000 0.68295  0.69220  0.31480  Biso   1.000  C
  C10      1.0000 0.06705  0.05780  0.31480  Biso   1.000  C
  C11      1.0000 0.68295  0.55780  0.93520  Biso   1.000  C
  C12      1.0000 0.68295  0.19220  0.81480  Biso   1.000  C
  C13      1.0000 0.18295  0.05780  0.93520  Biso   1.000  C
  C14      1.0000 0.56705  0.05780  0.81480  Biso   1.000  C
  C15      1.0000 0.18295  0.19220  0.31480  Biso   1.000  C
  C16      1.0000 0.56705  0.55780  0.31480  Biso   1.000  C
  C17      1.0000 0.93295  0.30780  0.56480  Biso   1.000  C
  C18      1.0000 0.93295  0.80780  0.06480  Biso   1.000  C
  C19      1.0000 0.93295  0.94220  0.68520  Biso   1.000  C
  C20      1.0000 0.43295  0.30780  0.06480  Biso   1.000  C
  C21      1.0000 0.31705  0.30780  0.68520  Biso   1.000  C
  C22      1.0000 0.43295  0.80780  0.56480  Biso   1.000  C
  C23      1.0000 0.31705  0.94220  0.56480  Biso   1.000  C
  C24      1.0000 0.81705  0.44220  0.56480  Biso   1.000  C
  C25      1.0000 0.81705  0.30780  0.18520  Biso   1.000  C
  C26      1.0000 0.93295  0.44220  0.18520  Biso   1.000  C
  C27      1.0000 0.81705  0.94220  0.06480  Biso   1.000  C
  C28      1.0000 0.81705  0.80780  0.68520  Biso   1.000  C
  C29      1.0000 0.31705  0.44220  0.06480  Biso   1.000  C
  C30      1.0000 0.43295  0.44220  0.68520  Biso   1.000  C
  C31      1.0000 0.31705  0.80780  0.18520  Biso   1.000  C
  C32      1.0000 0.43295  0.94220  0.18520  Biso   1.000  C
  H1       1.0000 0.08560  0.68890  0.40870  Biso   1.000  H
  H2       1.0000 0.08560  0.18890  0.90870  Biso   1.000  H
  H3       1.0000 0.08560  0.56110  0.84130  Biso   1.000  H
  H4       1.0000 0.58560  0.68890  0.90870  Biso   1.000  H
  H5       1.0000 0.16440  0.68890  0.84130  Biso   1.000  H
  H6       1.0000 0.58560  0.18890  0.40870  Biso   1.000  H
  H7       1.0000 0.16440  0.56110  0.40870  Biso   1.000  H
  H8       1.0000 0.66440  0.06110  0.40870  Biso   1.000  H
  H9       1.0000 0.66440  0.68890  0.34130  Biso   1.000  H
  H10      1.0000 0.08560  0.06110  0.34130  Biso   1.000  H
  H11      1.0000 0.66440  0.56110  0.90870  Biso   1.000  H
  H12      1.0000 0.66440  0.18890  0.84130  Biso   1.000  H
  H13      1.0000 0.16440  0.06110  0.90870  Biso   1.000  H
  H14      1.0000 0.58560  0.06110  0.84130  Biso   1.000  H
  H15      1.0000 0.16440  0.18890  0.34130  Biso   1.000  H
  H16      1.0000 0.58560  0.56110  0.34130  Biso   1.000  H
  H17      1.0000 0.91440  0.31110  0.59130  Biso   1.000  H
  H18      1.0000 0.91440  0.81110  0.09130  Biso   1.000  H
  H19      1.0000 0.91440  0.93890  0.65870  Biso   1.000  H
  H20      1.0000 0.41440  0.31110  0.09130  Biso   1.000  H
  H21      1.0000 0.33560  0.31110  0.65870  Biso   1.000  H
  H22      1.0000 0.41440  0.81110  0.59130  Biso   1.000  H
  H23      1.0000 0.33560  0.93890  0.59130  Biso   1.000  H
  H24      1.0000 0.83560  0.43890  0.59130  Biso   1.000  H
  H25      1.0000 0.83560  0.31110  0.15870  Biso   1.000  H
  H26      1.0000 0.91440  0.43890  0.15870  Biso   1.000  H
  H27      1.0000 0.83560  0.93890  0.09130  Biso   1.000  H
  H28      1.0000 0.83560  0.81110  0.65870  Biso   1.000  H
  H29      1.0000 0.33560  0.43890  0.09130  Biso   1.000  H
  H30      1.0000 0.41440  0.43890  0.65870  Biso   1.000  H
  H31      1.0000 0.33560  0.81110  0.15870  Biso   1.000  H
  H32      1.0000 0.41440  0.93890  0.15870  Biso   1.000  H
  C33      1.0000 0.06004  0.71960  0.57850  Biso   1.000  C
  C34      1.0000 0.06004  0.21960  0.07850  Biso   1.000  C
  C35      1.0000 0.06004  0.53040  0.67150  Biso   1.000  C
  C36      1.0000 0.56004  0.71960  0.07850  Biso   1.000  C
  C37      1.0000 0.18996  0.71960  0.67150  Biso   1.000  C
  C38      1.0000 0.56004  0.21960  0.57850  Biso   1.000  C
  C39      1.0000 0.18996  0.53040  0.57850  Biso   1.000  C
  C40      1.0000 0.68996  0.03040  0.57850  Biso   1.000  C
  C41      1.0000 0.68996  0.71960  0.17150  Biso   1.000  C
  C42      1.0000 0.06004  0.03040  0.17150  Biso   1.000  C
  C43      1.0000 0.68996  0.53040  0.07850  Biso   1.000  C
  C44      1.0000 0.68996  0.21960  0.67150  Biso   1.000  C
  C45      1.0000 0.18996  0.03040  0.07850  Biso   1.000  C
  C46      1.0000 0.56004  0.03040  0.67150  Biso   1.000  C
  C47      1.0000 0.18996  0.21960  0.17150  Biso   1.000  C
  C48      1.0000 0.56004  0.53040  0.17150  Biso   1.000  C
  C49      1.0000 0.93996  0.28040  0.42150  Biso   1.000  C
  C50      1.0000 0.93996  0.78040  0.92150  Biso   1.000  C
  C51      1.0000 0.93996  0.96960  0.82850  Biso   1.000  C
  C52      1.0000 0.43996  0.28040  0.92150  Biso   1.000  C
  C53      1.0000 0.31004  0.28040  0.82850  Biso   1.000  C
  C54      1.0000 0.43996  0.78040  0.42150  Biso   1.000  C
  C55      1.0000 0.31004  0.96960  0.42150  Biso   1.000  C
  C56      1.0000 0.81004  0.46960  0.42150  Biso   1.000  C
  C57      1.0000 0.81004  0.28040  0.32850  Biso   1.000  C
  C58      1.0000 0.93996  0.46960  0.32850  Biso   1.000  C
  C59      1.0000 0.81004  0.96960  0.92150  Biso   1.000  C
  C60      1.0000 0.81004  0.78040  0.82850  Biso   1.000  C
  C61      1.0000 0.31004  0.46960  0.92150  Biso   1.000  C
  C62      1.0000 0.43996  0.46960  0.82850  Biso   1.000  C
  C63      1.0000 0.31004  0.78040  0.32850  Biso   1.000  C
  C64      1.0000 0.43996  0.96960  0.32850  Biso   1.000  C
  H33      1.0000 0.07360  0.73480  0.64900  Biso   1.000  H
  H34      1.0000 0.07360  0.23480  0.14900  Biso   1.000  H
  H35      1.0000 0.07360  0.51520  0.60100  Biso   1.000  H
  H36      1.0000 0.57360  0.73480  0.14900  Biso   1.000  H
  H37      1.0000 0.17640  0.73480  0.60100  Biso   1.000  H
  H38      1.0000 0.57360  0.23480  0.64900  Biso   1.000  H
  H39      1.0000 0.17640  0.51520  0.64900  Biso   1.000  H
  H40      1.0000 0.67640  0.01520  0.64900  Biso   1.000  H
  H41      1.0000 0.67640  0.73480  0.10100  Biso   1.000  H
  H42      1.0000 0.07360  0.01520  0.10100  Biso   1.000  H
  H43      1.0000 0.67640  0.51520  0.14900  Biso   1.000  H
  H44      1.0000 0.67640  0.23480  0.60100  Biso   1.000  H
  H45      1.0000 0.17640  0.01520  0.14900  Biso   1.000  H
  H46      1.0000 0.57360  0.01520  0.60100  Biso   1.000  H
  H47      1.0000 0.17640  0.23480  0.10100  Biso   1.000  H
  H48      1.0000 0.57360  0.51520  0.10100  Biso   1.000  H
  H49      1.0000 0.92640  0.26520  0.35100  Biso   1.000  H
  H50      1.0000 0.92640  0.76520  0.85100  Biso   1.000  H
  H51      1.0000 0.92640  0.98480  0.89900  Biso   1.000  H
  H52      1.0000 0.42640  0.26520  0.85100  Biso   1.000  H
  H53      1.0000 0.32360  0.26520  0.89900  Biso   1.000  H
  H54      1.0000 0.42640  0.76520  0.35100  Biso   1.000  H
  H55      1.0000 0.32360  0.98480  0.35100  Biso   1.000  H
  H56      1.0000 0.82360  0.48480  0.35100  Biso   1.000  H
  H57      1.0000 0.82360  0.26520  0.39900  Biso   1.000  H
  H58      1.0000 0.92640  0.48480  0.39900  Biso   1.000  H
  H59      1.0000 0.82360  0.98480  0.85100  Biso   1.000  H
  H60      1.0000 0.82360  0.76520  0.89900  Biso   1.000  H
  H61      1.0000 0.32360  0.48480  0.85100  Biso   1.000  H
  H62      1.0000 0.42640  0.48480  0.89900  Biso   1.000  H
  H63      1.0000 0.32360  0.76520  0.39900  Biso   1.000  H
  H64      1.0000 0.42640  0.98480  0.39900  Biso   1.000  H
  C65      1.0000 0.03298  0.72460  0.61700  Biso   1.000  C
  C66      1.0000 0.03298  0.22460  0.11700  Biso   1.000  C
  C67      1.0000 0.03298  0.52540  0.63300  Biso   1.000  C
  C68      1.0000 0.53298  0.72460  0.11700  Biso   1.000  C
  C69      1.0000 0.21702  0.72460  0.63300  Biso   1.000  C
  C70      1.0000 0.53298  0.22460  0.61700  Biso   1.000  C
  C71      1.0000 0.21702  0.52540  0.61700  Biso   1.000  C
  C72      1.0000 0.71702  0.02540  0.61700  Biso   1.000  C
  C73      1.0000 0.71702  0.72460  0.13300  Biso   1.000  C
  C74      1.0000 0.03298  0.02540  0.13300  Biso   1.000  C
  C75      1.0000 0.71702  0.52540  0.11700  Biso   1.000  C
  C76      1.0000 0.71702  0.22460  0.63300  Biso   1.000  C
  C77      1.0000 0.21702  0.02540  0.11700  Biso   1.000  C
  C78      1.0000 0.53298  0.02540  0.63300  Biso   1.000  C
  C79      1.0000 0.21702  0.22460  0.13300  Biso   1.000  C
  C80      1.0000 0.53298  0.52540  0.13300  Biso   1.000  C
  C81      1.0000 0.96702  0.27540  0.38300  Biso   1.000  C
  C82      1.0000 0.96702  0.77540  0.88300  Biso   1.000  C
  C83      1.0000 0.96702  0.97460  0.86700  Biso   1.000  C
  C84      1.0000 0.46702  0.27540  0.88300  Biso   1.000  C
  C85      1.0000 0.28298  0.27540  0.86700  Biso   1.000  C
  C86      1.0000 0.46702  0.77540  0.38300  Biso   1.000  C
  C87      1.0000 0.28298  0.97460  0.38300  Biso   1.000  C
  C88      1.0000 0.78298  0.47460  0.38300  Biso   1.000  C
  C89      1.0000 0.78298  0.27540  0.36700  Biso   1.000  C
  C90      1.0000 0.96702  0.47460  0.36700  Biso   1.000  C
  C91      1.0000 0.78298  0.97460  0.88300  Biso   1.000  C
  C92      1.0000 0.78298  0.77540  0.86700  Biso   1.000  C
  C93      1.0000 0.28298  0.47460  0.88300  Biso   1.000  C
  C94      1.0000 0.46702  0.47460  0.86700  Biso   1.000  C
  C95      1.0000 0.28298  0.77540  0.36700  Biso   1.000  C
  C96      1.0000 0.46702  0.97460  0.36700  Biso   1.000  C
  H65      1.0000 0.02770  0.74310  0.71440  Biso   1.000  H
  H66      1.0000 0.02770  0.24310  0.21440  Biso   1.000  H
  H67      1.0000 0.02770  0.50690  0.53560  Biso   1.000  H
  H68      1.0000 0.52770  0.74310  0.21440  Biso   1.000  H
  H69      1.0000 0.22230  0.74310  0.53560  Biso   1.000  H
  H70      1.0000 0.52770  0.24310  0.71440  Biso   1.000  H
  H71      1.0000 0.22230  0.50690  0.71440  Biso   1.000  H
  H72      1.0000 0.72230  0.00690  0.71440  Biso   1.000  H
  H73      1.0000 0.72230  0.74310  0.03560  Biso   1.000  H
  H74      1.0000 0.02770  0.00690  0.03560  Biso   1.000  H
  H75      1.0000 0.72230  0.50690  0.21440  Biso   1.000  H
  H76      1.0000 0.72230  0.24310  0.53560  Biso   1.000  H
  H77      1.0000 0.22230  0.00690  0.21440  Biso   1.000  H
  H78      1.0000 0.52770  0.00690  0.53560  Biso   1.000  H
  H79      1.0000 0.22230  0.24310  0.03560  Biso   1.000  H
  H80      1.0000 0.52770  0.50690  0.03560  Biso   1.000  H
  H81      1.0000 0.97230  0.25690  0.28560  Biso   1.000  H
  H82      1.0000 0.97230  0.75690  0.78560  Biso   1.000  H
  H83      1.0000 0.97230  0.99310  0.96440  Biso   1.000  H
  H84      1.0000 0.47230  0.25690  0.78560  Biso   1.000  H
  H85      1.0000 0.27770  0.25690  0.96440  Biso   1.000  H
  H86      1.0000 0.47230  0.75690  0.28560  Biso   1.000  H
  H87      1.0000 0.27770  0.99310  0.28560  Biso   1.000  H
  H88      1.0000 0.77770  0.49310  0.28560  Biso   1.000  H
  H89      1.0000 0.77770  0.25690  0.46440  Biso   1.000  H
  H90      1.0000 0.97230  0.49310  0.46440  Biso   1.000  H
  H91      1.0000 0.77770  0.99310  0.78560  Biso   1.000  H
  H92      1.0000 0.77770  0.75690  0.96440  Biso   1.000  H
  H93      1.0000 0.27770  0.49310  0.78560  Biso   1.000  H
  H94      1.0000 0.47230  0.49310  0.96440  Biso   1.000  H
  H95      1.0000 0.27770  0.75690  0.46440  Biso   1.000  H
  H96      1.0000 0.47230  0.99310  0.46440  Biso   1.000  H
  C97      1.0000 0.01370  0.70240  0.51230  Biso   1.000  C
  C98      1.0000 0.01370  0.20240  0.01230  Biso   1.000  C
  C99      1.0000 0.01370  0.54760  0.73770  Biso   1.000  C
  C100     1.0000 0.51370  0.70240  0.01230  Biso   1.000  C
  C101     1.0000 0.23630  0.70240  0.73770  Biso   1.000  C
  C102     1.0000 0.51370  0.20240  0.51230  Biso   1.000  C
  C103     1.0000 0.23630  0.54760  0.51230  Biso   1.000  C
  C104     1.0000 0.73630  0.04760  0.51230  Biso   1.000  C
  C105     1.0000 0.73630  0.70240  0.23770  Biso   1.000  C
  C106     1.0000 0.01370  0.04760  0.23770  Biso   1.000  C
  C107     1.0000 0.73630  0.54760  0.01230  Biso   1.000  C
  C108     1.0000 0.73630  0.20240  0.73770  Biso   1.000  C
  C109     1.0000 0.23630  0.04760  0.01230  Biso   1.000  C
  C110     1.0000 0.51370  0.04760  0.73770  Biso   1.000  C
  C111     1.0000 0.23630  0.20240  0.23770  Biso   1.000  C
  C112     1.0000 0.51370  0.54760  0.23770  Biso   1.000  C
  C113     1.0000 0.98630  0.29760  0.48770  Biso   1.000  C
  C114     1.0000 0.98630  0.79760  0.98770  Biso   1.000  C
  C115     1.0000 0.98630  0.95240  0.76230  Biso   1.000  C
  C116     1.0000 0.48630  0.29760  0.98770  Biso   1.000  C
  C117     1.0000 0.26370  0.29760  0.76230  Biso   1.000  C
  C118     1.0000 0.48630  0.79760  0.48770  Biso   1.000  C
  C119     1.0000 0.26370  0.95240  0.48770  Biso   1.000  C
  C120     1.0000 0.76370  0.45240  0.48770  Biso   1.000  C
  C121     1.0000 0.76370  0.29760  0.26230  Biso   1.000  C
  C122     1.0000 0.98630  0.45240  0.26230  Biso   1.000  C
  C123     1.0000 0.76370  0.95240  0.98770  Biso   1.000  C
  C124     1.0000 0.76370  0.79760  0.76230  Biso   1.000  C
  C125     1.0000 0.26370  0.45240  0.98770  Biso   1.000  C
  C126     1.0000 0.48630  0.45240  0.76230  Biso   1.000  C
  C127     1.0000 0.26370  0.79760  0.26230  Biso   1.000  C
  C128     1.0000 0.48630  0.95240  0.26230  Biso   1.000  C
  H97      1.0000 0.99500  0.70530  0.53660  Biso   1.000  H
  H98      1.0000 0.99500  0.20530  0.03660  Biso   1.000  H
  H99      1.0000 0.99500  0.54470  0.71340  Biso   1.000  H
  H100     1.0000 0.49500  0.70530  0.03660  Biso   1.000  H
  H101     1.0000 0.25500  0.70530  0.71340  Biso   1.000  H
  H102     1.0000 0.49500  0.20530  0.53660  Biso   1.000  H
  H103     1.0000 0.25500  0.54470  0.53660  Biso   1.000  H
  H104     1.0000 0.75500  0.04470  0.53660  Biso   1.000  H
  H105     1.0000 0.75500  0.70530  0.21340  Biso   1.000  H
  H106     1.0000 0.99500  0.04470  0.21340  Biso   1.000  H
  H107     1.0000 0.75500  0.54470  0.03660  Biso   1.000  H
  H108     1.0000 0.75500  0.20530  0.71340  Biso   1.000  H
  H109     1.0000 0.25500  0.04470  0.03660  Biso   1.000  H
  H110     1.0000 0.49500  0.04470  0.71340  Biso   1.000  H
  H111     1.0000 0.25500  0.20530  0.21340  Biso   1.000  H
  H112     1.0000 0.49500  0.54470  0.21340  Biso   1.000  H
  H113     1.0000 0.00500  0.29470  0.46340  Biso   1.000  H
  H114     1.0000 0.00500  0.79470  0.96340  Biso   1.000  H
  H115     1.0000 0.00500  0.95530  0.78660  Biso   1.000  H
  H116     1.0000 0.50500  0.29470  0.96340  Biso   1.000  H
  H117     1.0000 0.24500  0.29470  0.78660  Biso   1.000  H
  H118     1.0000 0.50500  0.79470  0.46340  Biso   1.000  H
  H119     1.0000 0.24500  0.95530  0.46340  Biso   1.000  H
  H120     1.0000 0.74500  0.45530  0.46340  Biso   1.000  H
  H121     1.0000 0.74500  0.29470  0.28660  Biso   1.000  H
  H122     1.0000 0.00500  0.45530  0.28660  Biso   1.000  H
  H123     1.0000 0.74500  0.95530  0.96340  Biso   1.000  H
  H124     1.0000 0.74500  0.79470  0.78660  Biso   1.000  H
  H125     1.0000 0.24500  0.45530  0.96340  Biso   1.000  H
  H126     1.0000 0.50500  0.45530  0.78660  Biso   1.000  H
  H127     1.0000 0.24500  0.79470  0.28660  Biso   1.000  H
  H128     1.0000 0.50500  0.95530  0.28660  Biso   1.000  H
  C129     1.0000 0.02218  0.67560  0.37020  Biso   1.000  C
  C130     1.0000 0.02218  0.17560  0.87020  Biso   1.000  C
  C131     1.0000 0.02218  0.57440  0.87980  Biso   1.000  C
  C132     1.0000 0.52218  0.67560  0.87020  Biso   1.000  C
  C133     1.0000 0.22782  0.67560  0.87980  Biso   1.000  C
  C134     1.0000 0.52218  0.17560  0.37020  Biso   1.000  C
  C135     1.0000 0.22782  0.57440  0.37020  Biso   1.000  C
  C136     1.0000 0.72782  0.07440  0.37020  Biso   1.000  C
  C137     1.0000 0.72782  0.67560  0.37980  Biso   1.000  C
  C138     1.0000 0.02218  0.07440  0.37980  Biso   1.000  C
  C139     1.0000 0.72782  0.57440  0.87020  Biso   1.000  C
  C140     1.0000 0.72782  0.17560  0.87980  Biso   1.000  C
  C141     1.0000 0.22782  0.07440  0.87020  Biso   1.000  C
  C142     1.0000 0.52218  0.07440  0.87980  Biso   1.000  C
  C143     1.0000 0.22782  0.17560  0.37980  Biso   1.000  C
  C144     1.0000 0.52218  0.57440  0.37980  Biso   1.000  C
  C145     1.0000 0.97782  0.32440  0.62980  Biso   1.000  C
  C146     1.0000 0.97782  0.82440  0.12980  Biso   1.000  C
  C147     1.0000 0.97782  0.92560  0.62020  Biso   1.000  C
  C148     1.0000 0.47782  0.32440  0.12980  Biso   1.000  C
  C149     1.0000 0.27218  0.32440  0.62020  Biso   1.000  C
  C150     1.0000 0.47782  0.82440  0.62980  Biso   1.000  C
  C151     1.0000 0.27218  0.92560  0.62980  Biso   1.000  C
  C152     1.0000 0.77218  0.42560  0.62980  Biso   1.000  C
  C153     1.0000 0.77218  0.32440  0.12020  Biso   1.000  C
  C154     1.0000 0.97782  0.42560  0.12020  Biso   1.000  C
  C155     1.0000 0.77218  0.92560  0.12980  Biso   1.000  C
  C156     1.0000 0.77218  0.82440  0.62020  Biso   1.000  C
  C157     1.0000 0.27218  0.42560  0.12980  Biso   1.000  C
  C158     1.0000 0.47782  0.42560  0.62020  Biso   1.000  C
  C159     1.0000 0.27218  0.82440  0.12020  Biso   1.000  C
  C160     1.0000 0.47782  0.92560  0.12020  Biso   1.000  C
  C161     1.0000 0.00357  0.65020  0.24850  Biso   1.000  C
  C162     1.0000 0.00357  0.15020  0.74850  Biso   1.000  C
  C163     1.0000 0.00357  0.59980  0.00150  Biso   1.000  C
  C164     1.0000 0.50357  0.65020  0.74850  Biso   1.000  C
  C165     1.0000 0.24643  0.65020  0.00150  Biso   1.000  C
  C166     1.0000 0.50357  0.15020  0.24850  Biso   1.000  C
  C167     1.0000 0.24643  0.59980  0.24850  Biso   1.000  C
  C168     1.0000 0.74643  0.09980  0.24850  Biso   1.000  C
  C169     1.0000 0.74643  0.65020  0.50150  Biso   1.000  C
  C170     1.0000 0.00357  0.09980  0.50150  Biso   1.000  C
  C171     1.0000 0.74643  0.59980  0.74850  Biso   1.000  C
  C172     1.0000 0.74643  0.15020  0.00150  Biso   1.000  C
  C173     1.0000 0.24643  0.09980  0.74850  Biso   1.000  C
  C174     1.0000 0.50357  0.09980  0.00150  Biso   1.000  C
  C175     1.0000 0.24643  0.15020  0.50150  Biso   1.000  C
  C176     1.0000 0.50357  0.59980  0.50150  Biso   1.000  C
  C177     1.0000 0.99643  0.34980  0.75150  Biso   1.000  C
  C178     1.0000 0.99643  0.84980  0.25150  Biso   1.000  C
  C179     1.0000 0.99643  0.90020  0.49850  Biso   1.000  C
  C180     1.0000 0.49643  0.34980  0.25150  Biso   1.000  C
  C181     1.0000 0.25357  0.34980  0.49850  Biso   1.000  C
  C182     1.0000 0.49643  0.84980  0.75150  Biso   1.000  C
  C183     1.0000 0.25357  0.90020  0.75150  Biso   1.000  C
  C184     1.0000 0.75357  0.40020  0.75150  Biso   1.000  C
  C185     1.0000 0.75357  0.34980  0.99850  Biso   1.000  C
  C186     1.0000 0.99643  0.40020  0.99850  Biso   1.000  C
  C187     1.0000 0.75357  0.90020  0.25150  Biso   1.000  C
  C188     1.0000 0.75357  0.84980  0.49850  Biso   1.000  C
  C189     1.0000 0.25357  0.40020  0.25150  Biso   1.000  C
  C190     1.0000 0.49643  0.40020  0.49850  Biso   1.000  C
  C191     1.0000 0.25357  0.84980  0.99850  Biso   1.000  C
  C192     1.0000 0.49643  0.90020  0.99850  Biso   1.000  C
  C193     1.0000 0.97554  0.59870  0.99670  Biso   1.000  C
  C194     1.0000 0.97554  0.09870  0.49670  Biso   1.000  C
  C195     1.0000 0.97554  0.65130  0.25330  Biso   1.000  C
  C196     1.0000 0.47554  0.59870  0.49670  Biso   1.000  C
  C197     1.0000 0.27446  0.59870  0.25330  Biso   1.000  C
  C198     1.0000 0.47554  0.09870  0.99670  Biso   1.000  C
  C199     1.0000 0.27446  0.65130  0.99670  Biso   1.000  C
  C200     1.0000 0.77446  0.15130  0.99670  Biso   1.000  C
  C201     1.0000 0.77446  0.59870  0.75330  Biso   1.000  C
  C202     1.0000 0.97554  0.15130  0.75330  Biso   1.000  C
  C203     1.0000 0.77446  0.65130  0.49670  Biso   1.000  C
  C204     1.0000 0.77446  0.09870  0.25330  Biso   1.000  C
  C205     1.0000 0.27446  0.15130  0.49670  Biso   1.000  C
  C206     1.0000 0.47554  0.15130  0.25330  Biso   1.000  C
  C207     1.0000 0.27446  0.09870  0.75330  Biso   1.000  C
  C208     1.0000 0.47554  0.65130  0.75330  Biso   1.000  C
  C209     1.0000 0.02446  0.40130  0.00330  Biso   1.000  C
  C210     1.0000 0.02446  0.90130  0.50330  Biso   1.000  C
  C211     1.0000 0.02446  0.84870  0.24670  Biso   1.000  C
  C212     1.0000 0.52446  0.40130  0.50330  Biso   1.000  C
  C213     1.0000 0.22554  0.40130  0.24670  Biso   1.000  C
  C214     1.0000 0.52446  0.90130  0.00330  Biso   1.000  C
  C215     1.0000 0.22554  0.84870  0.00330  Biso   1.000  C
  C216     1.0000 0.72554  0.34870  0.00330  Biso   1.000  C
  C217     1.0000 0.72554  0.40130  0.74670  Biso   1.000  C
  C218     1.0000 0.02446  0.34870  0.74670  Biso   1.000  C
  C219     1.0000 0.72554  0.84870  0.50330  Biso   1.000  C
  C220     1.0000 0.72554  0.90130  0.24670  Biso   1.000  C
  C221     1.0000 0.22554  0.34870  0.50330  Biso   1.000  C
  C222     1.0000 0.52446  0.34870  0.24670  Biso   1.000  C
  C223     1.0000 0.22554  0.90130  0.74670  Biso   1.000  C
  C224     1.0000 0.52446  0.84870  0.74670  Biso   1.000  C
  H129     1.0000 0.96620  0.58060  0.90920  Biso   1.000  H
  H130     1.0000 0.96620  0.08060  0.40920  Biso   1.000  H
  H131     1.0000 0.96620  0.66940  0.34080  Biso   1.000  H
  H132     1.0000 0.46620  0.58060  0.40920  Biso   1.000  H
  H133     1.0000 0.28380  0.58060  0.34080  Biso   1.000  H
  H134     1.0000 0.46620  0.08060  0.90920  Biso   1.000  H
  H135     1.0000 0.28380  0.66940  0.90920  Biso   1.000  H
  H136     1.0000 0.78380  0.16940  0.90920  Biso   1.000  H
  H137     1.0000 0.78380  0.58060  0.84080  Biso   1.000  H
  H138     1.0000 0.96620  0.16940  0.84080  Biso   1.000  H
  H139     1.0000 0.78380  0.66940  0.40920  Biso   1.000  H
  H140     1.0000 0.78380  0.08060  0.34080  Biso   1.000  H
  H141     1.0000 0.28380  0.16940  0.40920  Biso   1.000  H
  H142     1.0000 0.46620  0.16940  0.34080  Biso   1.000  H
  H143     1.0000 0.28380  0.08060  0.84080  Biso   1.000  H
  H144     1.0000 0.46620  0.66940  0.84080  Biso   1.000  H
  H145     1.0000 0.03380  0.41940  0.09080  Biso   1.000  H
  H146     1.0000 0.03380  0.91940  0.59080  Biso   1.000  H
  H147     1.0000 0.03380  0.83060  0.15920  Biso   1.000  H
  H148     1.0000 0.53380  0.41940  0.59080  Biso   1.000  H
  H149     1.0000 0.21620  0.41940  0.15920  Biso   1.000  H
  H150     1.0000 0.53380  0.91940  0.09080  Biso   1.000  H
  H151     1.0000 0.21620  0.83060  0.09080  Biso   1.000  H
  H152     1.0000 0.71620  0.33060  0.09080  Biso   1.000  H
  H153     1.0000 0.71620  0.41940  0.65920  Biso   1.000  H
  H154     1.0000 0.03380  0.33060  0.65920  Biso   1.000  H
  H155     1.0000 0.71620  0.83060  0.59080  Biso   1.000  H
  H156     1.0000 0.71620  0.91940  0.15920  Biso   1.000  H
  H157     1.0000 0.21620  0.33060  0.59080  Biso   1.000  H
  H158     1.0000 0.53380  0.33060  0.15920  Biso   1.000  H
  H159     1.0000 0.21620  0.91940  0.65920  Biso   1.000  H
  H160     1.0000 0.53380  0.83060  0.65920  Biso   1.000  H
  C225     1.0000 0.96136  0.62500  0.12500  Biso   1.000  C
  C226     1.0000 0.96136  0.12500  0.62500  Biso   1.000  C
  C227     1.0000 0.46136  0.62500  0.62500  Biso   1.000  C
  C228     1.0000 0.28864  0.62500  0.12500  Biso   1.000  C
  C229     1.0000 0.46136  0.12500  0.12500  Biso   1.000  C
  C230     1.0000 0.78864  0.12500  0.12500  Biso   1.000  C
  C231     1.0000 0.78864  0.62500  0.62500  Biso   1.000  C
  C232     1.0000 0.28864  0.12500  0.62500  Biso   1.000  C
  C233     1.0000 0.03864  0.37500  0.87500  Biso   1.000  C
  C234     1.0000 0.03864  0.87500  0.37500  Biso   1.000  C
  C235     1.0000 0.53864  0.37500  0.37500  Biso   1.000  C
  C236     1.0000 0.21136  0.37500  0.37500  Biso   1.000  C
  C237     1.0000 0.53864  0.87500  0.87500  Biso   1.000  C
  C238     1.0000 0.21136  0.87500  0.87500  Biso   1.000  C
  C239     1.0000 0.71136  0.37500  0.87500  Biso   1.000  C
  C240     1.0000 0.71136  0.87500  0.37500  Biso   1.000  C
  H161     1.0000 0.94220  0.62500  0.12500  Biso   1.000  H
  H162     1.0000 0.94220  0.12500  0.62500  Biso   1.000  H
  H163     1.0000 0.44220  0.62500  0.62500  Biso   1.000  H
  H164     1.0000 0.30780  0.62500  0.12500  Biso   1.000  H
  H165     1.0000 0.44220  0.12500  0.12500  Biso   1.000  H
  H166     1.0000 0.80780  0.12500  0.12500  Biso   1.000  H
  H167     1.0000 0.80780  0.62500  0.62500  Biso   1.000  H
  H168     1.0000 0.30780  0.12500  0.62500  Biso   1.000  H
  H169     1.0000 0.05780  0.37500  0.87500  Biso   1.000  H
  H170     1.0000 0.05780  0.87500  0.37500  Biso   1.000  H
  H171     1.0000 0.55780  0.37500  0.37500  Biso   1.000  H
  H172     1.0000 0.19220  0.37500  0.37500  Biso   1.000  H
  H173     1.0000 0.55780  0.87500  0.87500  Biso   1.000  H
  H174     1.0000 0.19220  0.87500  0.87500  Biso   1.000  H
  H175     1.0000 0.69220  0.37500  0.87500  Biso   1.000  H
  H176     1.0000 0.69220  0.87500  0.37500  Biso   1.000  H
  C241     1.0000 0.07388  0.25170  0.49390  Biso   1.000  C
  C242     1.0000 0.07388  0.75170  0.99390  Biso   1.000  C
  C243     1.0000 0.07388  0.99830  0.75610  Biso   1.000  C
  C244     1.0000 0.57388  0.25170  0.99390  Biso   1.000  C
  C245     1.0000 0.17612  0.25170  0.75610  Biso   1.000  C
  C246     1.0000 0.57388  0.75170  0.49390  Biso   1.000  C
  C247     1.0000 0.17612  0.99830  0.49390  Biso   1.000  C
  C248     1.0000 0.67612  0.49830  0.49390  Biso   1.000  C
  C249     1.0000 0.67612  0.25170  0.25610  Biso   1.000  C
  C250     1.0000 0.07388  0.49830  0.25610  Biso   1.000  C
  C251     1.0000 0.67612  0.99830  0.99390  Biso   1.000  C
  C252     1.0000 0.67612  0.75170  0.75610  Biso   1.000  C
  C253     1.0000 0.17612  0.49830  0.99390  Biso   1.000  C
  C254     1.0000 0.57388  0.49830  0.75610  Biso   1.000  C
  C255     1.0000 0.17612  0.75170  0.25610  Biso   1.000  C
  C256     1.0000 0.57388  0.99830  0.25610  Biso   1.000  C
  C257     1.0000 0.92612  0.74830  0.50610  Biso   1.000  C
  C258     1.0000 0.92612  0.24830  0.00610  Biso   1.000  C
  C259     1.0000 0.92612  0.50170  0.74390  Biso   1.000  C
  C260     1.0000 0.42612  0.74830  0.00610  Biso   1.000  C
  C261     1.0000 0.32388  0.74830  0.74390  Biso   1.000  C
  C262     1.0000 0.42612  0.24830  0.50610  Biso   1.000  C
  C263     1.0000 0.32388  0.50170  0.50610  Biso   1.000  C
  C264     1.0000 0.82388  0.00170  0.50610  Biso   1.000  C
  C265     1.0000 0.82388  0.74830  0.24390  Biso   1.000  C
  C266     1.0000 0.92612  0.00170  0.24390  Biso   1.000  C
  C267     1.0000 0.82388  0.50170  0.00610  Biso   1.000  C
  C268     1.0000 0.82388  0.24830  0.74390  Biso   1.000  C
  C269     1.0000 0.32388  0.00170  0.00610  Biso   1.000  C
  C270     1.0000 0.42612  0.00170  0.74390  Biso   1.000  C
  C271     1.0000 0.32388  0.24830  0.24390  Biso   1.000  C
  C272     1.0000 0.42612  0.50170  0.24390  Biso   1.000  C
  C273     1.0000 0.07605  0.37500  0.37500  Biso   1.000  C
  C274     1.0000 0.07605  0.87500  0.87500  Biso   1.000  C
  C275     1.0000 0.57605  0.37500  0.87500  Biso   1.000  C
  C276     1.0000 0.17395  0.37500  0.87500  Biso   1.000  C
  C277     1.0000 0.57605  0.87500  0.37500  Biso   1.000  C
  C278     1.0000 0.17395  0.87500  0.37500  Biso   1.000  C
  C279     1.0000 0.67395  0.37500  0.37500  Biso   1.000  C
  C280     1.0000 0.67395  0.87500  0.87500  Biso   1.000  C
  C281     1.0000 0.92395  0.62500  0.62500  Biso   1.000  C
  C282     1.0000 0.92395  0.12500  0.12500  Biso   1.000  C
  C283     1.0000 0.42395  0.62500  0.12500  Biso   1.000  C
  C284     1.0000 0.32605  0.62500  0.62500  Biso   1.000  C
  C285     1.0000 0.42395  0.12500  0.62500  Biso   1.000  C
  C286     1.0000 0.82605  0.12500  0.62500  Biso   1.000  C
  C287     1.0000 0.82605  0.62500  0.12500  Biso   1.000  C
  C288     1.0000 0.32605  0.12500  0.12500  Biso   1.000  C
  H177     1.0000 0.05690  0.37500  0.37500  Biso   1.000  H
  H178     1.0000 0.05690  0.87500  0.87500  Biso   1.000  H
  H179     1.0000 0.55690  0.37500  0.87500  Biso   1.000  H
  H180     1.0000 0.19310  0.37500  0.87500  Biso   1.000  H
  H181     1.0000 0.55690  0.87500  0.37500  Biso   1.000  H
  H182     1.0000 0.19310  0.87500  0.37500  Biso   1.000  H
  H183     1.0000 0.69310  0.37500  0.37500  Biso   1.000  H
  H184     1.0000 0.69310  0.87500  0.87500  Biso   1.000  H
  H185     1.0000 0.94310  0.62500  0.62500  Biso   1.000  H
  H186     1.0000 0.94310  0.12500  0.12500  Biso   1.000  H
  H187     1.0000 0.44310  0.62500  0.12500  Biso   1.000  H
  H188     1.0000 0.30690  0.62500  0.62500  Biso   1.000  H
  H189     1.0000 0.44310  0.12500  0.62500  Biso   1.000  H
  H190     1.0000 0.80690  0.12500  0.62500  Biso   1.000  H
  H191     1.0000 0.80690  0.62500  0.12500  Biso   1.000  H
  H192     1.0000 0.30690  0.12500  0.12500  Biso   1.000  H
  C289     1.0000 0.08998  0.31540  0.43310  Biso   1.000  C
  C290     1.0000 0.08998  0.81540  0.93310  Biso   1.000  C
  C291     1.0000 0.08998  0.93460  0.81690  Biso   1.000  C
  C292     1.0000 0.58998  0.31540  0.93310  Biso   1.000  C
  C293     1.0000 0.16002  0.31540  0.81690  Biso   1.000  C
  C294     1.0000 0.58998  0.81540  0.43310  Biso   1.000  C
  C295     1.0000 0.16002  0.93460  0.43310  Biso   1.000  C
  C296     1.0000 0.66002  0.43460  0.43310  Biso   1.000  C
  C297     1.0000 0.66002  0.31540  0.31690  Biso   1.000  C
  C298     1.0000 0.08998  0.43460  0.31690  Biso   1.000  C
  C299     1.0000 0.66002  0.93460  0.93310  Biso   1.000  C
  C300     1.0000 0.66002  0.81540  0.81690  Biso   1.000  C
  C301     1.0000 0.16002  0.43460  0.93310  Biso   1.000  C
  C302     1.0000 0.58998  0.43460  0.81690  Biso   1.000  C
  C303     1.0000 0.16002  0.81540  0.31690  Biso   1.000  C
  C304     1.0000 0.58998  0.93460  0.31690  Biso   1.000  C
  C305     1.0000 0.91002  0.68460  0.56690  Biso   1.000  C
  C306     1.0000 0.91002  0.18460  0.06690  Biso   1.000  C
  C307     1.0000 0.91002  0.56540  0.68310  Biso   1.000  C
  C308     1.0000 0.41002  0.68460  0.06690  Biso   1.000  C
  C309     1.0000 0.33998  0.68460  0.68310  Biso   1.000  C
  C310     1.0000 0.41002  0.18460  0.56690  Biso   1.000  C
  C311     1.0000 0.33998  0.56540  0.56690  Biso   1.000  C
  C312     1.0000 0.83998  0.06540  0.56690  Biso   1.000  C
  C313     1.0000 0.83998  0.68460  0.18310  Biso   1.000  C
  C314     1.0000 0.91002  0.06540  0.18310  Biso   1.000  C
  C315     1.0000 0.83998  0.56540  0.06690  Biso   1.000  C
  C316     1.0000 0.83998  0.18460  0.68310  Biso   1.000  C
  C317     1.0000 0.33998  0.06540  0.06690  Biso   1.000  C
  C318     1.0000 0.41002  0.06540  0.68310  Biso   1.000  C
  C319     1.0000 0.33998  0.18460  0.18310  Biso   1.000  C
  C320     1.0000 0.41002  0.56540  0.18310  Biso   1.000  C
  C321     1.0000 0.11807  0.31840  0.43120  Biso   1.000  C
  C322     1.0000 0.11807  0.81840  0.93120  Biso   1.000  C
  C323     1.0000 0.11807  0.93160  0.81880  Biso   1.000  C
  C324     1.0000 0.61807  0.31840  0.93120  Biso   1.000  C
  C325     1.0000 0.13193  0.31840  0.81880  Biso   1.000  C
  C326     1.0000 0.61807  0.81840  0.43120  Biso   1.000  C
  C327     1.0000 0.13193  0.93160  0.43120  Biso   1.000  C
  C328     1.0000 0.63193  0.43160  0.43120  Biso   1.000  C
  C329     1.0000 0.63193  0.31840  0.31880  Biso   1.000  C
  C330     1.0000 0.11807  0.43160  0.31880  Biso   1.000  C
  C331     1.0000 0.63193  0.93160  0.93120  Biso   1.000  C
  C332     1.0000 0.63193  0.81840  0.81880  Biso   1.000  C
  C333     1.0000 0.13193  0.43160  0.93120  Biso   1.000  C
  C334     1.0000 0.61807  0.43160  0.81880  Biso   1.000  C
  C335     1.0000 0.13193  0.81840  0.31880  Biso   1.000  C
  C336     1.0000 0.61807  0.93160  0.31880  Biso   1.000  C
  C337     1.0000 0.88193  0.68160  0.56880  Biso   1.000  C
  C338     1.0000 0.88193  0.18160  0.06880  Biso   1.000  C
  C339     1.0000 0.88193  0.56840  0.68120  Biso   1.000  C
  C340     1.0000 0.38193  0.68160  0.06880  Biso   1.000  C
  C341     1.0000 0.36807  0.68160  0.68120  Biso   1.000  C
  C342     1.0000 0.38193  0.18160  0.56880  Biso   1.000  C
  C343     1.0000 0.36807  0.56840  0.56880  Biso   1.000  C
  C344     1.0000 0.86807  0.06840  0.56880  Biso   1.000  C
  C345     1.0000 0.86807  0.68160  0.18120  Biso   1.000  C
  C346     1.0000 0.88193  0.06840  0.18120  Biso   1.000  C
  C347     1.0000 0.86807  0.56840  0.06880  Biso   1.000  C
  C348     1.0000 0.86807  0.18160  0.68120  Biso   1.000  C
  C349     1.0000 0.36807  0.06840  0.06880  Biso   1.000  C
  C350     1.0000 0.38193  0.06840  0.68120  Biso   1.000  C
  C351     1.0000 0.36807  0.18160  0.18120  Biso   1.000  C
  C352     1.0000 0.38193  0.56840  0.18120  Biso   1.000  C
  H193     1.0000 0.12780  0.27830  0.47190  Biso   1.000  H
  H194     1.0000 0.12780  0.77830  0.97190  Biso   1.000  H
  H195     1.0000 0.12780  0.97170  0.77810  Biso   1.000  H
  H196     1.0000 0.62780  0.27830  0.97190  Biso   1.000  H
  H197     1.0000 0.12220  0.27830  0.77810  Biso   1.000  H
  H198     1.0000 0.62780  0.77830  0.47190  Biso   1.000  H
  H199     1.0000 0.12220  0.97170  0.47190  Biso   1.000  H
  H200     1.0000 0.62220  0.47170  0.47190  Biso   1.000  H
  H201     1.0000 0.62220  0.27830  0.27810  Biso   1.000  H
  H202     1.0000 0.12780  0.47170  0.27810  Biso   1.000  H
  H203     1.0000 0.62220  0.97170  0.97190  Biso   1.000  H
  H204     1.0000 0.62220  0.77830  0.77810  Biso   1.000  H
  H205     1.0000 0.12220  0.47170  0.97190  Biso   1.000  H
  H206     1.0000 0.62780  0.47170  0.77810  Biso   1.000  H
  H207     1.0000 0.12220  0.77830  0.27810  Biso   1.000  H
  H208     1.0000 0.62780  0.97170  0.27810  Biso   1.000  H
  H209     1.0000 0.87220  0.72170  0.52810  Biso   1.000  H
  H210     1.0000 0.87220  0.22170  0.02810  Biso   1.000  H
  H211     1.0000 0.87220  0.52830  0.72190  Biso   1.000  H
  H212     1.0000 0.37220  0.72170  0.02810  Biso   1.000  H
  H213     1.0000 0.37780  0.72170  0.72190  Biso   1.000  H
  H214     1.0000 0.37220  0.22170  0.52810  Biso   1.000  H
  H215     1.0000 0.37780  0.52830  0.52810  Biso   1.000  H
  H216     1.0000 0.87780  0.02830  0.52810  Biso   1.000  H
  H217     1.0000 0.87780  0.72170  0.22190  Biso   1.000  H
  H218     1.0000 0.87220  0.02830  0.22190  Biso   1.000  H
  H219     1.0000 0.87780  0.52830  0.02810  Biso   1.000  H
  H220     1.0000 0.87780  0.22170  0.72190  Biso   1.000  H
  H221     1.0000 0.37780  0.02830  0.02810  Biso   1.000  H
  H222     1.0000 0.37220  0.02830  0.72190  Biso   1.000  H
  H223     1.0000 0.37780  0.22170  0.22190  Biso   1.000  H
  H224     1.0000 0.37220  0.52830  0.22190  Biso   1.000  H
