data_image0
_cell_length_a       14.832
_cell_length_b       21.306
_cell_length_c       24.678
_cell_angle_alpha    90
_cell_angle_beta     99.075
_cell_angle_gamma    90

_symmetry_space_group_name_H-M    "P 1"
_symmetry_int_tables_number       1

loop_
  _symmetry_equiv_pos_as_xyz
  'x, y, z'

loop_
  _atom_site_label
  _atom_site_occupancy
  _atom_site_fract_x
  _atom_site_fract_y
  _atom_site_fract_z
  _atom_site_thermal_displace_type
  _atom_site_B_iso_or_equiv
  _atom_site_type_symbol
  Cu1      1.0000 0.42082  0.28490  0.15583  Biso   1.000  Cu
  Cu2      1.0000 0.57918  0.78490  0.34417  Biso   1.000  Cu
  Cu3      1.0000 0.57918  0.71510  0.84417  Biso   1.000  Cu
  Cu4      1.0000 0.42082  0.21510  0.65583  Biso   1.000  Cu
  Cu5      1.0000 0.37648  0.19883  0.08192  Biso   1.000  Cu
  Cu6      1.0000 0.62352  0.69883  0.41808  Biso   1.000  Cu
  Cu7      1.0000 0.62352  0.80117  0.91808  Biso   1.000  Cu
  Cu8      1.0000 0.37648  0.30117  0.58192  Biso   1.000  Cu
  Cu9      1.0000 0.82545  0.28775  0.58594  Biso   1.000  Cu
  Cu10     1.0000 0.17455  0.78775  0.91406  Biso   1.000  Cu
  Cu11     1.0000 0.17455  0.71224  0.41406  Biso   1.000  Cu
  Cu12     1.0000 0.82545  0.21225  0.08594  Biso   1.000  Cu
  Cu13     1.0000 0.95605  0.23342  0.65335  Biso   1.000  Cu
  Cu14     1.0000 0.04395  0.73342  0.84665  Biso   1.000  Cu
  Cu15     1.0000 0.04395  0.76658  0.34665  Biso   1.000  Cu
  Cu16     1.0000 0.95605  0.26658  0.15335  Biso   1.000  Cu
  S1       1.0000 0.27985  0.05451  0.79927  Biso   1.000  S
  S2       1.0000 0.72015  0.55451  0.70073  Biso   1.000  S
  S3       1.0000 0.72015  0.94549  0.20073  Biso   1.000  S
  S4       1.0000 0.27985  0.44549  0.29927  Biso   1.000  S
  S5       1.0000 0.56941  0.48976  0.35745  Biso   1.000  S
  S6       1.0000 0.43059  0.98976  0.14255  Biso   1.000  S
  S7       1.0000 0.43059  0.51024  0.64255  Biso   1.000  S
  S8       1.0000 0.56941  0.01024  0.85745  Biso   1.000  S
  S9       1.0000 0.51563  0.46274  0.42411  Biso   1.000  S
  S10      1.0000 0.48437  0.96274  0.07589  Biso   1.000  S
  S11      1.0000 0.48437  0.53726  0.57589  Biso   1.000  S
  S12      1.0000 0.51563  0.03726  0.92411  Biso   1.000  S
  S13      1.0000 0.23350  0.01460  0.86393  Biso   1.000  S
  S14      1.0000 0.76650  0.51460  0.63607  Biso   1.000  S
  S15      1.0000 0.76650  0.98540  0.13607  Biso   1.000  S
  S16      1.0000 0.23350  0.48540  0.36393  Biso   1.000  S
  O1       1.0000 0.49938  0.31672  0.10525  Biso   1.000  O
  O2       1.0000 0.50062  0.81672  0.39475  Biso   1.000  O
  O3       1.0000 0.50062  0.68328  0.89475  Biso   1.000  O
  O4       1.0000 0.49938  0.18328  0.60525  Biso   1.000  O
  O5       1.0000 0.33414  0.24181  0.19570  Biso   1.000  O
  O6       1.0000 0.66586  0.74181  0.30430  Biso   1.000  O
  O7       1.0000 0.66586  0.75819  0.80430  Biso   1.000  O
  O8       1.0000 0.33414  0.25819  0.69570  Biso   1.000  O
  O9       1.0000 0.47060  0.23683  0.04618  Biso   1.000  O
  O10      1.0000 0.52940  0.73683  0.45382  Biso   1.000  O
  O11      1.0000 0.52940  0.76317  0.95382  Biso   1.000  O
  O12      1.0000 0.47060  0.26317  0.54618  Biso   1.000  O
  O13      1.0000 0.29137  0.17161  0.12934  Biso   1.000  O
  O14      1.0000 0.70863  0.67161  0.37066  Biso   1.000  O
  O15      1.0000 0.70863  0.82839  0.87066  Biso   1.000  O
  O16      1.0000 0.29137  0.32839  0.62934  Biso   1.000  O
  O17      1.0000 0.74363  0.24561  0.62962  Biso   1.000  O
  O18      1.0000 0.25637  0.74561  0.87038  Biso   1.000  O
  O19      1.0000 0.25637  0.75439  0.37038  Biso   1.000  O
  O20      1.0000 0.74363  0.25439  0.12962  Biso   1.000  O
  O21      1.0000 0.31965  0.33484  0.11678  Biso   1.000  O
  O22      1.0000 0.68035  0.83484  0.38322  Biso   1.000  O
  O23      1.0000 0.68035  0.66516  0.88322  Biso   1.000  O
  O24      1.0000 0.31965  0.16516  0.61678  Biso   1.000  O
  O25      1.0000 0.47128  0.14568  0.12427  Biso   1.000  O
  O26      1.0000 0.52872  0.64568  0.37573  Biso   1.000  O
  O27      1.0000 0.52872  0.85432  0.87573  Biso   1.000  O
  O28      1.0000 0.47128  0.35432  0.62427  Biso   1.000  O
  O29      1.0000 0.84207  0.35418  0.64157  Biso   1.000  O
  O30      1.0000 0.15793  0.85418  0.85843  Biso   1.000  O
  O31      1.0000 0.15793  0.64582  0.35843  Biso   1.000  O
  O32      1.0000 0.84207  0.14582  0.14157  Biso   1.000  O
  O33      1.0000 0.85540  0.19661  0.68496  Biso   1.000  O
  O34      1.0000 0.14460  0.69661  0.81504  Biso   1.000  O
  O35      1.0000 0.14460  0.80339  0.31504  Biso   1.000  O
  O36      1.0000 0.85540  0.30339  0.18496  Biso   1.000  O
  O37      1.0000 0.94092  0.16832  0.59542  Biso   1.000  O
  O38      1.0000 0.05908  0.66832  0.90458  Biso   1.000  O
  O39      1.0000 0.05908  0.83168  0.40458  Biso   1.000  O
  O40      1.0000 0.94092  0.33168  0.09542  Biso   1.000  O
  O41      1.0000 0.29174  0.26539  0.04883  Biso   1.000  O
  O42      1.0000 0.70826  0.76539  0.45117  Biso   1.000  O
  O43      1.0000 0.70826  0.73461  0.95117  Biso   1.000  O
  O44      1.0000 0.29174  0.23461  0.54883  Biso   1.000  O
  O45      1.0000 0.03756  0.28054  0.61301  Biso   1.000  O
  O46      1.0000 0.96244  0.78054  0.88699  Biso   1.000  O
  O47      1.0000 0.96244  0.71946  0.38699  Biso   1.000  O
  O48      1.0000 0.03756  0.21946  0.11301  Biso   1.000  O
  O49      1.0000 0.51314  0.22221  0.18495  Biso   1.000  O
  O50      1.0000 0.48686  0.72221  0.31505  Biso   1.000  O
  O51      1.0000 0.48686  0.77779  0.81505  Biso   1.000  O
  O52      1.0000 0.51314  0.27779  0.68495  Biso   1.000  O
  O53      1.0000 0.82499  0.21281  0.53970  Biso   1.000  O
  O54      1.0000 0.17501  0.71281  0.96030  Biso   1.000  O
  O55      1.0000 0.17501  0.78719  0.46030  Biso   1.000  O
  O56      1.0000 0.82499  0.28719  0.03970  Biso   1.000  O
  N1       1.0000 0.06169  0.18091  0.70607  Biso   1.000  N
  N2       1.0000 0.93831  0.68091  0.79393  Biso   1.000  N
  N3       1.0000 0.93831  0.81909  0.29393  Biso   1.000  N
  N4       1.0000 0.06169  0.31909  0.20607  Biso   1.000  N
  N5       1.0000 0.72235  0.33930  0.53061  Biso   1.000  N
  N6       1.0000 0.27765  0.83930  0.96939  Biso   1.000  N
  N7       1.0000 0.27765  0.66070  0.46939  Biso   1.000  N
  N8       1.0000 0.72235  0.16070  0.03061  Biso   1.000  N
  O57      1.0000 0.94907  0.30716  0.70131  Biso   1.000  O
  O58      1.0000 0.05093  0.80716  0.79869  Biso   1.000  O
  O59      1.0000 0.05093  0.69284  0.29869  Biso   1.000  O
  O60      1.0000 0.94907  0.19284  0.20131  Biso   1.000  O
  N9       1.0000 0.47036  0.35061  0.22166  Biso   1.000  N
  N10      1.0000 0.52964  0.85061  0.27834  Biso   1.000  N
  N11      1.0000 0.52964  0.64939  0.77834  Biso   1.000  N
  N12      1.0000 0.47036  0.14939  0.72166  Biso   1.000  N
  O61      1.0000 0.92587  0.32243  0.55239  Biso   1.000  O
  O62      1.0000 0.07413  0.82243  0.94761  Biso   1.000  O
  O63      1.0000 0.07413  0.67757  0.44761  Biso   1.000  O
  O64      1.0000 0.92587  0.17757  0.05239  Biso   1.000  O
  C1       1.0000 0.88210  0.16952  0.55301  Biso   1.000  C
  C2       1.0000 0.11790  0.66952  0.94699  Biso   1.000  C
  C3       1.0000 0.11790  0.83048  0.44699  Biso   1.000  C
  C4       1.0000 0.88210  0.33048  0.05301  Biso   1.000  C
  C5       1.0000 0.19190  0.10366  0.76624  Biso   1.000  C
  C6       1.0000 0.80810  0.60366  0.73376  Biso   1.000  C
  C7       1.0000 0.80810  0.89634  0.23376  Biso   1.000  C
  C8       1.0000 0.19190  0.39634  0.26624  Biso   1.000  C
  C9       1.0000 0.51940  0.16775  0.16665  Biso   1.000  C
  C10      1.0000 0.48060  0.66775  0.33335  Biso   1.000  C
  C11      1.0000 0.48060  0.83225  0.83335  Biso   1.000  C
  C12      1.0000 0.51940  0.33225  0.66665  Biso   1.000  C
  C13      1.0000 0.89420  0.35104  0.68678  Biso   1.000  C
  C14      1.0000 0.10580  0.85104  0.81322  Biso   1.000  C
  C15      1.0000 0.10580  0.64896  0.31322  Biso   1.000  C
  C16      1.0000 0.89420  0.14896  0.18678  Biso   1.000  C
  N13      1.0000 0.32816  0.13724  0.01279  Biso   1.000  N
  N14      1.0000 0.67184  0.63724  0.48721  Biso   1.000  N
  N15      1.0000 0.67184  0.86276  0.98721  Biso   1.000  N
  N16      1.0000 0.32816  0.36276  0.51279  Biso   1.000  N
  C17      1.0000 0.59850  0.41346  0.46287  Biso   1.000  C
  C18      1.0000 0.40150  0.91346  0.03713  Biso   1.000  C
  C19      1.0000 0.40150  0.58654  0.53713  Biso   1.000  C
  C20      1.0000 0.59850  0.08654  0.96287  Biso   1.000  C
  C21      1.0000 0.27870  0.31671  0.07121  Biso   1.000  C
  C22      1.0000 0.72130  0.81671  0.42879  Biso   1.000  C
  C23      1.0000 0.72130  0.68329  0.92879  Biso   1.000  C
  C24      1.0000 0.27870  0.18329  0.57121  Biso   1.000  C
  C25      1.0000 0.77280  0.20964  0.66837  Biso   1.000  C
  C26      1.0000 0.22720  0.70964  0.83163  Biso   1.000  C
  C27      1.0000 0.22720  0.79036  0.33163  Biso   1.000  C
  C28      1.0000 0.77280  0.29036  0.16837  Biso   1.000  C
  C29      1.0000 0.51050  0.28734  0.06257  Biso   1.000  C
  C30      1.0000 0.48950  0.78734  0.43743  Biso   1.000  C
  C31      1.0000 0.48950  0.71266  0.93743  Biso   1.000  C
  C32      1.0000 0.51050  0.21266  0.56257  Biso   1.000  C
  C33      1.0000 0.26940  0.06569  0.91986  Biso   1.000  C
  C34      1.0000 0.73060  0.56569  0.58014  Biso   1.000  C
  C35      1.0000 0.73060  0.93431  0.08014  Biso   1.000  C
  C36      1.0000 0.26940  0.43431  0.41986  Biso   1.000  C
  C37      1.0000 0.58150  0.39571  0.51419  Biso   1.000  C
  C38      1.0000 0.41850  0.89571  0.98581  Biso   1.000  C
  C39      1.0000 0.41850  0.60429  0.48581  Biso   1.000  C
  C40      1.0000 0.58150  0.10429  0.01419  Biso   1.000  C
  H1       1.0000 0.52870  0.40870  0.52690  Biso   1.000  H
  H2       1.0000 0.47130  0.90870  0.97310  Biso   1.000  H
  H3       1.0000 0.47130  0.59130  0.47310  Biso   1.000  H
  H4       1.0000 0.52870  0.09130  0.02690  Biso   1.000  H
  C41      1.0000 0.53260  0.43254  0.30690  Biso   1.000  C
  C42      1.0000 0.46740  0.93254  0.19310  Biso   1.000  C
  C43      1.0000 0.46740  0.56746  0.69310  Biso   1.000  C
  C44      1.0000 0.53260  0.06746  0.80690  Biso   1.000  C
  C45      1.0000 0.67770  0.39334  0.44563  Biso   1.000  C
  C46      1.0000 0.32230  0.89334  0.05437  Biso   1.000  C
  C47      1.0000 0.32230  0.60666  0.55437  Biso   1.000  C
  C48      1.0000 0.67770  0.10666  0.94563  Biso   1.000  C
  H5       1.0000 0.69090  0.40430  0.41130  Biso   1.000  H
  H6       1.0000 0.30910  0.90430  0.08870  Biso   1.000  H
  H7       1.0000 0.30910  0.59570  0.58870  Biso   1.000  H
  H8       1.0000 0.69090  0.09570  0.91130  Biso   1.000  H
  C49      1.0000 0.57760  0.31362  0.02928  Biso   1.000  C
  C50      1.0000 0.42240  0.81362  0.47072  Biso   1.000  C
  C51      1.0000 0.42240  0.68638  0.97072  Biso   1.000  C
  C52      1.0000 0.57760  0.18638  0.52928  Biso   1.000  C
  H9       1.0000 0.63870  0.30200  0.04640  Biso   1.000  H
  H10      1.0000 0.36130  0.80200  0.45360  Biso   1.000  H
  H11      1.0000 0.36130  0.69800  0.95360  Biso   1.000  H
  H12      1.0000 0.63870  0.19800  0.54640  Biso   1.000  H
  H13      1.0000 0.57370  0.35910  0.02980  Biso   1.000  H
  H14      1.0000 0.42630  0.85910  0.47020  Biso   1.000  H
  H15      1.0000 0.42630  0.64090  0.97020  Biso   1.000  H
  H16      1.0000 0.57370  0.14090  0.52980  Biso   1.000  H
  C53      1.0000 0.73690  0.35629  0.48106  Biso   1.000  C
  C54      1.0000 0.26310  0.85629  0.01894  Biso   1.000  C
  C55      1.0000 0.26310  0.64371  0.51894  Biso   1.000  C
  C56      1.0000 0.73690  0.14371  0.98106  Biso   1.000  C
  H17      1.0000 0.79020  0.34250  0.46940  Biso   1.000  H
  H18      1.0000 0.20980  0.84250  0.03060  Biso   1.000  H
  H19      1.0000 0.20980  0.65750  0.53060  Biso   1.000  H
  H20      1.0000 0.79020  0.15750  0.96940  Biso   1.000  H
  C57      1.0000 0.70260  0.17747  0.69751  Biso   1.000  C
  C58      1.0000 0.29740  0.67747  0.80249  Biso   1.000  C
  C59      1.0000 0.29740  0.82253  0.30249  Biso   1.000  C
  C60      1.0000 0.70260  0.32253  0.19751  Biso   1.000  C
  H21      1.0000 0.64580  0.20080  0.69030  Biso   1.000  H
  H22      1.0000 0.35420  0.70080  0.80970  Biso   1.000  H
  H23      1.0000 0.35420  0.79920  0.30970  Biso   1.000  H
  H24      1.0000 0.64580  0.29920  0.19030  Biso   1.000  H
  H25      1.0000 0.69100  0.13580  0.68220  Biso   1.000  H
  H26      1.0000 0.30900  0.63580  0.81780  Biso   1.000  H
  H27      1.0000 0.30900  0.86420  0.31780  Biso   1.000  H
  H28      1.0000 0.69100  0.36420  0.18220  Biso   1.000  H
  C61      1.0000 0.20740  0.13144  0.71804  Biso   1.000  C
  C62      1.0000 0.79260  0.63144  0.78196  Biso   1.000  C
  C63      1.0000 0.79260  0.86856  0.28196  Biso   1.000  C
  C64      1.0000 0.20740  0.36856  0.21804  Biso   1.000  C
  H29      1.0000 0.26200  0.12450  0.70480  Biso   1.000  H
  H30      1.0000 0.73800  0.62450  0.79520  Biso   1.000  H
  H31      1.0000 0.73800  0.87550  0.29520  Biso   1.000  H
  H32      1.0000 0.26200  0.37550  0.20480  Biso   1.000  H
  C65      1.0000 0.50320  0.40671  0.21201  Biso   1.000  C
  C66      1.0000 0.49680  0.90671  0.28799  Biso   1.000  C
  C67      1.0000 0.49680  0.59329  0.78799  Biso   1.000  C
  C68      1.0000 0.50320  0.09329  0.71201  Biso   1.000  C
  H33      1.0000 0.50500  0.41830  0.17590  Biso   1.000  H
  H34      1.0000 0.49500  0.91830  0.32410  Biso   1.000  H
  H35      1.0000 0.49500  0.58170  0.82410  Biso   1.000  H
  H36      1.0000 0.50500  0.08170  0.67590  Biso   1.000  H
  C69      1.0000 0.50170  0.37322  0.31777  Biso   1.000  C
  C70      1.0000 0.49830  0.87322  0.18223  Biso   1.000  C
  C71      1.0000 0.49830  0.62678  0.68223  Biso   1.000  C
  C72      1.0000 0.50170  0.12678  0.81777  Biso   1.000  C
  H37      1.0000 0.50120  0.35990  0.35360  Biso   1.000  H
  H38      1.0000 0.49880  0.85990  0.14640  Biso   1.000  H
  H39      1.0000 0.49880  0.64010  0.64640  Biso   1.000  H
  H40      1.0000 0.50120  0.14010  0.85360  Biso   1.000  H
  C73      1.0000 0.64480  0.35823  0.54617  Biso   1.000  C
  C74      1.0000 0.35520  0.85823  0.95383  Biso   1.000  C
  C75      1.0000 0.35520  0.64177  0.45383  Biso   1.000  C
  C76      1.0000 0.64480  0.14177  0.04617  Biso   1.000  C
  H41      1.0000 0.63270  0.34560  0.58040  Biso   1.000  H
  H42      1.0000 0.36730  0.84560  0.91960  Biso   1.000  H
  H43      1.0000 0.36730  0.65440  0.41960  Biso   1.000  H
  H44      1.0000 0.63270  0.15440  0.08040  Biso   1.000  H
  C77      1.0000 0.73110  0.17185  0.75889  Biso   1.000  C
  C78      1.0000 0.26890  0.67185  0.74111  Biso   1.000  C
  C79      1.0000 0.26890  0.82815  0.24111  Biso   1.000  C
  C80      1.0000 0.73110  0.32815  0.25889  Biso   1.000  C
  H45      1.0000 0.78890  0.14980  0.76600  Biso   1.000  H
  H46      1.0000 0.21110  0.64980  0.73400  Biso   1.000  H
  H47      1.0000 0.21110  0.85020  0.23400  Biso   1.000  H
  H48      1.0000 0.78890  0.35020  0.26600  Biso   1.000  H
  H49      1.0000 0.68620  0.14660  0.77370  Biso   1.000  H
  H50      1.0000 0.31380  0.64660  0.72630  Biso   1.000  H
  H51      1.0000 0.31380  0.85340  0.22630  Biso   1.000  H
  H52      1.0000 0.68620  0.35340  0.27370  Biso   1.000  H
  C81      1.0000 0.29850  0.12668  0.91494  Biso   1.000  C
  C82      1.0000 0.70150  0.62668  0.58506  Biso   1.000  C
  C83      1.0000 0.70150  0.87332  0.08506  Biso   1.000  C
  C84      1.0000 0.29850  0.37332  0.41494  Biso   1.000  C
  H53      1.0000 0.29870  0.14480  0.88070  Biso   1.000  H
  H54      1.0000 0.70130  0.64480  0.61930  Biso   1.000  H
  H55      1.0000 0.70130  0.85520  0.11930  Biso   1.000  H
  H56      1.0000 0.29870  0.35520  0.38070  Biso   1.000  H
  C85      1.0000 0.22280  0.16636  0.20879  Biso   1.000  C
  C86      1.0000 0.77720  0.66636  0.29121  Biso   1.000  C
  C87      1.0000 0.77720  0.83364  0.79121  Biso   1.000  C
  C88      1.0000 0.22280  0.33364  0.70879  Biso   1.000  C
  H57      1.0000 0.16160  0.16680  0.18800  Biso   1.000  H
  H58      1.0000 0.83840  0.66680  0.31200  Biso   1.000  H
  H59      1.0000 0.83840  0.83320  0.81200  Biso   1.000  H
  H60      1.0000 0.16160  0.33320  0.68800  Biso   1.000  H
  H61      1.0000 0.22210  0.19060  0.24200  Biso   1.000  H
  H62      1.0000 0.77790  0.69060  0.25800  Biso   1.000  H
  H63      1.0000 0.77790  0.80940  0.75800  Biso   1.000  H
  H64      1.0000 0.22210  0.30940  0.74200  Biso   1.000  H
  C89      1.0000 0.29750  0.07892  0.01663  Biso   1.000  C
  C90      1.0000 0.70250  0.57892  0.48337  Biso   1.000  C
  C91      1.0000 0.70250  0.92108  0.98337  Biso   1.000  C
  C92      1.0000 0.29750  0.42108  0.51663  Biso   1.000  C
  H65      1.0000 0.29640  0.06240  0.05140  Biso   1.000  H
  H66      1.0000 0.70360  0.56240  0.44860  Biso   1.000  H
  H67      1.0000 0.70360  0.93760  0.94860  Biso   1.000  H
  H68      1.0000 0.29640  0.43760  0.55140  Biso   1.000  H
  C93      1.0000 0.26750  0.04195  0.97162  Biso   1.000  C
  C94      1.0000 0.73250  0.54195  0.52838  Biso   1.000  C
  C95      1.0000 0.73250  0.95805  0.02838  Biso   1.000  C
  C96      1.0000 0.26750  0.45805  0.47162  Biso   1.000  C
  H69      1.0000 0.24610  0.00150  0.97610  Biso   1.000  H
  H70      1.0000 0.75390  0.50150  0.52390  Biso   1.000  H
  H71      1.0000 0.75390  0.99850  0.02390  Biso   1.000  H
  H72      1.0000 0.24610  0.49850  0.47610  Biso   1.000  H
  C97      1.0000 0.32740  0.16010  0.96266  Biso   1.000  C
  C98      1.0000 0.67260  0.66010  0.53734  Biso   1.000  C
  C99      1.0000 0.67260  0.83990  0.03734  Biso   1.000  C
  C100     1.0000 0.32740  0.33990  0.46266  Biso   1.000  C
  H73      1.0000 0.34740  0.20110  0.95940  Biso   1.000  H
  H74      1.0000 0.65260  0.70110  0.54060  Biso   1.000  H
  H75      1.0000 0.65260  0.79890  0.04060  Biso   1.000  H
  H76      1.0000 0.34740  0.29890  0.45940  Biso   1.000  H
  C101     1.0000 0.58860  0.12577  0.20049  Biso   1.000  C
  C102     1.0000 0.41140  0.62577  0.29951  Biso   1.000  C
  C103     1.0000 0.41140  0.87423  0.79951  Biso   1.000  C
  C104     1.0000 0.58860  0.37423  0.70049  Biso   1.000  C
  H77      1.0000 0.64860  0.14490  0.20400  Biso   1.000  H
  H78      1.0000 0.35140  0.64490  0.29600  Biso   1.000  H
  H79      1.0000 0.35140  0.85510  0.79600  Biso   1.000  H
  H80      1.0000 0.64860  0.35510  0.70400  Biso   1.000  H
  H81      1.0000 0.59100  0.08570  0.18210  Biso   1.000  H
  H82      1.0000 0.40900  0.58570  0.31790  Biso   1.000  H
  H83      1.0000 0.40900  0.91430  0.81790  Biso   1.000  H
  H84      1.0000 0.59100  0.41430  0.68210  Biso   1.000  H
  C105     1.0000 0.28690  0.19610  0.17562  Biso   1.000  C
  C106     1.0000 0.71310  0.69610  0.32438  Biso   1.000  C
  C107     1.0000 0.71310  0.80390  0.82438  Biso   1.000  C
  C108     1.0000 0.28690  0.30390  0.67562  Biso   1.000  C
  C109     1.0000 0.53490  0.44852  0.25325  Biso   1.000  C
  C110     1.0000 0.46510  0.94852  0.24675  Biso   1.000  C
  C111     1.0000 0.46510  0.55148  0.74675  Biso   1.000  C
  C112     1.0000 0.53490  0.05148  0.75325  Biso   1.000  C
  H85      1.0000 0.55770  0.48730  0.24480  Biso   1.000  H
  H86      1.0000 0.44230  0.98730  0.25520  Biso   1.000  H
  H87      1.0000 0.44230  0.51270  0.75520  Biso   1.000  H
  H88      1.0000 0.55770  0.01270  0.74480  Biso   1.000  H
  C113     1.0000 0.47160  0.33448  0.27401  Biso   1.000  C
  C114     1.0000 0.52840  0.83448  0.22599  Biso   1.000  C
  C115     1.0000 0.52840  0.66552  0.72599  Biso   1.000  C
  C116     1.0000 0.47160  0.16552  0.77401  Biso   1.000  C
  H89      1.0000 0.45080  0.29470  0.28140  Biso   1.000  H
  H90      1.0000 0.54920  0.79470  0.21860  Biso   1.000  H
  H91      1.0000 0.54920  0.70530  0.71860  Biso   1.000  H
  H92      1.0000 0.45080  0.20530  0.78140  Biso   1.000  H
  C117     1.0000 0.18370  0.06716  0.25530  Biso   1.000  C
  C118     1.0000 0.81630  0.56716  0.24470  Biso   1.000  C
  C119     1.0000 0.81630  0.93284  0.74470  Biso   1.000  C
  C120     1.0000 0.18370  0.43284  0.75530  Biso   1.000  C
  H93      1.0000 0.12320  0.06910  0.23360  Biso   1.000  H
  H94      1.0000 0.87680  0.56910  0.26640  Biso   1.000  H
  H95      1.0000 0.87680  0.93090  0.76640  Biso   1.000  H
  H96      1.0000 0.12320  0.43090  0.73360  Biso   1.000  H
  H97      1.0000 0.18180  0.09010  0.28900  Biso   1.000  H
  H98      1.0000 0.81820  0.59010  0.21100  Biso   1.000  H
  H99      1.0000 0.81820  0.90990  0.71100  Biso   1.000  H
  H100     1.0000 0.18180  0.40990  0.78900  Biso   1.000  H
  C121     1.0000 0.11050  0.11577  0.78385  Biso   1.000  C
  C122     1.0000 0.88950  0.61577  0.71615  Biso   1.000  C
  C123     1.0000 0.88950  0.88423  0.21615  Biso   1.000  C
  C124     1.0000 0.11050  0.38423  0.28385  Biso   1.000  C
  H101     1.0000 0.09790  0.09850  0.81640  Biso   1.000  H
  H102     1.0000 0.90210  0.59850  0.68360  Biso   1.000  H
  H103     1.0000 0.90210  0.90150  0.18360  Biso   1.000  H
  H104     1.0000 0.09790  0.40150  0.31640  Biso   1.000  H
  C125     1.0000 0.92860  0.39727  0.78449  Biso   1.000  C
  C126     1.0000 0.07140  0.89727  0.71551  Biso   1.000  C
  C127     1.0000 0.07140  0.60273  0.21551  Biso   1.000  C
  C128     1.0000 0.92860  0.10273  0.28449  Biso   1.000  C
  H105     1.0000 0.99380  0.38980  0.78790  Biso   1.000  H
  H106     1.0000 0.00620  0.88980  0.71210  Biso   1.000  H
  H107     1.0000 0.00620  0.61020  0.21210  Biso   1.000  H
  H108     1.0000 0.99380  0.11020  0.28790  Biso   1.000  H
  H109     1.0000 0.90110  0.36090  0.79890  Biso   1.000  H
  H110     1.0000 0.09890  0.86090  0.70110  Biso   1.000  H
  H111     1.0000 0.09890  0.63910  0.20110  Biso   1.000  H
  H112     1.0000 0.90110  0.13910  0.29890  Biso   1.000  H
  C129     1.0000 0.62780  0.07256  0.29420  Biso   1.000  C
  C130     1.0000 0.37220  0.57256  0.20580  Biso   1.000  C
  C131     1.0000 0.37220  0.92744  0.70580  Biso   1.000  C
  C132     1.0000 0.62780  0.42744  0.79420  Biso   1.000  C
  H113     1.0000 0.68820  0.09130  0.30040  Biso   1.000  H
  H114     1.0000 0.31180  0.59130  0.19960  Biso   1.000  H
  H115     1.0000 0.31180  0.90870  0.69960  Biso   1.000  H
  H116     1.0000 0.68820  0.40870  0.80040  Biso   1.000  H
  H117     1.0000 0.63210  0.03270  0.27570  Biso   1.000  H
  H118     1.0000 0.36790  0.53270  0.22430  Biso   1.000  H
  H119     1.0000 0.36790  0.96730  0.72430  Biso   1.000  H
  H120     1.0000 0.63210  0.46730  0.77570  Biso   1.000  H
  C133     1.0000 0.56320  0.11545  0.25731  Biso   1.000  C
  C134     1.0000 0.43680  0.61545  0.24269  Biso   1.000  C
  C135     1.0000 0.43680  0.88455  0.74269  Biso   1.000  C
  C136     1.0000 0.56320  0.38455  0.75731  Biso   1.000  C
  H121     1.0000 0.56160  0.15580  0.27520  Biso   1.000  H
  H122     1.0000 0.43840  0.65580  0.22480  Biso   1.000  H
  H123     1.0000 0.43840  0.84420  0.72480  Biso   1.000  H
  H124     1.0000 0.56160  0.34420  0.77520  Biso   1.000  H
  H125     1.0000 0.50230  0.09780  0.25310  Biso   1.000  H
  H126     1.0000 0.49770  0.59780  0.24690  Biso   1.000  H
  H127     1.0000 0.49770  0.90220  0.74690  Biso   1.000  H
  H128     1.0000 0.50230  0.40220  0.75310  Biso   1.000  H
  C137     1.0000 0.25010  0.09894  0.22410  Biso   1.000  C
  C138     1.0000 0.74990  0.59894  0.27590  Biso   1.000  C
  C139     1.0000 0.74990  0.90106  0.77590  Biso   1.000  C
  C140     1.0000 0.25010  0.40106  0.72410  Biso   1.000  C
  H129     1.0000 0.25370  0.07530  0.19090  Biso   1.000  H
  H130     1.0000 0.74630  0.57530  0.30910  Biso   1.000  H
  H131     1.0000 0.74630  0.92470  0.80910  Biso   1.000  H
  H132     1.0000 0.25370  0.42470  0.69090  Biso   1.000  H
  H133     1.0000 0.31020  0.09880  0.24630  Biso   1.000  H
  H134     1.0000 0.68980  0.59880  0.25370  Biso   1.000  H
  H135     1.0000 0.68980  0.90120  0.75370  Biso   1.000  H
  H136     1.0000 0.31020  0.40120  0.74630  Biso   1.000  H
  C141     1.0000 0.88910  0.40573  0.72490  Biso   1.000  C
  C142     1.0000 0.11090  0.90573  0.77510  Biso   1.000  C
  C143     1.0000 0.11090  0.59427  0.27510  Biso   1.000  C
  C144     1.0000 0.88910  0.09427  0.22490  Biso   1.000  C
  H137     1.0000 0.91980  0.44110  0.71100  Biso   1.000  H
  H138     1.0000 0.08020  0.94110  0.78900  Biso   1.000  H
  H139     1.0000 0.08020  0.55890  0.28900  Biso   1.000  H
  H140     1.0000 0.91980  0.05890  0.21100  Biso   1.000  H
  H141     1.0000 0.82530  0.41710  0.72290  Biso   1.000  H
  H142     1.0000 0.17470  0.91710  0.77710  Biso   1.000  H
  H143     1.0000 0.17470  0.58290  0.27710  Biso   1.000  H
  H144     1.0000 0.82530  0.08290  0.22290  Biso   1.000  H
  C145     1.0000 0.74100  0.23433  0.78898  Biso   1.000  C
  C146     1.0000 0.25900  0.73433  0.71102  Biso   1.000  C
  C147     1.0000 0.25900  0.76567  0.21102  Biso   1.000  C
  C148     1.0000 0.74100  0.26567  0.28898  Biso   1.000  C
  H145     1.0000 0.79110  0.25750  0.77760  Biso   1.000  H
  H146     1.0000 0.20890  0.75750  0.72240  Biso   1.000  H
  H147     1.0000 0.20890  0.74250  0.22240  Biso   1.000  H
  H148     1.0000 0.79110  0.24250  0.27760  Biso   1.000  H
  H149     1.0000 0.68570  0.25860  0.77850  Biso   1.000  H
  H150     1.0000 0.31430  0.75860  0.72150  Biso   1.000  H
  H151     1.0000 0.31430  0.74140  0.22150  Biso   1.000  H
  H152     1.0000 0.68570  0.24140  0.27850  Biso   1.000  H
  C149     1.0000 0.91160  0.45524  0.81794  Biso   1.000  C
  C150     1.0000 0.08840  0.95524  0.68206  Biso   1.000  C
  C151     1.0000 0.08840  0.54476  0.18206  Biso   1.000  C
  C152     1.0000 0.91160  0.04476  0.31794  Biso   1.000  C
  H153     1.0000 0.93720  0.49150  0.80210  Biso   1.000  H
  H154     1.0000 0.06280  0.99150  0.69790  Biso   1.000  H
  H155     1.0000 0.06280  0.50850  0.19790  Biso   1.000  H
  H156     1.0000 0.93720  0.00850  0.30210  Biso   1.000  H
  H157     1.0000 0.84620  0.46180  0.81460  Biso   1.000  H
  H158     1.0000 0.15380  0.96180  0.68540  Biso   1.000  H
  H159     1.0000 0.15380  0.53820  0.18540  Biso   1.000  H
  H160     1.0000 0.84620  0.03820  0.31460  Biso   1.000  H
  C153     1.0000 0.75840  0.22730  0.85051  Biso   1.000  C
  C154     1.0000 0.24160  0.72730  0.64949  Biso   1.000  C
  C155     1.0000 0.24160  0.77270  0.14949  Biso   1.000  C
  C156     1.0000 0.75840  0.27270  0.35051  Biso   1.000  C
  H161     1.0000 0.81200  0.20120  0.86060  Biso   1.000  H
  H162     1.0000 0.18800  0.70120  0.63940  Biso   1.000  H
  H163     1.0000 0.18800  0.79880  0.13940  Biso   1.000  H
  H164     1.0000 0.81200  0.29880  0.36060  Biso   1.000  H
  H165     1.0000 0.70700  0.20540  0.86170  Biso   1.000  H
  H166     1.0000 0.29300  0.70540  0.63830  Biso   1.000  H
  H167     1.0000 0.29300  0.79460  0.13830  Biso   1.000  H
  H168     1.0000 0.70700  0.29460  0.36170  Biso   1.000  H
  C157     1.0000 0.95060  0.45210  0.87764  Biso   1.000  C
  C158     1.0000 0.04940  0.95210  0.62236  Biso   1.000  C
  C159     1.0000 0.04940  0.54790  0.12236  Biso   1.000  C
  C160     1.0000 0.95060  0.04790  0.37764  Biso   1.000  C
  H169     1.0000 0.01600  0.44540  0.88150  Biso   1.000  H
  H170     1.0000 0.98400  0.94540  0.61850  Biso   1.000  H
  H171     1.0000 0.98400  0.55460  0.11850  Biso   1.000  H
  H172     1.0000 0.01600  0.05460  0.38150  Biso   1.000  H
  H173     1.0000 0.92420  0.41670  0.89410  Biso   1.000  H
  H174     1.0000 0.07580  0.91670  0.60590  Biso   1.000  H
  H175     1.0000 0.07580  0.58330  0.10590  Biso   1.000  H
  H176     1.0000 0.92420  0.08330  0.39410  Biso   1.000  H
  C161     1.0000 0.56320  0.29163  0.97026  Biso   1.000  C
  C162     1.0000 0.43680  0.79163  0.52974  Biso   1.000  C
  C163     1.0000 0.43680  0.70837  0.02974  Biso   1.000  C
  C164     1.0000 0.56320  0.20837  0.47026  Biso   1.000  C
  H177     1.0000 0.56200  0.24610  0.96960  Biso   1.000  H
  H178     1.0000 0.43800  0.74610  0.53040  Biso   1.000  H
  H179     1.0000 0.43800  0.75390  0.03040  Biso   1.000  H
  H180     1.0000 0.56200  0.25390  0.46960  Biso   1.000  H
  H181     1.0000 0.61450  0.30520  0.95320  Biso   1.000  H
  H182     1.0000 0.38550  0.80520  0.54680  Biso   1.000  H
  H183     1.0000 0.38550  0.69480  0.04680  Biso   1.000  H
  H184     1.0000 0.61450  0.19480  0.45320  Biso   1.000  H
  C165     1.0000 0.47560  0.31621  0.93691  Biso   1.000  C
  C166     1.0000 0.52440  0.81621  0.56309  Biso   1.000  C
  C167     1.0000 0.52440  0.68379  0.06309  Biso   1.000  C
  C168     1.0000 0.47560  0.18379  0.43691  Biso   1.000  C
  H185     1.0000 0.42570  0.30890  0.95720  Biso   1.000  H
  H186     1.0000 0.57430  0.80890  0.54280  Biso   1.000  H
  H187     1.0000 0.57430  0.69110  0.04280  Biso   1.000  H
  H188     1.0000 0.42570  0.19110  0.45720  Biso   1.000  H
  H189     1.0000 0.48110  0.36120  0.93240  Biso   1.000  H
  H190     1.0000 0.51890  0.86120  0.56760  Biso   1.000  H
  H191     1.0000 0.51890  0.63880  0.06760  Biso   1.000  H
  H192     1.0000 0.48110  0.13880  0.43240  Biso   1.000  H
  C169     1.0000 0.20660  0.99910  0.26940  Biso   1.000  C
  C170     1.0000 0.79340  0.49910  0.23060  Biso   1.000  C
  C171     1.0000 0.79340  0.00090  0.73060  Biso   1.000  C
  C172     1.0000 0.20660  0.50090  0.76940  Biso   1.000  C
  H193     1.0000 0.26340  0.99720  0.29490  Biso   1.000  H
  H194     1.0000 0.73660  0.49720  0.20510  Biso   1.000  H
  H195     1.0000 0.73660  0.00280  0.70510  Biso   1.000  H
  H196     1.0000 0.26340  0.50280  0.79490  Biso   1.000  H
  H197     1.0000 0.21540  0.97680  0.23630  Biso   1.000  H
  H198     1.0000 0.78460  0.47680  0.26370  Biso   1.000  H
  H199     1.0000 0.78460  0.02320  0.76370  Biso   1.000  H
  H200     1.0000 0.21540  0.52320  0.73630  Biso   1.000  H
  C173     1.0000 0.65900  0.01660  0.38600  Biso   1.000  C
  C174     1.0000 0.34100  0.51660  0.11400  Biso   1.000  C
  C175     1.0000 0.34100  0.98340  0.61400  Biso   1.000  C
  C176     1.0000 0.65900  0.48340  0.88600  Biso   1.000  C
  H201     1.0000 0.66540  0.97810  0.36680  Biso   1.000  H
  H202     1.0000 0.33460  0.47810  0.13320  Biso   1.000  H
  H203     1.0000 0.33460  0.02190  0.63320  Biso   1.000  H
  H204     1.0000 0.66540  0.52190  0.86680  Biso   1.000  H
  H205     1.0000 0.63320  0.00800  0.41860  Biso   1.000  H
  H206     1.0000 0.36680  0.50800  0.08140  Biso   1.000  H
  H207     1.0000 0.36680  0.99200  0.58140  Biso   1.000  H
  H208     1.0000 0.63320  0.49200  0.91860  Biso   1.000  H
  H209     1.0000 0.71790  0.03570  0.39600  Biso   1.000  H
  H210     1.0000 0.28210  0.53570  0.10400  Biso   1.000  H
  H211     1.0000 0.28210  0.96430  0.60400  Biso   1.000  H
  H212     1.0000 0.71790  0.46430  0.89600  Biso   1.000  H
  C177     1.0000 0.59680  0.06082  0.34931  Biso   1.000  C
  C178     1.0000 0.40320  0.56082  0.15069  Biso   1.000  C
  C179     1.0000 0.40320  0.93918  0.65069  Biso   1.000  C
  C180     1.0000 0.59680  0.43918  0.84931  Biso   1.000  C
  H213     1.0000 0.59410  0.10060  0.36810  Biso   1.000  H
  H214     1.0000 0.40590  0.60060  0.13190  Biso   1.000  H
  H215     1.0000 0.40590  0.89940  0.63190  Biso   1.000  H
  H216     1.0000 0.59410  0.39940  0.86810  Biso   1.000  H
  H217     1.0000 0.53560  0.04340  0.34290  Biso   1.000  H
  H218     1.0000 0.46440  0.54340  0.15710  Biso   1.000  H
  H219     1.0000 0.46440  0.95660  0.65710  Biso   1.000  H
  H220     1.0000 0.53560  0.45660  0.84290  Biso   1.000  H
  C181     1.0000 0.93240  0.51160  0.90790  Biso   1.000  C
  C182     1.0000 0.06760  0.01160  0.59210  Biso   1.000  C
  C183     1.0000 0.06760  0.48840  0.09210  Biso   1.000  C
  C184     1.0000 0.93240  0.98840  0.40790  Biso   1.000  C
  H221     1.0000 0.95880  0.54680  0.89190  Biso   1.000  H
  H222     1.0000 0.04120  0.04680  0.60810  Biso   1.000  H
  H223     1.0000 0.04120  0.45320  0.10810  Biso   1.000  H
  H224     1.0000 0.95880  0.95320  0.39190  Biso   1.000  H
  H225     1.0000 0.95920  0.50790  0.94580  Biso   1.000  H
  H226     1.0000 0.04080  0.00790  0.55420  Biso   1.000  H
  H227     1.0000 0.04080  0.49210  0.05420  Biso   1.000  H
  H228     1.0000 0.95920  0.99210  0.44580  Biso   1.000  H
  H229     1.0000 0.86770  0.51770  0.90530  Biso   1.000  H
  H230     1.0000 0.13230  0.01770  0.59470  Biso   1.000  H
  H231     1.0000 0.13230  0.48230  0.09470  Biso   1.000  H
  H232     1.0000 0.86770  0.98230  0.40530  Biso   1.000  H
  C185     1.0000 0.45220  0.28640  0.88088  Biso   1.000  C
  C186     1.0000 0.54780  0.78640  0.61912  Biso   1.000  C
  C187     1.0000 0.54780  0.71360  0.11912  Biso   1.000  C
  C188     1.0000 0.45220  0.21360  0.38088  Biso   1.000  C
  H233     1.0000 0.50290  0.29280  0.86100  Biso   1.000  H
  H234     1.0000 0.49710  0.79280  0.63900  Biso   1.000  H
  H235     1.0000 0.49710  0.70720  0.13900  Biso   1.000  H
  H236     1.0000 0.50290  0.20720  0.36100  Biso   1.000  H
  H237     1.0000 0.44540  0.24150  0.88550  Biso   1.000  H
  H238     1.0000 0.55460  0.74150  0.61450  Biso   1.000  H
  H239     1.0000 0.55460  0.75850  0.11450  Biso   1.000  H
  H240     1.0000 0.44540  0.25850  0.38550  Biso   1.000  H
  C189     1.0000 0.74530  0.06050  0.54900  Biso   1.000  C
  C190     1.0000 0.25470  0.56050  0.95100  Biso   1.000  C
  C191     1.0000 0.25470  0.93950  0.45100  Biso   1.000  C
  C192     1.0000 0.74530  0.43950  0.04900  Biso   1.000  C
  H241     1.0000 0.70850  0.07970  0.51730  Biso   1.000  H
  H242     1.0000 0.29150  0.57970  0.98270  Biso   1.000  H
  H243     1.0000 0.29150  0.92030  0.48270  Biso   1.000  H
  H244     1.0000 0.70850  0.42030  0.01730  Biso   1.000  H
  H245     1.0000 0.74640  0.08950  0.57940  Biso   1.000  H
  H246     1.0000 0.25360  0.58950  0.92060  Biso   1.000  H
  H247     1.0000 0.25360  0.91050  0.42060  Biso   1.000  H
  H248     1.0000 0.74640  0.41050  0.07940  Biso   1.000  H
  C193     1.0000 0.83540  0.05510  0.53770  Biso   1.000  C
  C194     1.0000 0.16460  0.55510  0.96230  Biso   1.000  C
  C195     1.0000 0.16460  0.94490  0.46230  Biso   1.000  C
  C196     1.0000 0.83540  0.44490  0.03770  Biso   1.000  C
  H249     1.0000 0.83660  0.02100  0.51170  Biso   1.000  H
  H250     1.0000 0.16340  0.52100  0.98830  Biso   1.000  H
  H251     1.0000 0.16340  0.97900  0.48830  Biso   1.000  H
  H252     1.0000 0.83660  0.47900  0.01170  Biso   1.000  H
  H253     1.0000 0.87450  0.04290  0.57130  Biso   1.000  H
  H254     1.0000 0.12550  0.54290  0.92870  Biso   1.000  H
  H255     1.0000 0.12550  0.95710  0.42870  Biso   1.000  H
  H256     1.0000 0.87450  0.45710  0.07130  Biso   1.000  H
  C197     1.0000 0.07670  0.28280  0.90840  Biso   1.000  C
  C198     1.0000 0.92330  0.78280  0.59160  Biso   1.000  C
  C199     1.0000 0.92330  0.71720  0.09160  Biso   1.000  C
  C200     1.0000 0.07670  0.21720  0.40840  Biso   1.000  C
  H257     1.0000 0.02760  0.31330  0.90140  Biso   1.000  H
  H258     1.0000 0.97240  0.81330  0.59860  Biso   1.000  H
  H259     1.0000 0.97240  0.68670  0.09860  Biso   1.000  H
  H260     1.0000 0.02760  0.18670  0.40140  Biso   1.000  H
  H261     1.0000 0.12130  0.29550  0.88570  Biso   1.000  H
  H262     1.0000 0.87870  0.79550  0.61430  Biso   1.000  H
  H263     1.0000 0.87870  0.70450  0.11430  Biso   1.000  H
  H264     1.0000 0.12130  0.20450  0.38570  Biso   1.000  H
  C201     1.0000 0.77270  0.28820  0.88220  Biso   1.000  C
  C202     1.0000 0.22730  0.78820  0.61780  Biso   1.000  C
  C203     1.0000 0.22730  0.71180  0.11780  Biso   1.000  C
  C204     1.0000 0.77270  0.21180  0.38220  Biso   1.000  C
  H265     1.0000 0.82360  0.31030  0.87160  Biso   1.000  H
  H266     1.0000 0.17640  0.81030  0.62840  Biso   1.000  H
  H267     1.0000 0.17640  0.68970  0.12840  Biso   1.000  H
  H268     1.0000 0.82360  0.18970  0.37160  Biso   1.000  H
  H269     1.0000 0.78480  0.27930  0.92080  Biso   1.000  H
  H270     1.0000 0.21520  0.77930  0.57920  Biso   1.000  H
  H271     1.0000 0.21520  0.72070  0.07920  Biso   1.000  H
  H272     1.0000 0.78480  0.22070  0.42080  Biso   1.000  H
  H273     1.0000 0.71880  0.31360  0.87420  Biso   1.000  H
  H274     1.0000 0.28120  0.81360  0.62580  Biso   1.000  H
  H275     1.0000 0.28120  0.68640  0.12580  Biso   1.000  H
  H276     1.0000 0.71880  0.18640  0.37420  Biso   1.000  H
  C205     1.0000 0.87820  0.11363  0.51448  Biso   1.000  C
  C206     1.0000 0.12180  0.61363  0.98552  Biso   1.000  C
  C207     1.0000 0.12180  0.88637  0.48552  Biso   1.000  C
  C208     1.0000 0.87820  0.38637  0.01448  Biso   1.000  C
  H277     1.0000 0.93950  0.10350  0.50830  Biso   1.000  H
  H278     1.0000 0.06050  0.60350  0.99170  Biso   1.000  H
  H279     1.0000 0.06050  0.89650  0.49170  Biso   1.000  H
  H280     1.0000 0.93950  0.39650  0.00830  Biso   1.000  H
  H281     1.0000 0.84250  0.12470  0.47940  Biso   1.000  H
  H282     1.0000 0.15750  0.62470  0.02060  Biso   1.000  H
  H283     1.0000 0.15750  0.87530  0.52060  Biso   1.000  H
  H284     1.0000 0.84250  0.37530  0.97940  Biso   1.000  H
  C209     1.0000 0.13190  0.96690  0.29470  Biso   1.000  C
  C210     1.0000 0.86810  0.46690  0.20530  Biso   1.000  C
  C211     1.0000 0.86810  0.03310  0.70530  Biso   1.000  C
  C212     1.0000 0.13190  0.53310  0.79470  Biso   1.000  C
  H285     1.0000 0.12380  0.98830  0.32780  Biso   1.000  H
  H286     1.0000 0.87620  0.48830  0.17220  Biso   1.000  H
  H287     1.0000 0.87620  0.01170  0.67220  Biso   1.000  H
  H288     1.0000 0.12380  0.51170  0.82780  Biso   1.000  H
  H289     1.0000 0.14890  0.92410  0.30300  Biso   1.000  H
  H290     1.0000 0.85110  0.42410  0.19700  Biso   1.000  H
  H291     1.0000 0.85110  0.07590  0.69700  Biso   1.000  H
  H292     1.0000 0.14890  0.57590  0.80300  Biso   1.000  H
  H293     1.0000 0.07580  0.96800  0.26930  Biso   1.000  H
  H294     1.0000 0.92420  0.46800  0.23070  Biso   1.000  H
  H295     1.0000 0.92420  0.03200  0.73070  Biso   1.000  H
  H296     1.0000 0.07580  0.53200  0.76930  Biso   1.000  H
  C213     1.0000 0.16620  0.34540  0.98490  Biso   1.000  C
  C214     1.0000 0.83380  0.84540  0.51510  Biso   1.000  C
  C215     1.0000 0.83380  0.65460  0.01510  Biso   1.000  C
  C216     1.0000 0.16620  0.15460  0.48490  Biso   1.000  C
  H297     1.0000 0.12490  0.38000  0.97370  Biso   1.000  H
  H298     1.0000 0.87510  0.88000  0.52630  Biso   1.000  H
  H299     1.0000 0.87510  0.62000  0.02630  Biso   1.000  H
  H300     1.0000 0.12490  0.12000  0.47370  Biso   1.000  H
  H301     1.0000 0.21520  0.34930  0.96340  Biso   1.000  H
  H302     1.0000 0.78480  0.84930  0.53660  Biso   1.000  H
  H303     1.0000 0.78480  0.65070  0.03660  Biso   1.000  H
  H304     1.0000 0.21520  0.15070  0.46340  Biso   1.000  H
  C217     1.0000 0.20820  0.36090  0.04109  Biso   1.000  C
  C218     1.0000 0.79180  0.86090  0.45891  Biso   1.000  C
  C219     1.0000 0.79180  0.63910  0.95891  Biso   1.000  C
  C220     1.0000 0.20820  0.13910  0.54109  Biso   1.000  C
  H305     1.0000 0.15950  0.36510  0.06290  Biso   1.000  H
  H306     1.0000 0.84050  0.86510  0.43710  Biso   1.000  H
  H307     1.0000 0.84050  0.63490  0.93710  Biso   1.000  H
  H308     1.0000 0.15950  0.13490  0.56290  Biso   1.000  H
  H309     1.0000 0.23650  0.40180  0.04020  Biso   1.000  H
  H310     1.0000 0.76350  0.90180  0.45980  Biso   1.000  H
  H311     1.0000 0.76350  0.59820  0.95980  Biso   1.000  H
  H312     1.0000 0.23650  0.09820  0.54020  Biso   1.000  H
  C221     1.0000 0.12110  0.29510  0.96560  Biso   1.000  C
  C222     1.0000 0.87890  0.79510  0.53440  Biso   1.000  C
  C223     1.0000 0.87890  0.70490  0.03440  Biso   1.000  C
  C224     1.0000 0.12110  0.20490  0.46560  Biso   1.000  C
  H313     1.0000 0.07330  0.28980  0.98790  Biso   1.000  H
  H314     1.0000 0.92670  0.78980  0.51210  Biso   1.000  H
  H315     1.0000 0.92670  0.71020  0.01210  Biso   1.000  H
  H316     1.0000 0.07330  0.21020  0.48790  Biso   1.000  H
  H317     1.0000 0.16310  0.26040  0.97500  Biso   1.000  H
  H318     1.0000 0.83690  0.76040  0.52500  Biso   1.000  H
  H319     1.0000 0.83690  0.73960  0.02500  Biso   1.000  H
  H320     1.0000 0.16310  0.23960  0.47500  Biso   1.000  H
  C225     1.0000 0.14140  0.16948  0.68975  Biso   1.000  C
  C226     1.0000 0.85860  0.66948  0.81025  Biso   1.000  C
  C227     1.0000 0.85860  0.83052  0.31025  Biso   1.000  C
  C228     1.0000 0.14140  0.33052  0.18975  Biso   1.000  C
  H321     1.0000 0.15300  0.18820  0.65750  Biso   1.000  H
  H322     1.0000 0.84700  0.68820  0.84250  Biso   1.000  H
  H323     1.0000 0.84700  0.81180  0.34250  Biso   1.000  H
  H324     1.0000 0.15300  0.31180  0.15750  Biso   1.000  H
  C229     1.0000 0.00880  0.31556  0.57307  Biso   1.000  C
  C230     1.0000 0.99120  0.81556  0.92693  Biso   1.000  C
  C231     1.0000 0.99120  0.68444  0.42693  Biso   1.000  C
  C232     1.0000 0.00880  0.18444  0.07307  Biso   1.000  C
  C233     1.0000 0.04760  0.15383  0.75275  Biso   1.000  C
  C234     1.0000 0.95240  0.65383  0.74725  Biso   1.000  C
  C235     1.0000 0.95240  0.84617  0.24725  Biso   1.000  C
  C236     1.0000 0.04760  0.34617  0.25275  Biso   1.000  C
  H325     1.0000 0.99230  0.16110  0.76490  Biso   1.000  H
  H326     1.0000 0.00770  0.66110  0.73510  Biso   1.000  H
  H327     1.0000 0.00770  0.83890  0.23510  Biso   1.000  H
  H328     1.0000 0.99230  0.33890  0.26490  Biso   1.000  H
  C237     1.0000 0.07680  0.35460  0.54880  Biso   1.000  C
  C238     1.0000 0.92320  0.85460  0.95120  Biso   1.000  C
  C239     1.0000 0.92320  0.64540  0.45120  Biso   1.000  C
  C240     1.0000 0.07680  0.14540  0.04880  Biso   1.000  C
  H329     1.0000 0.07620  0.34230  0.51090  Biso   1.000  H
  H330     1.0000 0.92380  0.84230  0.98910  Biso   1.000  H
  H331     1.0000 0.92380  0.65770  0.48910  Biso   1.000  H
  H332     1.0000 0.07620  0.15770  0.01090  Biso   1.000  H
  H333     1.0000 0.13760  0.34680  0.56870  Biso   1.000  H
  H334     1.0000 0.86240  0.84680  0.93130  Biso   1.000  H
  H335     1.0000 0.86240  0.65320  0.43130  Biso   1.000  H
  H336     1.0000 0.13760  0.15320  0.06870  Biso   1.000  H
  C241     1.0000 0.69730  0.00250  0.56260  Biso   1.000  C
  C242     1.0000 0.30270  0.50250  0.93740  Biso   1.000  C
  C243     1.0000 0.30270  0.99750  0.43740  Biso   1.000  C
  C244     1.0000 0.69730  0.49750  0.06260  Biso   1.000  C
  H337     1.0000 0.69060  0.97550  0.53060  Biso   1.000  H
  H338     1.0000 0.30940  0.47550  0.96940  Biso   1.000  H
  H339     1.0000 0.30940  0.02450  0.46940  Biso   1.000  H
  H340     1.0000 0.69060  0.52450  0.03060  Biso   1.000  H
  H341     1.0000 0.73750  0.98090  0.59160  Biso   1.000  H
  H342     1.0000 0.26250  0.48090  0.90840  Biso   1.000  H
  H343     1.0000 0.26250  0.01910  0.40840  Biso   1.000  H
  H344     1.0000 0.73750  0.51910  0.09160  Biso   1.000  H
  C245     1.0000 0.36660  0.31120  0.84680  Biso   1.000  C
  C246     1.0000 0.63340  0.81120  0.65320  Biso   1.000  C
  C247     1.0000 0.63340  0.68880  0.15320  Biso   1.000  C
  C248     1.0000 0.36660  0.18880  0.34680  Biso   1.000  C
  H345     1.0000 0.31550  0.30360  0.86540  Biso   1.000  H
  H346     1.0000 0.68450  0.80360  0.63460  Biso   1.000  H
  H347     1.0000 0.68450  0.69640  0.13460  Biso   1.000  H
  H348     1.0000 0.31550  0.19640  0.36540  Biso   1.000  H
  H349     1.0000 0.35690  0.29040  0.81180  Biso   1.000  H
  H350     1.0000 0.64310  0.79040  0.68820  Biso   1.000  H
  H351     1.0000 0.64310  0.70960  0.18820  Biso   1.000  H
  H352     1.0000 0.35690  0.20960  0.31180  Biso   1.000  H
  H353     1.0000 0.37280  0.35560  0.84140  Biso   1.000  H
  H354     1.0000 0.62720  0.85560  0.65860  Biso   1.000  H
  H355     1.0000 0.62720  0.64440  0.15860  Biso   1.000  H
  H356     1.0000 0.37280  0.14440  0.34140  Biso   1.000  H
  C249     1.0000 0.60910  0.00750  0.57970  Biso   1.000  C
  C250     1.0000 0.39090  0.50750  0.92030  Biso   1.000  C
  C251     1.0000 0.39090  0.99250  0.42030  Biso   1.000  C
  C252     1.0000 0.60910  0.49250  0.07970  Biso   1.000  C
  H357     1.0000 0.61130  0.03870  0.60790  Biso   1.000  H
  H358     1.0000 0.38870  0.53870  0.89210  Biso   1.000  H
  H359     1.0000 0.38870  0.96130  0.39210  Biso   1.000  H
  H360     1.0000 0.61130  0.46130  0.10790  Biso   1.000  H
  H361     1.0000 0.59260  0.96770  0.59360  Biso   1.000  H
  H362     1.0000 0.40740  0.46770  0.90640  Biso   1.000  H
  H363     1.0000 0.40740  0.03230  0.40640  Biso   1.000  H
  H364     1.0000 0.59260  0.53230  0.09360  Biso   1.000  H
  H365     1.0000 0.56440  0.01930  0.54890  Biso   1.000  H
  H366     1.0000 0.43560  0.51930  0.95110  Biso   1.000  H
  H367     1.0000 0.43560  0.98070  0.45110  Biso   1.000  H
  H368     1.0000 0.56440  0.48070  0.04890  Biso   1.000  H
  C253     1.0000 0.05550  0.42350  0.55120  Biso   1.000  C
  C254     1.0000 0.94450  0.92350  0.94880  Biso   1.000  C
  C255     1.0000 0.94450  0.57650  0.44880  Biso   1.000  C
  C256     1.0000 0.05550  0.07650  0.05120  Biso   1.000  C
  H369     1.0000 0.10130  0.44600  0.53490  Biso   1.000  H
  H370     1.0000 0.89870  0.94600  0.96510  Biso   1.000  H
  H371     1.0000 0.89870  0.55400  0.46510  Biso   1.000  H
  H372     1.0000 0.10130  0.05400  0.03490  Biso   1.000  H
  H373     1.0000 0.99740  0.43060  0.52790  Biso   1.000  H
  H374     1.0000 0.00260  0.93060  0.97210  Biso   1.000  H
  H375     1.0000 0.00260  0.56940  0.47210  Biso   1.000  H
  H376     1.0000 0.99740  0.06940  0.02790  Biso   1.000  H
  C257     1.0000 0.05100  0.45070  0.60090  Biso   1.000  C
  C258     1.0000 0.94900  0.95070  0.89910  Biso   1.000  C
  C259     1.0000 0.94900  0.54930  0.39910  Biso   1.000  C
  C260     1.0000 0.05100  0.04930  0.10090  Biso   1.000  C
  H377     1.0000 0.10830  0.44070  0.62420  Biso   1.000  H
  H378     1.0000 0.89170  0.94070  0.87580  Biso   1.000  H
  H379     1.0000 0.89170  0.55930  0.37580  Biso   1.000  H
  H380     1.0000 0.10830  0.05930  0.12420  Biso   1.000  H
  H381     1.0000 0.00390  0.42810  0.61600  Biso   1.000  H
  H382     1.0000 0.99610  0.92810  0.88400  Biso   1.000  H
  H383     1.0000 0.99610  0.57190  0.38400  Biso   1.000  H
  H384     1.0000 0.00390  0.07190  0.11600  Biso   1.000  H
  C261     1.0000 0.03380  0.52020  0.61010  Biso   1.000  C
  C262     1.0000 0.96620  0.02020  0.88990  Biso   1.000  C
  C263     1.0000 0.96620  0.47980  0.38990  Biso   1.000  C
  C264     1.0000 0.03380  0.97980  0.11010  Biso   1.000  C
  H385     1.0000 0.98040  0.53270  0.58440  Biso   1.000  H
  H386     1.0000 0.01960  0.03270  0.91560  Biso   1.000  H
  H387     1.0000 0.01960  0.46730  0.41560  Biso   1.000  H
  H388     1.0000 0.98040  0.96730  0.08440  Biso   1.000  H
  H389     1.0000 0.01880  0.52490  0.64670  Biso   1.000  H
  H390     1.0000 0.98120  0.02490  0.85330  Biso   1.000  H
  H391     1.0000 0.98120  0.47510  0.35330  Biso   1.000  H
  H392     1.0000 0.01880  0.97510  0.14670  Biso   1.000  H
  C265     1.0000 0.10100  0.56030  0.60490  Biso   1.000  C
  C266     1.0000 0.89900  0.06030  0.89510  Biso   1.000  C
  C267     1.0000 0.89900  0.43970  0.39510  Biso   1.000  C
  C268     1.0000 0.10100  0.93970  0.10490  Biso   1.000  C
  H393     1.0000 0.15410  0.54980  0.63090  Biso   1.000  H
  H394     1.0000 0.84590  0.04980  0.86910  Biso   1.000  H
  H395     1.0000 0.84590  0.45020  0.36910  Biso   1.000  H
  H396     1.0000 0.15410  0.95020  0.13090  Biso   1.000  H
  H397     1.0000 0.08190  0.60220  0.61170  Biso   1.000  H
  H398     1.0000 0.91810  0.10220  0.88830  Biso   1.000  H
  H399     1.0000 0.91810  0.39780  0.38830  Biso   1.000  H
  H400     1.0000 0.08190  0.89780  0.11170  Biso   1.000  H
  H401     1.0000 0.11540  0.55770  0.56840  Biso   1.000  H
  H402     1.0000 0.88460  0.05770  0.93160  Biso   1.000  H
  H403     1.0000 0.88460  0.44230  0.43160  Biso   1.000  H
  H404     1.0000 0.11540  0.94230  0.06840  Biso   1.000  H
  C269     1.0000 0.04410  0.23420  0.88770  Biso   1.000  C
  C270     1.0000 0.95590  0.73420  0.61230  Biso   1.000  C
  C271     1.0000 0.95590  0.76580  0.11230  Biso   1.000  C
  C272     1.0000 0.04410  0.26580  0.38770  Biso   1.000  C
  H405     1.0000 0.08880  0.20130  0.89410  Biso   1.000  H
  H406     1.0000 0.91120  0.70130  0.60590  Biso   1.000  H
  H407     1.0000 0.91120  0.79870  0.10590  Biso   1.000  H
  H408     1.0000 0.08880  0.29870  0.39410  Biso   1.000  H
  H409     1.0000 0.02630  0.24010  0.84890  Biso   1.000  H
  H410     1.0000 0.97370  0.74010  0.65110  Biso   1.000  H
  H411     1.0000 0.97370  0.75990  0.15110  Biso   1.000  H
  H412     1.0000 0.02630  0.25990  0.34890  Biso   1.000  H
  H413     1.0000 0.99150  0.22290  0.90380  Biso   1.000  H
  H414     1.0000 0.00850  0.72290  0.59620  Biso   1.000  H
  H415     1.0000 0.00850  0.77710  0.09620  Biso   1.000  H
  H416     1.0000 0.99150  0.27710  0.40380  Biso   1.000  H
