data_image0
_cell_length_a       29.396
_cell_length_b       12.47
_cell_length_c       19.186
_cell_angle_alpha    90
_cell_angle_beta     105.402
_cell_angle_gamma    90

_symmetry_space_group_name_H-M    "P 1"
_symmetry_int_tables_number       1

loop_
  _symmetry_equiv_pos_as_xyz
  'x, y, z'

loop_
  _atom_site_label
  _atom_site_occupancy
  _atom_site_fract_x
  _atom_site_fract_y
  _atom_site_fract_z
  _atom_site_thermal_displace_type
  _atom_site_B_iso_or_equiv
  _atom_site_type_symbol
  Cu1      1.0000 0.97591  0.57515  0.02407  Biso   1.000  Cu
  Cu2      1.0000 0.02408  0.57515  0.47593  Biso   1.000  Cu
  Cu3      1.0000 0.47591  0.07515  0.02407  Biso   1.000  Cu
  Cu4      1.0000 0.52408  0.07515  0.47593  Biso   1.000  Cu
  Cu5      1.0000 0.02408  0.42485  0.97593  Biso   1.000  Cu
  Cu6      1.0000 0.97591  0.42485  0.52407  Biso   1.000  Cu
  Cu7      1.0000 0.52408  0.92485  0.97593  Biso   1.000  Cu
  Cu8      1.0000 0.47591  0.92485  0.52407  Biso   1.000  Cu
  O1       1.0000 0.02869  0.66950  0.02260  Biso   1.000  O
  O2       1.0000 0.97131  0.66950  0.47740  Biso   1.000  O
  O3       1.0000 0.52869  0.16950  0.02260  Biso   1.000  O
  O4       1.0000 0.47131  0.16950  0.47740  Biso   1.000  O
  O5       1.0000 0.97131  0.33050  0.97740  Biso   1.000  O
  O6       1.0000 0.02869  0.33050  0.52260  Biso   1.000  O
  O7       1.0000 0.47131  0.83050  0.97740  Biso   1.000  O
  O8       1.0000 0.52869  0.83050  0.52260  Biso   1.000  O
  O9       1.0000 0.06914  0.54150  0.98195  Biso   1.000  O
  O10      1.0000 0.93086  0.54150  0.51805  Biso   1.000  O
  O11      1.0000 0.56914  0.04150  0.98195  Biso   1.000  O
  O12      1.0000 0.43086  0.04150  0.51805  Biso   1.000  O
  O13      1.0000 0.93086  0.45850  0.01805  Biso   1.000  O
  O14      1.0000 0.06914  0.45850  0.48195  Biso   1.000  O
  O15      1.0000 0.43086  0.95850  0.01805  Biso   1.000  O
  O16      1.0000 0.56914  0.95850  0.48195  Biso   1.000  O
  O17      1.0000 0.45067  0.90650  0.41917  Biso   1.000  O
  O18      1.0000 0.54933  0.90650  0.08083  Biso   1.000  O
  O19      1.0000 0.95067  0.40650  0.41917  Biso   1.000  O
  O20      1.0000 0.04933  0.40650  0.08083  Biso   1.000  O
  O21      1.0000 0.54933  0.09350  0.58083  Biso   1.000  O
  O22      1.0000 0.45067  0.09350  0.91917  Biso   1.000  O
  O23      1.0000 0.04933  0.59350  0.58083  Biso   1.000  O
  O24      1.0000 0.95067  0.59350  0.91917  Biso   1.000  O
  O25      1.0000 0.48874  0.03510  0.37636  Biso   1.000  O
  O26      1.0000 0.51126  0.03510  0.12364  Biso   1.000  O
  O27      1.0000 0.98874  0.53510  0.37636  Biso   1.000  O
  O28      1.0000 0.01126  0.53510  0.12364  Biso   1.000  O
  O29      1.0000 0.51126  0.96490  0.62364  Biso   1.000  O
  O30      1.0000 0.48874  0.96490  0.87636  Biso   1.000  O
  O31      1.0000 0.01126  0.46490  0.62364  Biso   1.000  O
  O32      1.0000 0.98874  0.46490  0.87636  Biso   1.000  O
  O33      1.0000 0.33268  0.18970  0.95342  Biso   1.000  O
  O34      1.0000 0.66732  0.18970  0.54658  Biso   1.000  O
  O35      1.0000 0.83268  0.68970  0.95342  Biso   1.000  O
  O36      1.0000 0.16732  0.68970  0.54658  Biso   1.000  O
  O37      1.0000 0.66732  0.81030  0.04658  Biso   1.000  O
  O38      1.0000 0.33268  0.81030  0.45342  Biso   1.000  O
  O39      1.0000 0.16732  0.31030  0.04658  Biso   1.000  O
  O40      1.0000 0.83268  0.31030  0.45342  Biso   1.000  O
  O41      1.0000 0.92780  0.69600  0.04512  Biso   1.000  O
  O42      1.0000 0.07220  0.69600  0.45488  Biso   1.000  O
  O43      1.0000 0.42780  0.19600  0.04512  Biso   1.000  O
  O44      1.0000 0.57220  0.19600  0.45488  Biso   1.000  O
  O45      1.0000 0.07220  0.30400  0.95488  Biso   1.000  O
  O46      1.0000 0.92780  0.30400  0.54512  Biso   1.000  O
  O47      1.0000 0.57220  0.80400  0.95488  Biso   1.000  O
  O48      1.0000 0.42780  0.80400  0.54512  Biso   1.000  O
  N1       1.0000 0.25636  0.14790  0.94714  Biso   1.000  N
  N2       1.0000 0.74364  0.14790  0.55286  Biso   1.000  N
  N3       1.0000 0.75636  0.64790  0.94714  Biso   1.000  N
  N4       1.0000 0.24364  0.64790  0.55286  Biso   1.000  N
  N5       1.0000 0.74364  0.85210  0.05286  Biso   1.000  N
  N6       1.0000 0.25636  0.85210  0.44714  Biso   1.000  N
  N7       1.0000 0.24364  0.35210  0.05286  Biso   1.000  N
  N8       1.0000 0.75636  0.35210  0.44714  Biso   1.000  N
  H1       1.0000 0.22790  0.16600  0.92550  Biso   1.000  H
  H2       1.0000 0.77210  0.16600  0.57450  Biso   1.000  H
  H3       1.0000 0.72790  0.66600  0.92550  Biso   1.000  H
  H4       1.0000 0.27210  0.66600  0.57450  Biso   1.000  H
  H5       1.0000 0.77210  0.83400  0.07450  Biso   1.000  H
  H6       1.0000 0.22790  0.83400  0.42550  Biso   1.000  H
  H7       1.0000 0.27210  0.33400  0.07450  Biso   1.000  H
  H8       1.0000 0.72790  0.33400  0.42550  Biso   1.000  H
  N9       1.0000 0.27251  0.26660  0.86930  Biso   1.000  N
  N10      1.0000 0.72749  0.26660  0.63070  Biso   1.000  N
  N11      1.0000 0.77251  0.76660  0.86930  Biso   1.000  N
  N12      1.0000 0.22749  0.76660  0.63070  Biso   1.000  N
  N13      1.0000 0.72749  0.73340  0.13070  Biso   1.000  N
  N14      1.0000 0.27251  0.73340  0.36930  Biso   1.000  N
  N15      1.0000 0.22749  0.23340  0.13070  Biso   1.000  N
  N16      1.0000 0.77251  0.23340  0.36930  Biso   1.000  N
  H9       1.0000 0.24220  0.26920  0.85600  Biso   1.000  H
  H10      1.0000 0.75780  0.26920  0.64400  Biso   1.000  H
  H11      1.0000 0.74220  0.76920  0.85600  Biso   1.000  H
  H12      1.0000 0.25780  0.76920  0.64400  Biso   1.000  H
  H13      1.0000 0.75780  0.73080  0.14400  Biso   1.000  H
  H14      1.0000 0.24220  0.73080  0.35600  Biso   1.000  H
  H15      1.0000 0.25780  0.23080  0.14400  Biso   1.000  H
  H16      1.0000 0.74220  0.23080  0.35600  Biso   1.000  H
  C1       1.0000 0.06481  0.63390  0.00560  Biso   1.000  C
  C2       1.0000 0.93519  0.63390  0.49440  Biso   1.000  C
  C3       1.0000 0.56481  0.13390  0.00560  Biso   1.000  C
  C4       1.0000 0.43519  0.13390  0.49440  Biso   1.000  C
  C5       1.0000 0.93519  0.36610  0.99440  Biso   1.000  C
  C6       1.0000 0.06481  0.36610  0.50560  Biso   1.000  C
  C7       1.0000 0.43519  0.86610  0.99440  Biso   1.000  C
  C8       1.0000 0.56481  0.86610  0.50560  Biso   1.000  C
  C9       1.0000 0.10601  0.70810  0.01560  Biso   1.000  C
  C10      1.0000 0.89399  0.70810  0.48440  Biso   1.000  C
  C11      1.0000 0.60601  0.20810  0.01560  Biso   1.000  C
  C12      1.0000 0.39399  0.20810  0.48440  Biso   1.000  C
  C13      1.0000 0.89399  0.29190  0.98440  Biso   1.000  C
  C14      1.0000 0.10601  0.29190  0.51560  Biso   1.000  C
  C15      1.0000 0.39399  0.79190  0.98440  Biso   1.000  C
  C16      1.0000 0.60601  0.79190  0.51560  Biso   1.000  C
  C17      1.0000 0.10002  0.81810  0.01600  Biso   1.000  C
  C18      1.0000 0.89998  0.81810  0.48400  Biso   1.000  C
  C19      1.0000 0.60002  0.31810  0.01600  Biso   1.000  C
  C20      1.0000 0.39998  0.31810  0.48400  Biso   1.000  C
  C21      1.0000 0.89998  0.18190  0.98400  Biso   1.000  C
  C22      1.0000 0.10002  0.18190  0.51600  Biso   1.000  C
  C23      1.0000 0.39998  0.68190  0.98400  Biso   1.000  C
  C24      1.0000 0.60002  0.68190  0.51600  Biso   1.000  C
  H17      1.0000 0.07010  0.84660  0.01110  Biso   1.000  H
  H18      1.0000 0.92990  0.84660  0.48890  Biso   1.000  H
  H19      1.0000 0.57010  0.34660  0.01110  Biso   1.000  H
  H20      1.0000 0.42990  0.34660  0.48890  Biso   1.000  H
  H21      1.0000 0.92990  0.15340  0.98890  Biso   1.000  H
  H22      1.0000 0.07010  0.15340  0.51110  Biso   1.000  H
  H23      1.0000 0.42990  0.65340  0.98890  Biso   1.000  H
  H24      1.0000 0.57010  0.65340  0.51110  Biso   1.000  H
  C25      1.0000 0.13784  0.88560  0.02370  Biso   1.000  C
  C26      1.0000 0.86216  0.88560  0.47630  Biso   1.000  C
  C27      1.0000 0.63784  0.38560  0.02370  Biso   1.000  C
  C28      1.0000 0.36216  0.38560  0.47630  Biso   1.000  C
  C29      1.0000 0.86216  0.11440  0.97630  Biso   1.000  C
  C30      1.0000 0.13784  0.11440  0.52370  Biso   1.000  C
  C31      1.0000 0.36216  0.61440  0.97630  Biso   1.000  C
  C32      1.0000 0.63784  0.61440  0.52370  Biso   1.000  C
  H25      1.0000 0.13310  0.95940  0.02150  Biso   1.000  H
  H26      1.0000 0.86690  0.95940  0.47850  Biso   1.000  H
  H27      1.0000 0.63310  0.45940  0.02150  Biso   1.000  H
  H28      1.0000 0.36690  0.45940  0.47850  Biso   1.000  H
  H29      1.0000 0.86690  0.04060  0.97850  Biso   1.000  H
  H30      1.0000 0.13310  0.04060  0.52150  Biso   1.000  H
  H31      1.0000 0.36690  0.54060  0.97850  Biso   1.000  H
  H32      1.0000 0.63310  0.54060  0.52150  Biso   1.000  H
  C33      1.0000 0.18322  0.84500  0.03470  Biso   1.000  C
  C34      1.0000 0.81678  0.84500  0.46530  Biso   1.000  C
  C35      1.0000 0.68322  0.34500  0.03470  Biso   1.000  C
  C36      1.0000 0.31678  0.34500  0.46530  Biso   1.000  C
  C37      1.0000 0.81678  0.15500  0.96530  Biso   1.000  C
  C38      1.0000 0.18322  0.15500  0.53470  Biso   1.000  C
  C39      1.0000 0.31678  0.65500  0.96530  Biso   1.000  C
  C40      1.0000 0.68322  0.65500  0.53470  Biso   1.000  C
  C41      1.0000 0.18925  0.73500  0.03610  Biso   1.000  C
  C42      1.0000 0.81075  0.73500  0.46390  Biso   1.000  C
  C43      1.0000 0.68925  0.23500  0.03610  Biso   1.000  C
  C44      1.0000 0.31075  0.23500  0.46390  Biso   1.000  C
  C45      1.0000 0.81075  0.26500  0.96390  Biso   1.000  C
  C46      1.0000 0.18925  0.26500  0.53610  Biso   1.000  C
  C47      1.0000 0.31075  0.76500  0.96390  Biso   1.000  C
  C48      1.0000 0.68925  0.76500  0.53610  Biso   1.000  C
  H33      1.0000 0.21950  0.70660  0.04430  Biso   1.000  H
  H34      1.0000 0.78050  0.70660  0.45570  Biso   1.000  H
  H35      1.0000 0.71950  0.20660  0.04430  Biso   1.000  H
  H36      1.0000 0.28050  0.20660  0.45570  Biso   1.000  H
  H37      1.0000 0.78050  0.29340  0.95570  Biso   1.000  H
  H38      1.0000 0.21950  0.29340  0.54430  Biso   1.000  H
  H39      1.0000 0.28050  0.79340  0.95570  Biso   1.000  H
  H40      1.0000 0.71950  0.79340  0.54430  Biso   1.000  H
  C49      1.0000 0.15105  0.66660  0.02560  Biso   1.000  C
  C50      1.0000 0.84895  0.66660  0.47440  Biso   1.000  C
  C51      1.0000 0.65105  0.16660  0.02560  Biso   1.000  C
  C52      1.0000 0.34895  0.16660  0.47440  Biso   1.000  C
  C53      1.0000 0.84895  0.33340  0.97440  Biso   1.000  C
  C54      1.0000 0.15105  0.33340  0.52560  Biso   1.000  C
  C55      1.0000 0.34895  0.83340  0.97440  Biso   1.000  C
  C56      1.0000 0.65105  0.83340  0.52560  Biso   1.000  C
  H41      1.0000 0.15550  0.59280  0.02510  Biso   1.000  H
  H42      1.0000 0.84450  0.59280  0.47490  Biso   1.000  H
  H43      1.0000 0.65550  0.09280  0.02510  Biso   1.000  H
  H44      1.0000 0.34450  0.09280  0.47490  Biso   1.000  H
  H45      1.0000 0.84450  0.40720  0.97490  Biso   1.000  H
  H46      1.0000 0.15550  0.40720  0.52510  Biso   1.000  H
  H47      1.0000 0.34450  0.90720  0.97490  Biso   1.000  H
  H48      1.0000 0.65550  0.90720  0.52510  Biso   1.000  H
  C57      1.0000 0.22437  0.91870  0.04290  Biso   1.000  C
  C58      1.0000 0.77563  0.91870  0.45710  Biso   1.000  C
  C59      1.0000 0.72437  0.41870  0.04290  Biso   1.000  C
  C60      1.0000 0.27563  0.41870  0.45710  Biso   1.000  C
  C61      1.0000 0.77563  0.08130  0.95710  Biso   1.000  C
  C62      1.0000 0.22437  0.08130  0.54290  Biso   1.000  C
  C63      1.0000 0.27563  0.58130  0.95710  Biso   1.000  C
  C64      1.0000 0.72437  0.58130  0.54290  Biso   1.000  C
  C65      1.0000 0.22287  0.00000  0.99360  Biso   1.000  C
  C66      1.0000 0.77713  0.00000  0.50640  Biso   1.000  C
  C67      1.0000 0.72287  0.50000  0.99360  Biso   1.000  C
  C68      1.0000 0.27713  0.50000  0.50640  Biso   1.000  C
  C69      1.0000 0.77713  0.00000  0.00640  Biso   1.000  C
  C70      1.0000 0.22287  0.00000  0.49360  Biso   1.000  C
  C71      1.0000 0.27713  0.50000  0.00640  Biso   1.000  C
  C72      1.0000 0.72287  0.50000  0.49360  Biso   1.000  C
  H49      1.0000 0.19590  0.00920  0.95560  Biso   1.000  H
  H50      1.0000 0.80410  0.00920  0.54440  Biso   1.000  H
  H51      1.0000 0.69590  0.50920  0.95560  Biso   1.000  H
  H52      1.0000 0.30410  0.50920  0.54440  Biso   1.000  H
  H53      1.0000 0.80410  0.99080  0.04440  Biso   1.000  H
  H54      1.0000 0.19590  0.99080  0.45560  Biso   1.000  H
  H55      1.0000 0.30410  0.49080  0.04440  Biso   1.000  H
  H56      1.0000 0.69590  0.49080  0.45560  Biso   1.000  H
  C73      1.0000 0.26121  0.06840  0.99990  Biso   1.000  C
  C74      1.0000 0.73879  0.06840  0.50010  Biso   1.000  C
  C75      1.0000 0.76121  0.56840  0.99990  Biso   1.000  C
  C76      1.0000 0.23879  0.56840  0.50010  Biso   1.000  C
  C77      1.0000 0.73879  0.93160  0.00010  Biso   1.000  C
  C78      1.0000 0.26121  0.93160  0.49990  Biso   1.000  C
  C79      1.0000 0.23879  0.43160  0.00010  Biso   1.000  C
  C80      1.0000 0.76121  0.43160  0.49990  Biso   1.000  C
  C81      1.0000 0.30065  0.05640  0.05780  Biso   1.000  C
  C82      1.0000 0.69935  0.05640  0.44220  Biso   1.000  C
  C83      1.0000 0.80065  0.55640  0.05780  Biso   1.000  C
  C84      1.0000 0.19935  0.55640  0.44220  Biso   1.000  C
  C85      1.0000 0.69935  0.94360  0.94220  Biso   1.000  C
  C86      1.0000 0.30065  0.94360  0.55780  Biso   1.000  C
  C87      1.0000 0.19935  0.44360  0.94220  Biso   1.000  C
  C88      1.0000 0.80065  0.44360  0.55780  Biso   1.000  C
  H57      1.0000 0.32610  0.10290  0.06290  Biso   1.000  H
  H58      1.0000 0.67390  0.10290  0.43710  Biso   1.000  H
  H59      1.0000 0.82610  0.60290  0.06290  Biso   1.000  H
  H60      1.0000 0.17390  0.60290  0.43710  Biso   1.000  H
  H61      1.0000 0.67390  0.89710  0.93710  Biso   1.000  H
  H62      1.0000 0.32610  0.89710  0.56290  Biso   1.000  H
  H63      1.0000 0.17390  0.39710  0.93710  Biso   1.000  H
  H64      1.0000 0.82610  0.39710  0.56290  Biso   1.000  H
  C89      1.0000 0.30275  0.97470  0.10920  Biso   1.000  C
  C90      1.0000 0.69725  0.97470  0.39080  Biso   1.000  C
  C91      1.0000 0.80275  0.47470  0.10920  Biso   1.000  C
  C92      1.0000 0.19725  0.47470  0.39080  Biso   1.000  C
  C93      1.0000 0.69725  0.02530  0.89080  Biso   1.000  C
  C94      1.0000 0.30275  0.02530  0.60920  Biso   1.000  C
  C95      1.0000 0.19725  0.52530  0.89080  Biso   1.000  C
  C96      1.0000 0.80275  0.52530  0.60920  Biso   1.000  C
  C97      1.0000 0.26447  0.90550  0.09980  Biso   1.000  C
  C98      1.0000 0.73553  0.90550  0.40020  Biso   1.000  C
  C99      1.0000 0.76447  0.40550  0.09980  Biso   1.000  C
  C100     1.0000 0.23553  0.40550  0.40020  Biso   1.000  C
  C101     1.0000 0.73553  0.09450  0.90020  Biso   1.000  C
  C102     1.0000 0.26447  0.09450  0.59980  Biso   1.000  C
  C103     1.0000 0.23553  0.59450  0.90020  Biso   1.000  C
  C104     1.0000 0.76447  0.59450  0.59980  Biso   1.000  C
  H65      1.0000 0.26580  0.84950  0.13230  Biso   1.000  H
  H66      1.0000 0.73420  0.84950  0.36770  Biso   1.000  H
  H67      1.0000 0.76580  0.34950  0.13230  Biso   1.000  H
  H68      1.0000 0.23420  0.34950  0.36770  Biso   1.000  H
  H69      1.0000 0.73420  0.15050  0.86770  Biso   1.000  H
  H70      1.0000 0.26580  0.15050  0.63230  Biso   1.000  H
  H71      1.0000 0.23420  0.65050  0.86770  Biso   1.000  H
  H72      1.0000 0.76580  0.65050  0.63230  Biso   1.000  H
  C105     1.0000 0.34363  0.96700  0.17380  Biso   1.000  C
  C106     1.0000 0.65637  0.96700  0.32620  Biso   1.000  C
  C107     1.0000 0.84363  0.46700  0.17380  Biso   1.000  C
  C108     1.0000 0.15637  0.46700  0.32620  Biso   1.000  C
  C109     1.0000 0.65637  0.03300  0.82620  Biso   1.000  C
  C110     1.0000 0.34363  0.03300  0.67380  Biso   1.000  C
  C111     1.0000 0.15637  0.53300  0.82620  Biso   1.000  C
  C112     1.0000 0.84363  0.53300  0.67380  Biso   1.000  C
  C113     1.0000 0.38850  0.00280  0.17280  Biso   1.000  C
  C114     1.0000 0.61150  0.00280  0.32720  Biso   1.000  C
  C115     1.0000 0.88850  0.50280  0.17280  Biso   1.000  C
  C116     1.0000 0.11150  0.50280  0.32720  Biso   1.000  C
  C117     1.0000 0.61150  0.99720  0.82720  Biso   1.000  C
  C118     1.0000 0.38850  0.99720  0.67280  Biso   1.000  C
  C119     1.0000 0.11150  0.49720  0.82720  Biso   1.000  C
  C120     1.0000 0.88850  0.49720  0.67280  Biso   1.000  C
  H73      1.0000 0.39380  0.02790  0.13000  Biso   1.000  H
  H74      1.0000 0.60620  0.02790  0.37000  Biso   1.000  H
  H75      1.0000 0.89380  0.52790  0.13000  Biso   1.000  H
  H76      1.0000 0.10620  0.52790  0.37000  Biso   1.000  H
  H77      1.0000 0.60620  0.97210  0.87000  Biso   1.000  H
  H78      1.0000 0.39380  0.97210  0.63000  Biso   1.000  H
  H79      1.0000 0.10620  0.47210  0.87000  Biso   1.000  H
  H80      1.0000 0.89380  0.47210  0.63000  Biso   1.000  H
  C121     1.0000 0.42512  0.00110  0.23540  Biso   1.000  C
  C122     1.0000 0.57488  0.00110  0.26460  Biso   1.000  C
  C123     1.0000 0.92512  0.50110  0.23540  Biso   1.000  C
  C124     1.0000 0.07488  0.50110  0.26460  Biso   1.000  C
  C125     1.0000 0.57488  0.99890  0.76460  Biso   1.000  C
  C126     1.0000 0.42512  0.99890  0.73540  Biso   1.000  C
  C127     1.0000 0.07488  0.49890  0.76460  Biso   1.000  C
  C128     1.0000 0.92512  0.49890  0.73540  Biso   1.000  C
  H81      1.0000 0.45460  0.02630  0.23390  Biso   1.000  H
  H82      1.0000 0.54540  0.02630  0.26610  Biso   1.000  H
  H83      1.0000 0.95460  0.52630  0.23390  Biso   1.000  H
  H84      1.0000 0.04540  0.52630  0.26610  Biso   1.000  H
  H85      1.0000 0.54540  0.97370  0.76610  Biso   1.000  H
  H86      1.0000 0.45460  0.97370  0.73390  Biso   1.000  H
  H87      1.0000 0.04540  0.47370  0.76610  Biso   1.000  H
  H88      1.0000 0.95460  0.47370  0.73390  Biso   1.000  H
  C129     1.0000 0.41906  0.96290  0.30000  Biso   1.000  C
  C130     1.0000 0.58094  0.96290  0.20000  Biso   1.000  C
  C131     1.0000 0.91906  0.46290  0.30000  Biso   1.000  C
  C132     1.0000 0.08094  0.46290  0.20000  Biso   1.000  C
  C133     1.0000 0.58094  0.03710  0.70000  Biso   1.000  C
  C134     1.0000 0.41906  0.03710  0.80000  Biso   1.000  C
  C135     1.0000 0.08094  0.53710  0.70000  Biso   1.000  C
  C136     1.0000 0.91906  0.53710  0.80000  Biso   1.000  C
  C137     1.0000 0.37456  0.92350  0.30030  Biso   1.000  C
  C138     1.0000 0.62544  0.92350  0.19970  Biso   1.000  C
  C139     1.0000 0.87456  0.42350  0.30030  Biso   1.000  C
  C140     1.0000 0.12544  0.42350  0.19970  Biso   1.000  C
  C141     1.0000 0.62544  0.07650  0.69970  Biso   1.000  C
  C142     1.0000 0.37456  0.07650  0.80030  Biso   1.000  C
  C143     1.0000 0.12544  0.57650  0.69970  Biso   1.000  C
  C144     1.0000 0.87456  0.57650  0.80030  Biso   1.000  C
  H89      1.0000 0.36970  0.89510  0.34260  Biso   1.000  H
  H90      1.0000 0.63030  0.89510  0.15740  Biso   1.000  H
  H91      1.0000 0.86970  0.39510  0.34260  Biso   1.000  H
  H92      1.0000 0.13030  0.39510  0.15740  Biso   1.000  H
  H93      1.0000 0.63030  0.10490  0.65740  Biso   1.000  H
  H94      1.0000 0.36970  0.10490  0.84260  Biso   1.000  H
  H95      1.0000 0.13030  0.60490  0.65740  Biso   1.000  H
  H96      1.0000 0.86970  0.60490  0.84260  Biso   1.000  H
  C145     1.0000 0.33790  0.92640  0.23840  Biso   1.000  C
  C146     1.0000 0.66210  0.92640  0.26160  Biso   1.000  C
  C147     1.0000 0.83790  0.42640  0.23840  Biso   1.000  C
  C148     1.0000 0.16210  0.42640  0.26160  Biso   1.000  C
  C149     1.0000 0.66210  0.07360  0.76160  Biso   1.000  C
  C150     1.0000 0.33790  0.07360  0.73840  Biso   1.000  C
  C151     1.0000 0.16210  0.57360  0.76160  Biso   1.000  C
  C152     1.0000 0.83790  0.57360  0.73840  Biso   1.000  C
  H97      1.0000 0.30850  0.90060  0.23990  Biso   1.000  H
  H98      1.0000 0.69150  0.90060  0.26010  Biso   1.000  H
  H99      1.0000 0.80850  0.40060  0.23990  Biso   1.000  H
  H100     1.0000 0.19150  0.40060  0.26010  Biso   1.000  H
  H101     1.0000 0.69150  0.09940  0.76010  Biso   1.000  H
  H102     1.0000 0.30850  0.09940  0.73990  Biso   1.000  H
  H103     1.0000 0.19150  0.59940  0.76010  Biso   1.000  H
  H104     1.0000 0.80850  0.59940  0.73990  Biso   1.000  H
  C153     1.0000 0.45605  0.96810  0.36973  Biso   1.000  C
  C154     1.0000 0.54395  0.96810  0.13027  Biso   1.000  C
  C155     1.0000 0.95605  0.46810  0.36973  Biso   1.000  C
  C156     1.0000 0.04395  0.46810  0.13027  Biso   1.000  C
  C157     1.0000 0.54395  0.03190  0.63027  Biso   1.000  C
  C158     1.0000 0.45605  0.03190  0.86973  Biso   1.000  C
  C159     1.0000 0.04395  0.53190  0.63027  Biso   1.000  C
  C160     1.0000 0.95605  0.53190  0.86973  Biso   1.000  C
  C161     1.0000 0.29075  0.20030  0.92570  Biso   1.000  C
  C162     1.0000 0.70925  0.20030  0.57430  Biso   1.000  C
  C163     1.0000 0.79075  0.70030  0.92570  Biso   1.000  C
  C164     1.0000 0.20925  0.70030  0.57430  Biso   1.000  C
  C165     1.0000 0.70925  0.79970  0.07430  Biso   1.000  C
  C166     1.0000 0.29075  0.79970  0.42570  Biso   1.000  C
  C167     1.0000 0.20925  0.29970  0.07430  Biso   1.000  C
  C168     1.0000 0.79075  0.29970  0.42570  Biso   1.000  C
  C169     1.0000 0.29480  0.33090  0.82928  Biso   1.000  C
  C170     1.0000 0.70520  0.33090  0.67072  Biso   1.000  C
  C171     1.0000 0.79480  0.83090  0.82928  Biso   1.000  C
  C172     1.0000 0.20520  0.83090  0.67072  Biso   1.000  C
  C173     1.0000 0.70520  0.66910  0.17072  Biso   1.000  C
  C174     1.0000 0.29480  0.66910  0.32928  Biso   1.000  C
  C175     1.0000 0.20520  0.16910  0.17072  Biso   1.000  C
  C176     1.0000 0.79480  0.16910  0.32928  Biso   1.000  C
  C177     1.0000 0.34249  0.35650  0.85156  Biso   1.000  C
  C178     1.0000 0.65751  0.35650  0.64844  Biso   1.000  C
  C179     1.0000 0.84249  0.85650  0.85156  Biso   1.000  C
  C180     1.0000 0.15751  0.85650  0.64844  Biso   1.000  C
  C181     1.0000 0.65751  0.64350  0.14844  Biso   1.000  C
  C182     1.0000 0.34249  0.64350  0.35156  Biso   1.000  C
  C183     1.0000 0.15751  0.14350  0.14844  Biso   1.000  C
  C184     1.0000 0.84249  0.14350  0.35156  Biso   1.000  C
  H105     1.0000 0.36120  0.32950  0.89500  Biso   1.000  H
  H106     1.0000 0.63880  0.32950  0.60500  Biso   1.000  H
  H107     1.0000 0.86120  0.82950  0.89500  Biso   1.000  H
  H108     1.0000 0.13880  0.82950  0.60500  Biso   1.000  H
  H109     1.0000 0.63880  0.67050  0.10500  Biso   1.000  H
  H110     1.0000 0.36120  0.67050  0.39500  Biso   1.000  H
  H111     1.0000 0.13880  0.17050  0.10500  Biso   1.000  H
  H112     1.0000 0.86120  0.17050  0.39500  Biso   1.000  H
  C185     1.0000 0.36226  0.42230  0.80897  Biso   1.000  C
  C186     1.0000 0.63774  0.42230  0.69103  Biso   1.000  C
  C187     1.0000 0.86226  0.92230  0.80897  Biso   1.000  C
  C188     1.0000 0.13774  0.92230  0.69103  Biso   1.000  C
  C189     1.0000 0.63774  0.57770  0.19103  Biso   1.000  C
  C190     1.0000 0.36226  0.57770  0.30897  Biso   1.000  C
  C191     1.0000 0.13774  0.07770  0.19103  Biso   1.000  C
  C192     1.0000 0.86226  0.07770  0.30897  Biso   1.000  C
  H113     1.0000 0.39420  0.43940  0.82390  Biso   1.000  H
  H114     1.0000 0.60580  0.43940  0.67610  Biso   1.000  H
  H115     1.0000 0.89420  0.93940  0.82390  Biso   1.000  H
  H116     1.0000 0.10580  0.93940  0.67610  Biso   1.000  H
  H117     1.0000 0.60580  0.56060  0.17610  Biso   1.000  H
  H118     1.0000 0.39420  0.56060  0.32390  Biso   1.000  H
  H119     1.0000 0.10580  0.06060  0.17610  Biso   1.000  H
  H120     1.0000 0.89420  0.06060  0.32390  Biso   1.000  H
  C193     1.0000 0.33434  0.46260  0.74411  Biso   1.000  C
  C194     1.0000 0.66566  0.46260  0.75589  Biso   1.000  C
  C195     1.0000 0.83434  0.96260  0.74411  Biso   1.000  C
  C196     1.0000 0.16566  0.96260  0.75589  Biso   1.000  C
  C197     1.0000 0.66566  0.53740  0.25589  Biso   1.000  C
  C198     1.0000 0.33434  0.53740  0.24411  Biso   1.000  C
  C199     1.0000 0.16566  0.03740  0.25589  Biso   1.000  C
  C200     1.0000 0.83434  0.03740  0.24411  Biso   1.000  C
  H121     1.0000 0.34760  0.50670  0.71560  Biso   1.000  H
  H122     1.0000 0.65240  0.50670  0.78440  Biso   1.000  H
  H123     1.0000 0.84760  0.00670  0.71560  Biso   1.000  H
  H124     1.0000 0.15240  0.00670  0.78440  Biso   1.000  H
  H125     1.0000 0.65240  0.49330  0.28440  Biso   1.000  H
  H126     1.0000 0.34760  0.49330  0.21560  Biso   1.000  H
  H127     1.0000 0.15240  0.99330  0.28440  Biso   1.000  H
  H128     1.0000 0.84760  0.99330  0.21560  Biso   1.000  H
  C201     1.0000 0.28664  0.43700  0.72183  Biso   1.000  C
  C202     1.0000 0.71336  0.43700  0.77817  Biso   1.000  C
  C203     1.0000 0.78664  0.93700  0.72183  Biso   1.000  C
  C204     1.0000 0.21336  0.93700  0.77817  Biso   1.000  C
  C205     1.0000 0.71336  0.56300  0.27817  Biso   1.000  C
  C206     1.0000 0.28664  0.56300  0.22183  Biso   1.000  C
  C207     1.0000 0.21336  0.06300  0.27817  Biso   1.000  C
  C208     1.0000 0.78664  0.06300  0.22183  Biso   1.000  C
  H129     1.0000 0.26800  0.46390  0.67840  Biso   1.000  H
  H130     1.0000 0.73200  0.46390  0.82160  Biso   1.000  H
  H131     1.0000 0.76800  0.96390  0.67840  Biso   1.000  H
  H132     1.0000 0.23200  0.96390  0.82160  Biso   1.000  H
  H133     1.0000 0.73200  0.53610  0.32160  Biso   1.000  H
  H134     1.0000 0.26800  0.53610  0.17840  Biso   1.000  H
  H135     1.0000 0.23200  0.03610  0.32160  Biso   1.000  H
  H136     1.0000 0.76800  0.03610  0.17840  Biso   1.000  H
  C209     1.0000 0.26687  0.37110  0.76442  Biso   1.000  C
  C210     1.0000 0.73313  0.37110  0.73558  Biso   1.000  C
  C211     1.0000 0.76687  0.87110  0.76442  Biso   1.000  C
  C212     1.0000 0.23313  0.87110  0.73558  Biso   1.000  C
  C213     1.0000 0.73313  0.62890  0.23558  Biso   1.000  C
  C214     1.0000 0.26687  0.62890  0.26442  Biso   1.000  C
  C215     1.0000 0.23313  0.12890  0.23558  Biso   1.000  C
  C216     1.0000 0.76687  0.12890  0.26442  Biso   1.000  C
  H137     1.0000 0.23500  0.35400  0.74950  Biso   1.000  H
  H138     1.0000 0.76500  0.35400  0.75050  Biso   1.000  H
  H139     1.0000 0.73500  0.85400  0.74950  Biso   1.000  H
  H140     1.0000 0.26500  0.85400  0.75050  Biso   1.000  H
  H141     1.0000 0.76500  0.64600  0.25050  Biso   1.000  H
  H142     1.0000 0.23500  0.64600  0.24950  Biso   1.000  H
  H143     1.0000 0.26500  0.14600  0.25050  Biso   1.000  H
  H144     1.0000 0.73500  0.14600  0.24950  Biso   1.000  H
  H145     1.0000 0.89580  0.70200  0.01100  Biso   1.000  H
  H146     1.0000 0.10420  0.70200  0.48900  Biso   1.000  H
  H147     1.0000 0.39580  0.20200  0.01100  Biso   1.000  H
  H148     1.0000 0.60420  0.20200  0.48900  Biso   1.000  H
  H149     1.0000 0.10420  0.29800  0.98900  Biso   1.000  H
  H150     1.0000 0.89580  0.29800  0.51100  Biso   1.000  H
  H151     1.0000 0.60420  0.79800  0.98900  Biso   1.000  H
  H152     1.0000 0.39580  0.79800  0.51100  Biso   1.000  H
  H153     1.0000 0.94820  0.75350  0.03600  Biso   1.000  H
  H154     1.0000 0.05180  0.75350  0.46400  Biso   1.000  H
  H155     1.0000 0.44820  0.25350  0.03600  Biso   1.000  H
  H156     1.0000 0.55180  0.25350  0.46400  Biso   1.000  H
  H157     1.0000 0.05180  0.24650  0.96400  Biso   1.000  H
  H158     1.0000 0.94820  0.24650  0.53600  Biso   1.000  H
  H159     1.0000 0.55180  0.74650  0.96400  Biso   1.000  H
  H160     1.0000 0.44820  0.74650  0.53600  Biso   1.000  H
  O49      1.0000 0.98696  0.93330  0.89470  Biso   1.000  O
  O50      1.0000 0.01304  0.93330  0.60530  Biso   1.000  O
  O51      1.0000 0.48696  0.43330  0.89470  Biso   1.000  O
  O52      1.0000 0.51304  0.43330  0.60530  Biso   1.000  O
  O53      1.0000 0.01304  0.06670  0.10530  Biso   1.000  O
  O54      1.0000 0.98696  0.06670  0.39470  Biso   1.000  O
  O55      1.0000 0.51304  0.56670  0.10530  Biso   1.000  O
  O56      1.0000 0.48696  0.56670  0.39470  Biso   1.000  O
  N17      1.0000 0.03560  0.84380  0.84300  Biso   1.000  N
  N18      1.0000 0.96440  0.84380  0.65700  Biso   1.000  N
  N19      1.0000 0.53560  0.34380  0.84300  Biso   1.000  N
  N20      1.0000 0.46440  0.34380  0.65700  Biso   1.000  N
  N21      1.0000 0.96440  0.15620  0.15700  Biso   1.000  N
  N22      1.0000 0.03560  0.15620  0.34300  Biso   1.000  N
  N23      1.0000 0.46440  0.65620  0.15700  Biso   1.000  N
  N24      1.0000 0.53560  0.65620  0.34300  Biso   1.000  N
  C217     1.0000 0.05300  0.74200  0.82460  Biso   1.000  C
  C218     1.0000 0.94700  0.74200  0.67540  Biso   1.000  C
  C219     1.0000 0.55300  0.24200  0.82460  Biso   1.000  C
  C220     1.0000 0.44700  0.24200  0.67540  Biso   1.000  C
  C221     1.0000 0.94700  0.25800  0.17540  Biso   1.000  C
  C222     1.0000 0.05300  0.25800  0.32460  Biso   1.000  C
  C223     1.0000 0.44700  0.75800  0.17540  Biso   1.000  C
  C224     1.0000 0.55300  0.75800  0.32460  Biso   1.000  C
  H161     1.0000 0.02710  0.69360  0.80760  Biso   1.000  H
  H162     1.0000 0.97290  0.69360  0.69240  Biso   1.000  H
  H163     1.0000 0.52710  0.19360  0.80760  Biso   1.000  H
  H164     1.0000 0.47290  0.19360  0.69240  Biso   1.000  H
  H165     1.0000 0.97290  0.30640  0.19240  Biso   1.000  H
  H166     1.0000 0.02710  0.30640  0.30760  Biso   1.000  H
  H167     1.0000 0.47290  0.80640  0.19240  Biso   1.000  H
  H168     1.0000 0.52710  0.80640  0.30760  Biso   1.000  H
  H169     1.0000 0.07470  0.71220  0.86670  Biso   1.000  H
  H170     1.0000 0.92530  0.71220  0.63330  Biso   1.000  H
  H171     1.0000 0.57470  0.21220  0.86670  Biso   1.000  H
  H172     1.0000 0.42530  0.21220  0.63330  Biso   1.000  H
  H173     1.0000 0.92530  0.28780  0.13330  Biso   1.000  H
  H174     1.0000 0.07470  0.28780  0.36670  Biso   1.000  H
  H175     1.0000 0.42530  0.78780  0.13330  Biso   1.000  H
  H176     1.0000 0.57470  0.78780  0.36670  Biso   1.000  H
  H177     1.0000 0.06890  0.75250  0.78740  Biso   1.000  H
  H178     1.0000 0.93110  0.75250  0.71260  Biso   1.000  H
  H179     1.0000 0.56890  0.25250  0.78740  Biso   1.000  H
  H180     1.0000 0.43110  0.25250  0.71260  Biso   1.000  H
  H181     1.0000 0.93110  0.24750  0.21260  Biso   1.000  H
  H182     1.0000 0.06890  0.24750  0.28740  Biso   1.000  H
  H183     1.0000 0.43110  0.74750  0.21260  Biso   1.000  H
  H184     1.0000 0.56890  0.74750  0.28740  Biso   1.000  H
  C225     1.0000 0.05870  0.93990  0.82880  Biso   1.000  C
  C226     1.0000 0.94130  0.93990  0.67120  Biso   1.000  C
  C227     1.0000 0.55870  0.43990  0.82880  Biso   1.000  C
  C228     1.0000 0.44130  0.43990  0.67120  Biso   1.000  C
  C229     1.0000 0.94130  0.06010  0.17120  Biso   1.000  C
  C230     1.0000 0.05870  0.06010  0.32880  Biso   1.000  C
  C231     1.0000 0.44130  0.56010  0.17120  Biso   1.000  C
  C232     1.0000 0.55870  0.56010  0.32880  Biso   1.000  C
  H185     1.0000 0.03780  0.99990  0.82610  Biso   1.000  H
  H186     1.0000 0.96220  0.99990  0.67390  Biso   1.000  H
  H187     1.0000 0.53780  0.49990  0.82610  Biso   1.000  H
  H188     1.0000 0.46220  0.49990  0.67390  Biso   1.000  H
  H189     1.0000 0.96220  0.00010  0.17390  Biso   1.000  H
  H190     1.0000 0.03780  0.00010  0.32610  Biso   1.000  H
  H191     1.0000 0.46220  0.50010  0.17390  Biso   1.000  H
  H192     1.0000 0.53780  0.50010  0.32610  Biso   1.000  H
  H193     1.0000 0.06680  0.93260  0.78370  Biso   1.000  H
  H194     1.0000 0.93320  0.93260  0.71630  Biso   1.000  H
  H195     1.0000 0.56680  0.43260  0.78370  Biso   1.000  H
  H196     1.0000 0.43320  0.43260  0.71630  Biso   1.000  H
  H197     1.0000 0.93320  0.06740  0.21630  Biso   1.000  H
  H198     1.0000 0.06680  0.06740  0.28370  Biso   1.000  H
  H199     1.0000 0.43320  0.56740  0.21630  Biso   1.000  H
  H200     1.0000 0.56680  0.56740  0.28370  Biso   1.000  H
  H201     1.0000 0.08680  0.95140  0.86710  Biso   1.000  H
  H202     1.0000 0.91320  0.95140  0.63290  Biso   1.000  H
  H203     1.0000 0.58680  0.45140  0.86710  Biso   1.000  H
  H204     1.0000 0.41320  0.45140  0.63290  Biso   1.000  H
  H205     1.0000 0.91320  0.04860  0.13290  Biso   1.000  H
  H206     1.0000 0.08680  0.04860  0.36710  Biso   1.000  H
  H207     1.0000 0.41320  0.54860  0.13290  Biso   1.000  H
  H208     1.0000 0.58680  0.54860  0.36710  Biso   1.000  H
  C233     1.0000 0.00260  0.84840  0.87440  Biso   1.000  C
  C234     1.0000 0.99740  0.84840  0.62560  Biso   1.000  C
  C235     1.0000 0.50260  0.34840  0.87440  Biso   1.000  C
  C236     1.0000 0.49740  0.34840  0.62560  Biso   1.000  C
  C237     1.0000 0.99740  0.15160  0.12560  Biso   1.000  C
  C238     1.0000 0.00260  0.15160  0.37440  Biso   1.000  C
  C239     1.0000 0.49740  0.65160  0.12560  Biso   1.000  C
  C240     1.0000 0.50260  0.65160  0.37440  Biso   1.000  C
  H209     1.0000 0.98910  0.78410  0.88300  Biso   1.000  H
  H210     1.0000 0.01090  0.78410  0.61700  Biso   1.000  H
  H211     1.0000 0.48910  0.28410  0.88300  Biso   1.000  H
  H212     1.0000 0.51090  0.28410  0.61700  Biso   1.000  H
  H213     1.0000 0.01090  0.21590  0.11700  Biso   1.000  H
  H214     1.0000 0.98910  0.21590  0.38300  Biso   1.000  H
  H215     1.0000 0.51090  0.71590  0.11700  Biso   1.000  H
  H216     1.0000 0.48910  0.71590  0.38300  Biso   1.000  H
  O57      1.0000 0.32993  0.28470  0.15410  Biso   1.000  O
  O58      1.0000 0.67007  0.28470  0.34590  Biso   1.000  O
  O59      1.0000 0.82993  0.78470  0.15410  Biso   1.000  O
  O60      1.0000 0.17007  0.78470  0.34590  Biso   1.000  O
  O61      1.0000 0.67007  0.71530  0.84590  Biso   1.000  O
  O62      1.0000 0.32993  0.71530  0.65410  Biso   1.000  O
  O63      1.0000 0.17007  0.21530  0.84590  Biso   1.000  O
  O64      1.0000 0.82993  0.21530  0.65410  Biso   1.000  O
  N25      1.0000 0.39388  0.27670  0.24590  Biso   1.000  N
  N26      1.0000 0.60612  0.27670  0.25410  Biso   1.000  N
  N27      1.0000 0.89388  0.77670  0.24590  Biso   1.000  N
  N28      1.0000 0.10612  0.77670  0.25410  Biso   1.000  N
  N29      1.0000 0.60612  0.72330  0.75410  Biso   1.000  N
  N30      1.0000 0.39388  0.72330  0.74590  Biso   1.000  N
  N31      1.0000 0.10612  0.22330  0.75410  Biso   1.000  N
  N32      1.0000 0.89388  0.22330  0.74590  Biso   1.000  N
  C241     1.0000 0.36580  0.25160  0.29320  Biso   1.000  C
  C242     1.0000 0.63420  0.25160  0.20680  Biso   1.000  C
  C243     1.0000 0.86580  0.75160  0.29320  Biso   1.000  C
  C244     1.0000 0.13420  0.75160  0.20680  Biso   1.000  C
  C245     1.0000 0.63420  0.74840  0.70680  Biso   1.000  C
  C246     1.0000 0.36580  0.74840  0.79320  Biso   1.000  C
  C247     1.0000 0.13420  0.24840  0.70680  Biso   1.000  C
  C248     1.0000 0.86580  0.24840  0.79320  Biso   1.000  C
  H217     1.0000 0.34460  0.30980  0.29380  Biso   1.000  H
  H218     1.0000 0.65540  0.30980  0.20620  Biso   1.000  H
  H219     1.0000 0.84460  0.80980  0.29380  Biso   1.000  H
  H220     1.0000 0.15540  0.80980  0.20620  Biso   1.000  H
  H221     1.0000 0.65540  0.69020  0.70620  Biso   1.000  H
  H222     1.0000 0.34460  0.69020  0.79380  Biso   1.000  H
  H223     1.0000 0.15540  0.19020  0.70620  Biso   1.000  H
  H224     1.0000 0.84460  0.19020  0.79380  Biso   1.000  H
  H225     1.0000 0.38580  0.24040  0.34110  Biso   1.000  H
  H226     1.0000 0.61420  0.24040  0.15890  Biso   1.000  H
  H227     1.0000 0.88580  0.74040  0.34110  Biso   1.000  H
  H228     1.0000 0.11420  0.74040  0.15890  Biso   1.000  H
  H229     1.0000 0.61420  0.75960  0.65890  Biso   1.000  H
  H230     1.0000 0.38580  0.75960  0.84110  Biso   1.000  H
  H231     1.0000 0.11420  0.25960  0.65890  Biso   1.000  H
  H232     1.0000 0.88580  0.25960  0.84110  Biso   1.000  H
  H233     1.0000 0.34810  0.18750  0.27690  Biso   1.000  H
  H234     1.0000 0.65190  0.18750  0.22310  Biso   1.000  H
  H235     1.0000 0.84810  0.68750  0.27690  Biso   1.000  H
  H236     1.0000 0.15190  0.68750  0.22310  Biso   1.000  H
  H237     1.0000 0.65190  0.81250  0.72310  Biso   1.000  H
  H238     1.0000 0.34810  0.81250  0.77690  Biso   1.000  H
  H239     1.0000 0.15190  0.31250  0.72310  Biso   1.000  H
  H240     1.0000 0.84810  0.31250  0.77690  Biso   1.000  H
  C249     1.0000 0.44320  0.28180  0.27590  Biso   1.000  C
  C250     1.0000 0.55680  0.28180  0.22410  Biso   1.000  C
  C251     1.0000 0.94320  0.78180  0.27590  Biso   1.000  C
  C252     1.0000 0.05680  0.78180  0.22410  Biso   1.000  C
  C253     1.0000 0.55680  0.71820  0.72410  Biso   1.000  C
  C254     1.0000 0.44320  0.71820  0.77590  Biso   1.000  C
  C255     1.0000 0.05680  0.21820  0.72410  Biso   1.000  C
  C256     1.0000 0.94320  0.21820  0.77590  Biso   1.000  C
  H241     1.0000 0.45830  0.29770  0.23840  Biso   1.000  H
  H242     1.0000 0.54170  0.29770  0.26160  Biso   1.000  H
  H243     1.0000 0.95830  0.79770  0.23840  Biso   1.000  H
  H244     1.0000 0.04170  0.79770  0.26160  Biso   1.000  H
  H245     1.0000 0.54170  0.70230  0.76160  Biso   1.000  H
  H246     1.0000 0.45830  0.70230  0.73840  Biso   1.000  H
  H247     1.0000 0.04170  0.20230  0.76160  Biso   1.000  H
  H248     1.0000 0.95830  0.20230  0.73840  Biso   1.000  H
  H249     1.0000 0.45440  0.21410  0.29760  Biso   1.000  H
  H250     1.0000 0.54560  0.21410  0.20240  Biso   1.000  H
  H251     1.0000 0.95440  0.71410  0.29760  Biso   1.000  H
  H252     1.0000 0.04560  0.71410  0.20240  Biso   1.000  H
  H253     1.0000 0.54560  0.78590  0.70240  Biso   1.000  H
  H254     1.0000 0.45440  0.78590  0.79760  Biso   1.000  H
  H255     1.0000 0.04560  0.28590  0.70240  Biso   1.000  H
  H256     1.0000 0.95440  0.28590  0.79760  Biso   1.000  H
  H257     1.0000 0.45040  0.33710  0.31200  Biso   1.000  H
  H258     1.0000 0.54960  0.33710  0.18800  Biso   1.000  H
  H259     1.0000 0.95040  0.83710  0.31200  Biso   1.000  H
  H260     1.0000 0.04960  0.83710  0.18800  Biso   1.000  H
  H261     1.0000 0.54960  0.66290  0.68800  Biso   1.000  H
  H262     1.0000 0.45040  0.66290  0.81200  Biso   1.000  H
  H263     1.0000 0.04960  0.16290  0.68800  Biso   1.000  H
  H264     1.0000 0.95040  0.16290  0.81200  Biso   1.000  H
  C257     1.0000 0.37331  0.28810  0.17733  Biso   1.000  C
  C258     1.0000 0.62669  0.28810  0.32267  Biso   1.000  C
  C259     1.0000 0.87331  0.78810  0.17733  Biso   1.000  C
  C260     1.0000 0.12669  0.78810  0.32267  Biso   1.000  C
  C261     1.0000 0.62669  0.71190  0.82267  Biso   1.000  C
  C262     1.0000 0.37331  0.71190  0.67733  Biso   1.000  C
  C263     1.0000 0.12669  0.21190  0.82267  Biso   1.000  C
  C264     1.0000 0.87331  0.21190  0.67733  Biso   1.000  C
  H265     1.0000 0.39160  0.29900  0.14520  Biso   1.000  H
  H266     1.0000 0.60840  0.29900  0.35480  Biso   1.000  H
  H267     1.0000 0.89160  0.79900  0.14520  Biso   1.000  H
  H268     1.0000 0.10840  0.79900  0.35480  Biso   1.000  H
  H269     1.0000 0.60840  0.70100  0.85480  Biso   1.000  H
  H270     1.0000 0.39160  0.70100  0.64520  Biso   1.000  H
  H271     1.0000 0.10840  0.20100  0.85480  Biso   1.000  H
  H272     1.0000 0.89160  0.20100  0.64520  Biso   1.000  H
  O65      1.0000 0.95330  0.90550  0.01790  Biso   1.000  O
  O66      1.0000 0.04670  0.90550  0.48210  Biso   1.000  O
  O67      1.0000 0.45330  0.40550  0.01790  Biso   1.000  O
  O68      1.0000 0.54670  0.40550  0.48210  Biso   1.000  O
  O69      1.0000 0.04670  0.09450  0.98210  Biso   1.000  O
  O70      1.0000 0.95330  0.09450  0.51790  Biso   1.000  O
  O71      1.0000 0.54670  0.59450  0.98210  Biso   1.000  O
  O72      1.0000 0.45330  0.59450  0.51790  Biso   1.000  O
  H273     1.0000 0.98300  0.87800  0.05700  Biso   1.000  H
  H274     1.0000 0.01700  0.87800  0.44300  Biso   1.000  H
  H275     1.0000 0.48300  0.37800  0.05700  Biso   1.000  H
  H276     1.0000 0.51700  0.37800  0.44300  Biso   1.000  H
  H277     1.0000 0.01700  0.12200  0.94300  Biso   1.000  H
  H278     1.0000 0.98300  0.12200  0.55700  Biso   1.000  H
  H279     1.0000 0.51700  0.62200  0.94300  Biso   1.000  H
  H280     1.0000 0.48300  0.62200  0.55700  Biso   1.000  H
