data_image0
_cell_length_a       32.365
_cell_length_b       32.365
_cell_length_c       32.365
_cell_angle_alpha    90
_cell_angle_beta     90
_cell_angle_gamma    90

_symmetry_space_group_name_H-M    "P 1"
_symmetry_int_tables_number       1

loop_
  _symmetry_equiv_pos_as_xyz
  'x, y, z'

loop_
  _atom_site_label
  _atom_site_occupancy
  _atom_site_fract_x
  _atom_site_fract_y
  _atom_site_fract_z
  _atom_site_thermal_displace_type
  _atom_site_B_iso_or_equiv
  _atom_site_type_symbol
  Cu1      1.0000 0.54042  0.75000  0.25000  Biso   1.000  Cu
  Cu2      1.0000 0.95958  0.75000  0.25000  Biso   1.000  Cu
  Cu3      1.0000 0.25000  0.54042  0.75000  Biso   1.000  Cu
  Cu4      1.0000 0.25000  0.95958  0.75000  Biso   1.000  Cu
  Cu5      1.0000 0.75000  0.25000  0.54042  Biso   1.000  Cu
  Cu6      1.0000 0.75000  0.25000  0.95958  Biso   1.000  Cu
  Cu7      1.0000 0.75000  0.54042  0.25000  Biso   1.000  Cu
  Cu8      1.0000 0.75000  0.95958  0.25000  Biso   1.000  Cu
  Cu9      1.0000 0.54042  0.25000  0.75000  Biso   1.000  Cu
  Cu10     1.0000 0.95958  0.25000  0.75000  Biso   1.000  Cu
  Cu11     1.0000 0.25000  0.75000  0.95958  Biso   1.000  Cu
  Cu12     1.0000 0.25000  0.75000  0.54042  Biso   1.000  Cu
  Cu13     1.0000 0.45958  0.25000  0.75000  Biso   1.000  Cu
  Cu14     1.0000 0.04042  0.25000  0.75000  Biso   1.000  Cu
  Cu15     1.0000 0.75000  0.45958  0.25000  Biso   1.000  Cu
  Cu16     1.0000 0.75000  0.04042  0.25000  Biso   1.000  Cu
  Cu17     1.0000 0.25000  0.75000  0.45958  Biso   1.000  Cu
  Cu18     1.0000 0.25000  0.75000  0.04042  Biso   1.000  Cu
  Cu19     1.0000 0.25000  0.45958  0.75000  Biso   1.000  Cu
  Cu20     1.0000 0.25000  0.04042  0.75000  Biso   1.000  Cu
  Cu21     1.0000 0.45958  0.75000  0.25000  Biso   1.000  Cu
  Cu22     1.0000 0.04042  0.75000  0.25000  Biso   1.000  Cu
  Cu23     1.0000 0.75000  0.25000  0.04042  Biso   1.000  Cu
  Cu24     1.0000 0.75000  0.25000  0.45958  Biso   1.000  Cu
  O1       1.0000 0.53636  0.71573  0.29672  Biso   1.000  O
  O2       1.0000 0.96364  0.78427  0.29672  Biso   1.000  O
  O3       1.0000 0.96364  0.71573  0.20328  Biso   1.000  O
  O4       1.0000 0.53636  0.78427  0.20328  Biso   1.000  O
  O5       1.0000 0.29672  0.53636  0.71573  Biso   1.000  O
  O6       1.0000 0.29672  0.96364  0.78427  Biso   1.000  O
  O7       1.0000 0.20328  0.96364  0.71573  Biso   1.000  O
  O8       1.0000 0.20328  0.53636  0.78427  Biso   1.000  O
  O9       1.0000 0.71573  0.29672  0.53636  Biso   1.000  O
  O10      1.0000 0.78427  0.29672  0.96364  Biso   1.000  O
  O11      1.0000 0.71573  0.20328  0.96364  Biso   1.000  O
  O12      1.0000 0.78427  0.20328  0.53636  Biso   1.000  O
  O13      1.0000 0.71573  0.53636  0.20328  Biso   1.000  O
  O14      1.0000 0.78427  0.96364  0.20328  Biso   1.000  O
  O15      1.0000 0.71573  0.96364  0.29672  Biso   1.000  O
  O16      1.0000 0.78427  0.53636  0.29672  Biso   1.000  O
  O17      1.0000 0.53636  0.29672  0.78427  Biso   1.000  O
  O18      1.0000 0.96364  0.29672  0.71573  Biso   1.000  O
  O19      1.0000 0.96364  0.20328  0.78427  Biso   1.000  O
  O20      1.0000 0.53636  0.20328  0.71573  Biso   1.000  O
  O21      1.0000 0.29672  0.71573  0.96364  Biso   1.000  O
  O22      1.0000 0.29672  0.78427  0.53636  Biso   1.000  O
  O23      1.0000 0.20328  0.71573  0.53636  Biso   1.000  O
  O24      1.0000 0.20328  0.78427  0.96364  Biso   1.000  O
  O25      1.0000 0.46364  0.28427  0.70328  Biso   1.000  O
  O26      1.0000 0.03636  0.21573  0.70328  Biso   1.000  O
  O27      1.0000 0.03636  0.28427  0.79672  Biso   1.000  O
  O28      1.0000 0.46364  0.21573  0.79672  Biso   1.000  O
  O29      1.0000 0.70328  0.46364  0.28427  Biso   1.000  O
  O30      1.0000 0.70328  0.03636  0.21573  Biso   1.000  O
  O31      1.0000 0.79672  0.03636  0.28427  Biso   1.000  O
  O32      1.0000 0.79672  0.46364  0.21573  Biso   1.000  O
  O33      1.0000 0.28427  0.70328  0.46364  Biso   1.000  O
  O34      1.0000 0.21573  0.70328  0.03636  Biso   1.000  O
  O35      1.0000 0.28427  0.79672  0.03636  Biso   1.000  O
  O36      1.0000 0.21573  0.79672  0.46364  Biso   1.000  O
  O37      1.0000 0.28427  0.46364  0.79672  Biso   1.000  O
  O38      1.0000 0.21573  0.03636  0.79672  Biso   1.000  O
  O39      1.0000 0.28427  0.03636  0.70328  Biso   1.000  O
  O40      1.0000 0.21573  0.46364  0.70328  Biso   1.000  O
  O41      1.0000 0.46364  0.70328  0.21573  Biso   1.000  O
  O42      1.0000 0.03636  0.70328  0.28427  Biso   1.000  O
  O43      1.0000 0.03636  0.79672  0.21573  Biso   1.000  O
  O44      1.0000 0.46364  0.79672  0.28427  Biso   1.000  O
  O45      1.0000 0.70328  0.28427  0.03636  Biso   1.000  O
  O46      1.0000 0.70328  0.21573  0.46364  Biso   1.000  O
  O47      1.0000 0.79672  0.28427  0.46364  Biso   1.000  O
  O48      1.0000 0.79672  0.21573  0.03636  Biso   1.000  O
  O49      1.0000 0.46610  0.71540  0.29950  Biso   1.000  O
  O50      1.0000 0.03390  0.78460  0.29950  Biso   1.000  O
  O51      1.0000 0.03390  0.71540  0.20050  Biso   1.000  O
  O52      1.0000 0.46610  0.78460  0.20050  Biso   1.000  O
  O53      1.0000 0.29950  0.46610  0.71540  Biso   1.000  O
  O54      1.0000 0.29950  0.03390  0.78460  Biso   1.000  O
  O55      1.0000 0.20050  0.03390  0.71540  Biso   1.000  O
  O56      1.0000 0.20050  0.46610  0.78460  Biso   1.000  O
  O57      1.0000 0.71540  0.29950  0.46610  Biso   1.000  O
  O58      1.0000 0.78460  0.29950  0.03390  Biso   1.000  O
  O59      1.0000 0.71540  0.20050  0.03390  Biso   1.000  O
  O60      1.0000 0.78460  0.20050  0.46610  Biso   1.000  O
  O61      1.0000 0.71540  0.46610  0.20050  Biso   1.000  O
  O62      1.0000 0.78460  0.03390  0.20050  Biso   1.000  O
  O63      1.0000 0.71540  0.03390  0.29950  Biso   1.000  O
  O64      1.0000 0.78460  0.46610  0.29950  Biso   1.000  O
  O65      1.0000 0.46610  0.29950  0.78460  Biso   1.000  O
  O66      1.0000 0.03390  0.29950  0.71540  Biso   1.000  O
  O67      1.0000 0.03390  0.20050  0.78460  Biso   1.000  O
  O68      1.0000 0.46610  0.20050  0.71540  Biso   1.000  O
  O69      1.0000 0.29950  0.71540  0.03390  Biso   1.000  O
  O70      1.0000 0.29950  0.78460  0.46610  Biso   1.000  O
  O71      1.0000 0.20050  0.71540  0.46610  Biso   1.000  O
  O72      1.0000 0.20050  0.78460  0.03390  Biso   1.000  O
  O73      1.0000 0.53390  0.28460  0.70050  Biso   1.000  O
  O74      1.0000 0.96610  0.21540  0.70050  Biso   1.000  O
  O75      1.0000 0.96610  0.28460  0.79950  Biso   1.000  O
  O76      1.0000 0.53390  0.21540  0.79950  Biso   1.000  O
  O77      1.0000 0.70050  0.53390  0.28460  Biso   1.000  O
  O78      1.0000 0.70050  0.96610  0.21540  Biso   1.000  O
  O79      1.0000 0.79950  0.96610  0.28460  Biso   1.000  O
  O80      1.0000 0.79950  0.53390  0.21540  Biso   1.000  O
  O81      1.0000 0.28460  0.70050  0.53390  Biso   1.000  O
  O82      1.0000 0.21540  0.70050  0.96610  Biso   1.000  O
  O83      1.0000 0.28460  0.79950  0.96610  Biso   1.000  O
  O84      1.0000 0.21540  0.79950  0.53390  Biso   1.000  O
  O85      1.0000 0.28460  0.53390  0.79950  Biso   1.000  O
  O86      1.0000 0.21540  0.96610  0.79950  Biso   1.000  O
  O87      1.0000 0.28460  0.96610  0.70050  Biso   1.000  O
  O88      1.0000 0.21540  0.53390  0.70050  Biso   1.000  O
  O89      1.0000 0.53390  0.70050  0.21540  Biso   1.000  O
  O90      1.0000 0.96610  0.70050  0.28460  Biso   1.000  O
  O91      1.0000 0.96610  0.79950  0.21540  Biso   1.000  O
  O92      1.0000 0.53390  0.79950  0.28460  Biso   1.000  O
  O93      1.0000 0.70050  0.28460  0.96610  Biso   1.000  O
  O94      1.0000 0.70050  0.21540  0.53390  Biso   1.000  O
  O95      1.0000 0.79950  0.28460  0.53390  Biso   1.000  O
  O96      1.0000 0.79950  0.21540  0.96610  Biso   1.000  O
  O97      1.0000 0.56690  0.57440  0.44460  Biso   1.000  O
  O98      1.0000 0.93310  0.92560  0.44460  Biso   1.000  O
  O99      1.0000 0.93310  0.57440  0.05540  Biso   1.000  O
  O100     1.0000 0.56690  0.92560  0.05540  Biso   1.000  O
  O101     1.0000 0.44460  0.56690  0.57440  Biso   1.000  O
  O102     1.0000 0.44460  0.93310  0.92560  Biso   1.000  O
  O103     1.0000 0.05540  0.93310  0.57440  Biso   1.000  O
  O104     1.0000 0.05540  0.56690  0.92560  Biso   1.000  O
  O105     1.0000 0.57440  0.44460  0.56690  Biso   1.000  O
  O106     1.0000 0.92560  0.44460  0.93310  Biso   1.000  O
  O107     1.0000 0.57440  0.05540  0.93310  Biso   1.000  O
  O108     1.0000 0.92560  0.05540  0.56690  Biso   1.000  O
  O109     1.0000 0.57440  0.56690  0.05540  Biso   1.000  O
  O110     1.0000 0.92560  0.93310  0.05540  Biso   1.000  O
  O111     1.0000 0.57440  0.93310  0.44460  Biso   1.000  O
  O112     1.0000 0.92560  0.56690  0.44460  Biso   1.000  O
  O113     1.0000 0.56690  0.44460  0.92560  Biso   1.000  O
  O114     1.0000 0.93310  0.44460  0.57440  Biso   1.000  O
  O115     1.0000 0.93310  0.05540  0.92560  Biso   1.000  O
  O116     1.0000 0.56690  0.05540  0.57440  Biso   1.000  O
  O117     1.0000 0.44460  0.57440  0.93310  Biso   1.000  O
  O118     1.0000 0.44460  0.92560  0.56690  Biso   1.000  O
  O119     1.0000 0.05540  0.57440  0.56690  Biso   1.000  O
  O120     1.0000 0.05540  0.92560  0.93310  Biso   1.000  O
  O121     1.0000 0.43310  0.42560  0.55540  Biso   1.000  O
  O122     1.0000 0.06690  0.07440  0.55540  Biso   1.000  O
  O123     1.0000 0.06690  0.42560  0.94460  Biso   1.000  O
  O124     1.0000 0.43310  0.07440  0.94460  Biso   1.000  O
  O125     1.0000 0.55540  0.43310  0.42560  Biso   1.000  O
  O126     1.0000 0.55540  0.06690  0.07440  Biso   1.000  O
  O127     1.0000 0.94460  0.06690  0.42560  Biso   1.000  O
  O128     1.0000 0.94460  0.43310  0.07440  Biso   1.000  O
  O129     1.0000 0.42560  0.55540  0.43310  Biso   1.000  O
  O130     1.0000 0.07440  0.55540  0.06690  Biso   1.000  O
  O131     1.0000 0.42560  0.94460  0.06690  Biso   1.000  O
  O132     1.0000 0.07440  0.94460  0.43310  Biso   1.000  O
  O133     1.0000 0.42560  0.43310  0.94460  Biso   1.000  O
  O134     1.0000 0.07440  0.06690  0.94460  Biso   1.000  O
  O135     1.0000 0.42560  0.06690  0.55540  Biso   1.000  O
  O136     1.0000 0.07440  0.43310  0.55540  Biso   1.000  O
  O137     1.0000 0.43310  0.55540  0.07440  Biso   1.000  O
  O138     1.0000 0.06690  0.55540  0.42560  Biso   1.000  O
  O139     1.0000 0.06690  0.94460  0.07440  Biso   1.000  O
  O140     1.0000 0.43310  0.94460  0.42560  Biso   1.000  O
  O141     1.0000 0.55540  0.42560  0.06690  Biso   1.000  O
  O142     1.0000 0.55540  0.07440  0.43310  Biso   1.000  O
  O143     1.0000 0.94460  0.42560  0.43310  Biso   1.000  O
  O144     1.0000 0.94460  0.07440  0.06690  Biso   1.000  O
  O145     1.0000 0.60270  0.75000  0.25000  Biso   1.000  O
  O146     1.0000 0.89730  0.75000  0.25000  Biso   1.000  O
  O147     1.0000 0.25000  0.60270  0.75000  Biso   1.000  O
  O148     1.0000 0.25000  0.89730  0.75000  Biso   1.000  O
  O149     1.0000 0.75000  0.25000  0.60270  Biso   1.000  O
  O150     1.0000 0.75000  0.25000  0.89730  Biso   1.000  O
  O151     1.0000 0.75000  0.60270  0.25000  Biso   1.000  O
  O152     1.0000 0.75000  0.89730  0.25000  Biso   1.000  O
  O153     1.0000 0.60270  0.25000  0.75000  Biso   1.000  O
  O154     1.0000 0.89730  0.25000  0.75000  Biso   1.000  O
  O155     1.0000 0.25000  0.75000  0.89730  Biso   1.000  O
  O156     1.0000 0.25000  0.75000  0.60270  Biso   1.000  O
  O157     1.0000 0.39730  0.25000  0.75000  Biso   1.000  O
  O158     1.0000 0.10270  0.25000  0.75000  Biso   1.000  O
  O159     1.0000 0.75000  0.39730  0.25000  Biso   1.000  O
  O160     1.0000 0.75000  0.10270  0.25000  Biso   1.000  O
  O161     1.0000 0.25000  0.75000  0.39730  Biso   1.000  O
  O162     1.0000 0.25000  0.75000  0.10270  Biso   1.000  O
  O163     1.0000 0.25000  0.39730  0.75000  Biso   1.000  O
  O164     1.0000 0.25000  0.10270  0.75000  Biso   1.000  O
  O165     1.0000 0.39730  0.75000  0.25000  Biso   1.000  O
  O166     1.0000 0.10270  0.75000  0.25000  Biso   1.000  O
  O167     1.0000 0.75000  0.25000  0.10270  Biso   1.000  O
  O168     1.0000 0.75000  0.25000  0.39730  Biso   1.000  O
  N1       1.0000 0.50630  0.61040  0.45350  Biso   1.000  N
  N2       1.0000 0.99370  0.88960  0.45350  Biso   1.000  N
  N3       1.0000 0.99370  0.61040  0.04650  Biso   1.000  N
  N4       1.0000 0.50630  0.88960  0.04650  Biso   1.000  N
  N5       1.0000 0.45350  0.50630  0.61040  Biso   1.000  N
  N6       1.0000 0.45350  0.99370  0.88960  Biso   1.000  N
  N7       1.0000 0.04650  0.99370  0.61040  Biso   1.000  N
  N8       1.0000 0.04650  0.50630  0.88960  Biso   1.000  N
  N9       1.0000 0.61040  0.45350  0.50630  Biso   1.000  N
  N10      1.0000 0.88960  0.45350  0.99370  Biso   1.000  N
  N11      1.0000 0.61040  0.04650  0.99370  Biso   1.000  N
  N12      1.0000 0.88960  0.04650  0.50630  Biso   1.000  N
  N13      1.0000 0.61040  0.50630  0.04650  Biso   1.000  N
  N14      1.0000 0.88960  0.99370  0.04650  Biso   1.000  N
  N15      1.0000 0.61040  0.99370  0.45350  Biso   1.000  N
  N16      1.0000 0.88960  0.50630  0.45350  Biso   1.000  N
  N17      1.0000 0.50630  0.45350  0.88960  Biso   1.000  N
  N18      1.0000 0.99370  0.45350  0.61040  Biso   1.000  N
  N19      1.0000 0.99370  0.04650  0.88960  Biso   1.000  N
  N20      1.0000 0.50630  0.04650  0.61040  Biso   1.000  N
  N21      1.0000 0.45350  0.61040  0.99370  Biso   1.000  N
  N22      1.0000 0.45350  0.88960  0.50630  Biso   1.000  N
  N23      1.0000 0.04650  0.61040  0.50630  Biso   1.000  N
  N24      1.0000 0.04650  0.88960  0.99370  Biso   1.000  N
  N25      1.0000 0.49370  0.38960  0.54650  Biso   1.000  N
  N26      1.0000 0.00630  0.11040  0.54650  Biso   1.000  N
  N27      1.0000 0.00630  0.38960  0.95350  Biso   1.000  N
  N28      1.0000 0.49370  0.11040  0.95350  Biso   1.000  N
  N29      1.0000 0.54650  0.49370  0.38960  Biso   1.000  N
  N30      1.0000 0.54650  0.00630  0.11040  Biso   1.000  N
  N31      1.0000 0.95350  0.00630  0.38960  Biso   1.000  N
  N32      1.0000 0.95350  0.49370  0.11040  Biso   1.000  N
  N33      1.0000 0.38960  0.54650  0.49370  Biso   1.000  N
  N34      1.0000 0.11040  0.54650  0.00630  Biso   1.000  N
  N35      1.0000 0.38960  0.95350  0.00630  Biso   1.000  N
  N36      1.0000 0.11040  0.95350  0.49370  Biso   1.000  N
  N37      1.0000 0.38960  0.49370  0.95350  Biso   1.000  N
  N38      1.0000 0.11040  0.00630  0.95350  Biso   1.000  N
  N39      1.0000 0.38960  0.00630  0.54650  Biso   1.000  N
  N40      1.0000 0.11040  0.49370  0.54650  Biso   1.000  N
  N41      1.0000 0.49370  0.54650  0.11040  Biso   1.000  N
  N42      1.0000 0.00630  0.54650  0.38960  Biso   1.000  N
  N43      1.0000 0.00630  0.95350  0.11040  Biso   1.000  N
  N44      1.0000 0.49370  0.95350  0.38960  Biso   1.000  N
  N45      1.0000 0.54650  0.38960  0.00630  Biso   1.000  N
  N46      1.0000 0.54650  0.11040  0.49370  Biso   1.000  N
  N47      1.0000 0.95350  0.38960  0.49370  Biso   1.000  N
  N48      1.0000 0.95350  0.11040  0.00630  Biso   1.000  N
  H1       1.0000 0.48590  0.61400  0.47110  Biso   1.000  H
  H2       1.0000 0.01410  0.88600  0.47110  Biso   1.000  H
  H3       1.0000 0.01410  0.61400  0.02890  Biso   1.000  H
  H4       1.0000 0.48590  0.88600  0.02890  Biso   1.000  H
  H5       1.0000 0.47110  0.48590  0.61400  Biso   1.000  H
  H6       1.0000 0.47110  0.01410  0.88600  Biso   1.000  H
  H7       1.0000 0.02890  0.01410  0.61400  Biso   1.000  H
  H8       1.0000 0.02890  0.48590  0.88600  Biso   1.000  H
  H9       1.0000 0.61400  0.47110  0.48590  Biso   1.000  H
  H10      1.0000 0.88600  0.47110  0.01410  Biso   1.000  H
  H11      1.0000 0.61400  0.02890  0.01410  Biso   1.000  H
  H12      1.0000 0.88600  0.02890  0.48590  Biso   1.000  H
  H13      1.0000 0.61400  0.48590  0.02890  Biso   1.000  H
  H14      1.0000 0.88600  0.01410  0.02890  Biso   1.000  H
  H15      1.0000 0.61400  0.01410  0.47110  Biso   1.000  H
  H16      1.0000 0.88600  0.48590  0.47110  Biso   1.000  H
  H17      1.0000 0.48590  0.47110  0.88600  Biso   1.000  H
  H18      1.0000 0.01410  0.47110  0.61400  Biso   1.000  H
  H19      1.0000 0.01410  0.02890  0.88600  Biso   1.000  H
  H20      1.0000 0.48590  0.02890  0.61400  Biso   1.000  H
  H21      1.0000 0.47110  0.61400  0.01410  Biso   1.000  H
  H22      1.0000 0.47110  0.88600  0.48590  Biso   1.000  H
  H23      1.0000 0.02890  0.61400  0.48590  Biso   1.000  H
  H24      1.0000 0.02890  0.88600  0.01410  Biso   1.000  H
  H25      1.0000 0.51410  0.38600  0.52890  Biso   1.000  H
  H26      1.0000 0.98590  0.11400  0.52890  Biso   1.000  H
  H27      1.0000 0.98590  0.38600  0.97110  Biso   1.000  H
  H28      1.0000 0.51410  0.11400  0.97110  Biso   1.000  H
  H29      1.0000 0.52890  0.51410  0.38600  Biso   1.000  H
  H30      1.0000 0.52890  0.98590  0.11400  Biso   1.000  H
  H31      1.0000 0.97110  0.98590  0.38600  Biso   1.000  H
  H32      1.0000 0.97110  0.51410  0.11400  Biso   1.000  H
  H33      1.0000 0.38600  0.52890  0.51410  Biso   1.000  H
  H34      1.0000 0.11400  0.52890  0.98590  Biso   1.000  H
  H35      1.0000 0.38600  0.97110  0.98590  Biso   1.000  H
  H36      1.0000 0.11400  0.97110  0.51410  Biso   1.000  H
  H37      1.0000 0.38600  0.51410  0.97110  Biso   1.000  H
  H38      1.0000 0.11400  0.98590  0.97110  Biso   1.000  H
  H39      1.0000 0.38600  0.98590  0.52890  Biso   1.000  H
  H40      1.0000 0.11400  0.51410  0.52890  Biso   1.000  H
  H41      1.0000 0.51410  0.52890  0.11400  Biso   1.000  H
  H42      1.0000 0.98590  0.52890  0.38600  Biso   1.000  H
  H43      1.0000 0.98590  0.97110  0.11400  Biso   1.000  H
  H44      1.0000 0.51410  0.97110  0.38600  Biso   1.000  H
  H45      1.0000 0.52890  0.38600  0.98590  Biso   1.000  H
  H46      1.0000 0.52890  0.11400  0.51410  Biso   1.000  H
  H47      1.0000 0.97110  0.38600  0.51410  Biso   1.000  H
  H48      1.0000 0.97110  0.11400  0.98590  Biso   1.000  H
  C1       1.0000 0.50210  0.71000  0.30993  Biso   1.000  C
  C2       1.0000 0.99790  0.79000  0.30993  Biso   1.000  C
  C3       1.0000 0.99790  0.71000  0.19007  Biso   1.000  C
  C4       1.0000 0.50210  0.79000  0.19007  Biso   1.000  C
  C5       1.0000 0.30993  0.50210  0.71000  Biso   1.000  C
  C6       1.0000 0.30993  0.99790  0.79000  Biso   1.000  C
  C7       1.0000 0.19007  0.99790  0.71000  Biso   1.000  C
  C8       1.0000 0.19007  0.50210  0.79000  Biso   1.000  C
  C9       1.0000 0.71000  0.30993  0.50210  Biso   1.000  C
  C10      1.0000 0.79000  0.30993  0.99790  Biso   1.000  C
  C11      1.0000 0.71000  0.19007  0.99790  Biso   1.000  C
  C12      1.0000 0.79000  0.19007  0.50210  Biso   1.000  C
  C13      1.0000 0.71000  0.50210  0.19007  Biso   1.000  C
  C14      1.0000 0.79000  0.99790  0.19007  Biso   1.000  C
  C15      1.0000 0.71000  0.99790  0.30993  Biso   1.000  C
  C16      1.0000 0.79000  0.50210  0.30993  Biso   1.000  C
  C17      1.0000 0.50210  0.30993  0.79000  Biso   1.000  C
  C18      1.0000 0.99790  0.30993  0.71000  Biso   1.000  C
  C19      1.0000 0.99790  0.19007  0.79000  Biso   1.000  C
  C20      1.0000 0.50210  0.19007  0.71000  Biso   1.000  C
  C21      1.0000 0.30993  0.71000  0.99790  Biso   1.000  C
  C22      1.0000 0.30993  0.79000  0.50210  Biso   1.000  C
  C23      1.0000 0.19007  0.71000  0.50210  Biso   1.000  C
  C24      1.0000 0.19007  0.79000  0.99790  Biso   1.000  C
  C25      1.0000 0.49790  0.29000  0.69007  Biso   1.000  C
  C26      1.0000 0.00210  0.21000  0.69007  Biso   1.000  C
  C27      1.0000 0.00210  0.29000  0.80993  Biso   1.000  C
  C28      1.0000 0.49790  0.21000  0.80993  Biso   1.000  C
  C29      1.0000 0.69007  0.49790  0.29000  Biso   1.000  C
  C30      1.0000 0.69007  0.00210  0.21000  Biso   1.000  C
  C31      1.0000 0.80993  0.00210  0.29000  Biso   1.000  C
  C32      1.0000 0.80993  0.49790  0.21000  Biso   1.000  C
  C33      1.0000 0.29000  0.69007  0.49790  Biso   1.000  C
  C34      1.0000 0.21000  0.69007  0.00210  Biso   1.000  C
  C35      1.0000 0.29000  0.80993  0.00210  Biso   1.000  C
  C36      1.0000 0.21000  0.80993  0.49790  Biso   1.000  C
  C37      1.0000 0.29000  0.49790  0.80993  Biso   1.000  C
  C38      1.0000 0.21000  0.00210  0.80993  Biso   1.000  C
  C39      1.0000 0.29000  0.00210  0.69007  Biso   1.000  C
  C40      1.0000 0.21000  0.49790  0.69007  Biso   1.000  C
  C41      1.0000 0.49790  0.69007  0.21000  Biso   1.000  C
  C42      1.0000 0.00210  0.69007  0.29000  Biso   1.000  C
  C43      1.0000 0.00210  0.80993  0.21000  Biso   1.000  C
  C44      1.0000 0.49790  0.80993  0.29000  Biso   1.000  C
  C45      1.0000 0.69007  0.29000  0.00210  Biso   1.000  C
  C46      1.0000 0.69007  0.21000  0.49790  Biso   1.000  C
  C47      1.0000 0.80993  0.29000  0.49790  Biso   1.000  C
  C48      1.0000 0.80993  0.21000  0.00210  Biso   1.000  C
  C49      1.0000 0.50700  0.68385  0.34870  Biso   1.000  C
  C50      1.0000 0.99300  0.81615  0.34870  Biso   1.000  C
  C51      1.0000 0.99300  0.68385  0.15130  Biso   1.000  C
  C52      1.0000 0.50700  0.81615  0.15130  Biso   1.000  C
  C53      1.0000 0.34870  0.50700  0.68385  Biso   1.000  C
  C54      1.0000 0.34870  0.99300  0.81615  Biso   1.000  C
  C55      1.0000 0.15130  0.99300  0.68385  Biso   1.000  C
  C56      1.0000 0.15130  0.50700  0.81615  Biso   1.000  C
  C57      1.0000 0.68385  0.34870  0.50700  Biso   1.000  C
  C58      1.0000 0.81615  0.34870  0.99300  Biso   1.000  C
  C59      1.0000 0.68385  0.15130  0.99300  Biso   1.000  C
  C60      1.0000 0.81615  0.15130  0.50700  Biso   1.000  C
  C61      1.0000 0.68385  0.50700  0.15130  Biso   1.000  C
  C62      1.0000 0.81615  0.99300  0.15130  Biso   1.000  C
  C63      1.0000 0.68385  0.99300  0.34870  Biso   1.000  C
  C64      1.0000 0.81615  0.50700  0.34870  Biso   1.000  C
  C65      1.0000 0.50700  0.34870  0.81615  Biso   1.000  C
  C66      1.0000 0.99300  0.34870  0.68385  Biso   1.000  C
  C67      1.0000 0.99300  0.15130  0.81615  Biso   1.000  C
  C68      1.0000 0.50700  0.15130  0.68385  Biso   1.000  C
  C69      1.0000 0.34870  0.68385  0.99300  Biso   1.000  C
  C70      1.0000 0.34870  0.81615  0.50700  Biso   1.000  C
  C71      1.0000 0.15130  0.68385  0.50700  Biso   1.000  C
  C72      1.0000 0.15130  0.81615  0.99300  Biso   1.000  C
  C73      1.0000 0.49300  0.31615  0.65130  Biso   1.000  C
  C74      1.0000 0.00700  0.18385  0.65130  Biso   1.000  C
  C75      1.0000 0.00700  0.31615  0.84870  Biso   1.000  C
  C76      1.0000 0.49300  0.18385  0.84870  Biso   1.000  C
  C77      1.0000 0.65130  0.49300  0.31615  Biso   1.000  C
  C78      1.0000 0.65130  0.00700  0.18385  Biso   1.000  C
  C79      1.0000 0.84870  0.00700  0.31615  Biso   1.000  C
  C80      1.0000 0.84870  0.49300  0.18385  Biso   1.000  C
  C81      1.0000 0.31615  0.65130  0.49300  Biso   1.000  C
  C82      1.0000 0.18385  0.65130  0.00700  Biso   1.000  C
  C83      1.0000 0.31615  0.84870  0.00700  Biso   1.000  C
  C84      1.0000 0.18385  0.84870  0.49300  Biso   1.000  C
  C85      1.0000 0.31615  0.49300  0.84870  Biso   1.000  C
  C86      1.0000 0.18385  0.00700  0.84870  Biso   1.000  C
  C87      1.0000 0.31615  0.00700  0.65130  Biso   1.000  C
  C88      1.0000 0.18385  0.49300  0.65130  Biso   1.000  C
  C89      1.0000 0.49300  0.65130  0.18385  Biso   1.000  C
  C90      1.0000 0.00700  0.65130  0.31615  Biso   1.000  C
  C91      1.0000 0.00700  0.84870  0.18385  Biso   1.000  C
  C92      1.0000 0.49300  0.84870  0.31615  Biso   1.000  C
  C93      1.0000 0.65130  0.31615  0.00700  Biso   1.000  C
  C94      1.0000 0.65130  0.18385  0.49300  Biso   1.000  C
  C95      1.0000 0.84870  0.31615  0.49300  Biso   1.000  C
  C96      1.0000 0.84870  0.18385  0.00700  Biso   1.000  C
  C97      1.0000 0.54430  0.67044  0.36524  Biso   1.000  C
  C98      1.0000 0.95570  0.82956  0.36524  Biso   1.000  C
  C99      1.0000 0.95570  0.67044  0.13476  Biso   1.000  C
  C100     1.0000 0.54430  0.82956  0.13476  Biso   1.000  C
  C101     1.0000 0.36524  0.54430  0.67044  Biso   1.000  C
  C102     1.0000 0.36524  0.95570  0.82956  Biso   1.000  C
  C103     1.0000 0.13476  0.95570  0.67044  Biso   1.000  C
  C104     1.0000 0.13476  0.54430  0.82956  Biso   1.000  C
  C105     1.0000 0.67044  0.36524  0.54430  Biso   1.000  C
  C106     1.0000 0.82956  0.36524  0.95570  Biso   1.000  C
  C107     1.0000 0.67044  0.13476  0.95570  Biso   1.000  C
  C108     1.0000 0.82956  0.13476  0.54430  Biso   1.000  C
  C109     1.0000 0.67044  0.54430  0.13476  Biso   1.000  C
  C110     1.0000 0.82956  0.95570  0.13476  Biso   1.000  C
  C111     1.0000 0.67044  0.95570  0.36524  Biso   1.000  C
  C112     1.0000 0.82956  0.54430  0.36524  Biso   1.000  C
  C113     1.0000 0.54430  0.36524  0.82956  Biso   1.000  C
  C114     1.0000 0.95570  0.36524  0.67044  Biso   1.000  C
  C115     1.0000 0.95570  0.13476  0.82956  Biso   1.000  C
  C116     1.0000 0.54430  0.13476  0.67044  Biso   1.000  C
  C117     1.0000 0.36524  0.67044  0.95570  Biso   1.000  C
  C118     1.0000 0.36524  0.82956  0.54430  Biso   1.000  C
  C119     1.0000 0.13476  0.67044  0.54430  Biso   1.000  C
  C120     1.0000 0.13476  0.82956  0.95570  Biso   1.000  C
  C121     1.0000 0.45570  0.32956  0.63476  Biso   1.000  C
  C122     1.0000 0.04430  0.17044  0.63476  Biso   1.000  C
  C123     1.0000 0.04430  0.32956  0.86524  Biso   1.000  C
  C124     1.0000 0.45570  0.17044  0.86524  Biso   1.000  C
  C125     1.0000 0.63476  0.45570  0.32956  Biso   1.000  C
  C126     1.0000 0.63476  0.04430  0.17044  Biso   1.000  C
  C127     1.0000 0.86524  0.04430  0.32956  Biso   1.000  C
  C128     1.0000 0.86524  0.45570  0.17044  Biso   1.000  C
  C129     1.0000 0.32956  0.63476  0.45570  Biso   1.000  C
  C130     1.0000 0.17044  0.63476  0.04430  Biso   1.000  C
  C131     1.0000 0.32956  0.86524  0.04430  Biso   1.000  C
  C132     1.0000 0.17044  0.86524  0.45570  Biso   1.000  C
  C133     1.0000 0.32956  0.45570  0.86524  Biso   1.000  C
  C134     1.0000 0.17044  0.04430  0.86524  Biso   1.000  C
  C135     1.0000 0.32956  0.04430  0.63476  Biso   1.000  C
  C136     1.0000 0.17044  0.45570  0.63476  Biso   1.000  C
  C137     1.0000 0.45570  0.63476  0.17044  Biso   1.000  C
  C138     1.0000 0.04430  0.63476  0.32956  Biso   1.000  C
  C139     1.0000 0.04430  0.86524  0.17044  Biso   1.000  C
  C140     1.0000 0.45570  0.86524  0.32956  Biso   1.000  C
  C141     1.0000 0.63476  0.32956  0.04430  Biso   1.000  C
  C142     1.0000 0.63476  0.17044  0.45570  Biso   1.000  C
  C143     1.0000 0.86524  0.32956  0.45570  Biso   1.000  C
  C144     1.0000 0.86524  0.17044  0.04430  Biso   1.000  C
  H49      1.0000 0.56960  0.67840  0.35270  Biso   1.000  H
  H50      1.0000 0.93040  0.82160  0.35270  Biso   1.000  H
  H51      1.0000 0.93040  0.67840  0.14730  Biso   1.000  H
  H52      1.0000 0.56960  0.82160  0.14730  Biso   1.000  H
  H53      1.0000 0.35270  0.56960  0.67840  Biso   1.000  H
  H54      1.0000 0.35270  0.93040  0.82160  Biso   1.000  H
  H55      1.0000 0.14730  0.93040  0.67840  Biso   1.000  H
  H56      1.0000 0.14730  0.56960  0.82160  Biso   1.000  H
  H57      1.0000 0.67840  0.35270  0.56960  Biso   1.000  H
  H58      1.0000 0.82160  0.35270  0.93040  Biso   1.000  H
  H59      1.0000 0.67840  0.14730  0.93040  Biso   1.000  H
  H60      1.0000 0.82160  0.14730  0.56960  Biso   1.000  H
  H61      1.0000 0.67840  0.56960  0.14730  Biso   1.000  H
  H62      1.0000 0.82160  0.93040  0.14730  Biso   1.000  H
  H63      1.0000 0.67840  0.93040  0.35270  Biso   1.000  H
  H64      1.0000 0.82160  0.56960  0.35270  Biso   1.000  H
  H65      1.0000 0.56960  0.35270  0.82160  Biso   1.000  H
  H66      1.0000 0.93040  0.35270  0.67840  Biso   1.000  H
  H67      1.0000 0.93040  0.14730  0.82160  Biso   1.000  H
  H68      1.0000 0.56960  0.14730  0.67840  Biso   1.000  H
  H69      1.0000 0.35270  0.67840  0.93040  Biso   1.000  H
  H70      1.0000 0.35270  0.82160  0.56960  Biso   1.000  H
  H71      1.0000 0.14730  0.67840  0.56960  Biso   1.000  H
  H72      1.0000 0.14730  0.82160  0.93040  Biso   1.000  H
  H73      1.0000 0.43040  0.32160  0.64730  Biso   1.000  H
  H74      1.0000 0.06960  0.17840  0.64730  Biso   1.000  H
  H75      1.0000 0.06960  0.32160  0.85270  Biso   1.000  H
  H76      1.0000 0.43040  0.17840  0.85270  Biso   1.000  H
  H77      1.0000 0.64730  0.43040  0.32160  Biso   1.000  H
  H78      1.0000 0.64730  0.06960  0.17840  Biso   1.000  H
  H79      1.0000 0.85270  0.06960  0.32160  Biso   1.000  H
  H80      1.0000 0.85270  0.43040  0.17840  Biso   1.000  H
  H81      1.0000 0.32160  0.64730  0.43040  Biso   1.000  H
  H82      1.0000 0.17840  0.64730  0.06960  Biso   1.000  H
  H83      1.0000 0.32160  0.85270  0.06960  Biso   1.000  H
  H84      1.0000 0.17840  0.85270  0.43040  Biso   1.000  H
  H85      1.0000 0.32160  0.43040  0.85270  Biso   1.000  H
  H86      1.0000 0.17840  0.06960  0.85270  Biso   1.000  H
  H87      1.0000 0.32160  0.06960  0.64730  Biso   1.000  H
  H88      1.0000 0.17840  0.43040  0.64730  Biso   1.000  H
  H89      1.0000 0.43040  0.64730  0.17840  Biso   1.000  H
  H90      1.0000 0.06960  0.64730  0.32160  Biso   1.000  H
  H91      1.0000 0.06960  0.85270  0.17840  Biso   1.000  H
  H92      1.0000 0.43040  0.85270  0.32160  Biso   1.000  H
  H93      1.0000 0.64730  0.32160  0.06960  Biso   1.000  H
  H94      1.0000 0.64730  0.17840  0.43040  Biso   1.000  H
  H95      1.0000 0.85270  0.32160  0.43040  Biso   1.000  H
  H96      1.0000 0.85270  0.17840  0.06960  Biso   1.000  H
  C145     1.0000 0.54450  0.64531  0.40007  Biso   1.000  C
  C146     1.0000 0.95550  0.85469  0.40007  Biso   1.000  C
  C147     1.0000 0.95550  0.64531  0.09993  Biso   1.000  C
  C148     1.0000 0.54450  0.85469  0.09993  Biso   1.000  C
  C149     1.0000 0.40007  0.54450  0.64531  Biso   1.000  C
  C150     1.0000 0.40007  0.95550  0.85469  Biso   1.000  C
  C151     1.0000 0.09993  0.95550  0.64531  Biso   1.000  C
  C152     1.0000 0.09993  0.54450  0.85469  Biso   1.000  C
  C153     1.0000 0.64531  0.40007  0.54450  Biso   1.000  C
  C154     1.0000 0.85469  0.40007  0.95550  Biso   1.000  C
  C155     1.0000 0.64531  0.09993  0.95550  Biso   1.000  C
  C156     1.0000 0.85469  0.09993  0.54450  Biso   1.000  C
  C157     1.0000 0.64531  0.54450  0.09993  Biso   1.000  C
  C158     1.0000 0.85469  0.95550  0.09993  Biso   1.000  C
  C159     1.0000 0.64531  0.95550  0.40007  Biso   1.000  C
  C160     1.0000 0.85469  0.54450  0.40007  Biso   1.000  C
  C161     1.0000 0.54450  0.40007  0.85469  Biso   1.000  C
  C162     1.0000 0.95550  0.40007  0.64531  Biso   1.000  C
  C163     1.0000 0.95550  0.09993  0.85469  Biso   1.000  C
  C164     1.0000 0.54450  0.09993  0.64531  Biso   1.000  C
  C165     1.0000 0.40007  0.64531  0.95550  Biso   1.000  C
  C166     1.0000 0.40007  0.85469  0.54450  Biso   1.000  C
  C167     1.0000 0.09993  0.64531  0.54450  Biso   1.000  C
  C168     1.0000 0.09993  0.85469  0.95550  Biso   1.000  C
  C169     1.0000 0.45550  0.35469  0.59993  Biso   1.000  C
  C170     1.0000 0.04450  0.14531  0.59993  Biso   1.000  C
  C171     1.0000 0.04450  0.35469  0.90007  Biso   1.000  C
  C172     1.0000 0.45550  0.14531  0.90007  Biso   1.000  C
  C173     1.0000 0.59993  0.45550  0.35469  Biso   1.000  C
  C174     1.0000 0.59993  0.04450  0.14531  Biso   1.000  C
  C175     1.0000 0.90007  0.04450  0.35469  Biso   1.000  C
  C176     1.0000 0.90007  0.45550  0.14531  Biso   1.000  C
  C177     1.0000 0.35469  0.59993  0.45550  Biso   1.000  C
  C178     1.0000 0.14531  0.59993  0.04450  Biso   1.000  C
  C179     1.0000 0.35469  0.90007  0.04450  Biso   1.000  C
  C180     1.0000 0.14531  0.90007  0.45550  Biso   1.000  C
  C181     1.0000 0.35469  0.45550  0.90007  Biso   1.000  C
  C182     1.0000 0.14531  0.04450  0.90007  Biso   1.000  C
  C183     1.0000 0.35469  0.04450  0.59993  Biso   1.000  C
  C184     1.0000 0.14531  0.45550  0.59993  Biso   1.000  C
  C185     1.0000 0.45550  0.59993  0.14531  Biso   1.000  C
  C186     1.0000 0.04450  0.59993  0.35469  Biso   1.000  C
  C187     1.0000 0.04450  0.90007  0.14531  Biso   1.000  C
  C188     1.0000 0.45550  0.90007  0.35469  Biso   1.000  C
  C189     1.0000 0.59993  0.35469  0.04450  Biso   1.000  C
  C190     1.0000 0.59993  0.14531  0.45550  Biso   1.000  C
  C191     1.0000 0.90007  0.35469  0.45550  Biso   1.000  C
  C192     1.0000 0.90007  0.14531  0.04450  Biso   1.000  C
  H97      1.0000 0.57000  0.63610  0.41140  Biso   1.000  H
  H98      1.0000 0.93000  0.86390  0.41140  Biso   1.000  H
  H99      1.0000 0.93000  0.63610  0.08860  Biso   1.000  H
  H100     1.0000 0.57000  0.86390  0.08860  Biso   1.000  H
  H101     1.0000 0.41140  0.57000  0.63610  Biso   1.000  H
  H102     1.0000 0.41140  0.93000  0.86390  Biso   1.000  H
  H103     1.0000 0.08860  0.93000  0.63610  Biso   1.000  H
  H104     1.0000 0.08860  0.57000  0.86390  Biso   1.000  H
  H105     1.0000 0.63610  0.41140  0.57000  Biso   1.000  H
  H106     1.0000 0.86390  0.41140  0.93000  Biso   1.000  H
  H107     1.0000 0.63610  0.08860  0.93000  Biso   1.000  H
  H108     1.0000 0.86390  0.08860  0.57000  Biso   1.000  H
  H109     1.0000 0.63610  0.57000  0.08860  Biso   1.000  H
  H110     1.0000 0.86390  0.93000  0.08860  Biso   1.000  H
  H111     1.0000 0.63610  0.93000  0.41140  Biso   1.000  H
  H112     1.0000 0.86390  0.57000  0.41140  Biso   1.000  H
  H113     1.0000 0.57000  0.41140  0.86390  Biso   1.000  H
  H114     1.0000 0.93000  0.41140  0.63610  Biso   1.000  H
  H115     1.0000 0.93000  0.08860  0.86390  Biso   1.000  H
  H116     1.0000 0.57000  0.08860  0.63610  Biso   1.000  H
  H117     1.0000 0.41140  0.63610  0.93000  Biso   1.000  H
  H118     1.0000 0.41140  0.86390  0.57000  Biso   1.000  H
  H119     1.0000 0.08860  0.63610  0.57000  Biso   1.000  H
  H120     1.0000 0.08860  0.86390  0.93000  Biso   1.000  H
  H121     1.0000 0.43000  0.36390  0.58860  Biso   1.000  H
  H122     1.0000 0.07000  0.13610  0.58860  Biso   1.000  H
  H123     1.0000 0.07000  0.36390  0.91140  Biso   1.000  H
  H124     1.0000 0.43000  0.13610  0.91140  Biso   1.000  H
  H125     1.0000 0.58860  0.43000  0.36390  Biso   1.000  H
  H126     1.0000 0.58860  0.07000  0.13610  Biso   1.000  H
  H127     1.0000 0.91140  0.07000  0.36390  Biso   1.000  H
  H128     1.0000 0.91140  0.43000  0.13610  Biso   1.000  H
  H129     1.0000 0.36390  0.58860  0.43000  Biso   1.000  H
  H130     1.0000 0.13610  0.58860  0.07000  Biso   1.000  H
  H131     1.0000 0.36390  0.91140  0.07000  Biso   1.000  H
  H132     1.0000 0.13610  0.91140  0.43000  Biso   1.000  H
  H133     1.0000 0.36390  0.43000  0.91140  Biso   1.000  H
  H134     1.0000 0.13610  0.07000  0.91140  Biso   1.000  H
  H135     1.0000 0.36390  0.07000  0.58860  Biso   1.000  H
  H136     1.0000 0.13610  0.43000  0.58860  Biso   1.000  H
  H137     1.0000 0.43000  0.58860  0.13610  Biso   1.000  H
  H138     1.0000 0.07000  0.58860  0.36390  Biso   1.000  H
  H139     1.0000 0.07000  0.91140  0.13610  Biso   1.000  H
  H140     1.0000 0.43000  0.91140  0.36390  Biso   1.000  H
  H141     1.0000 0.58860  0.36390  0.07000  Biso   1.000  H
  H142     1.0000 0.58860  0.13610  0.43000  Biso   1.000  H
  H143     1.0000 0.91140  0.36390  0.43000  Biso   1.000  H
  H144     1.0000 0.91140  0.13610  0.07000  Biso   1.000  H
  C193     1.0000 0.50750  0.63359  0.41835  Biso   1.000  C
  C194     1.0000 0.99250  0.86641  0.41835  Biso   1.000  C
  C195     1.0000 0.99250  0.63359  0.08165  Biso   1.000  C
  C196     1.0000 0.50750  0.86641  0.08165  Biso   1.000  C
  C197     1.0000 0.41835  0.50750  0.63359  Biso   1.000  C
  C198     1.0000 0.41835  0.99250  0.86641  Biso   1.000  C
  C199     1.0000 0.08165  0.99250  0.63359  Biso   1.000  C
  C200     1.0000 0.08165  0.50750  0.86641  Biso   1.000  C
  C201     1.0000 0.63359  0.41835  0.50750  Biso   1.000  C
  C202     1.0000 0.86641  0.41835  0.99250  Biso   1.000  C
  C203     1.0000 0.63359  0.08165  0.99250  Biso   1.000  C
  C204     1.0000 0.86641  0.08165  0.50750  Biso   1.000  C
  C205     1.0000 0.63359  0.50750  0.08165  Biso   1.000  C
  C206     1.0000 0.86641  0.99250  0.08165  Biso   1.000  C
  C207     1.0000 0.63359  0.99250  0.41835  Biso   1.000  C
  C208     1.0000 0.86641  0.50750  0.41835  Biso   1.000  C
  C209     1.0000 0.50750  0.41835  0.86641  Biso   1.000  C
  C210     1.0000 0.99250  0.41835  0.63359  Biso   1.000  C
  C211     1.0000 0.99250  0.08165  0.86641  Biso   1.000  C
  C212     1.0000 0.50750  0.08165  0.63359  Biso   1.000  C
  C213     1.0000 0.41835  0.63359  0.99250  Biso   1.000  C
  C214     1.0000 0.41835  0.86641  0.50750  Biso   1.000  C
  C215     1.0000 0.08165  0.63359  0.50750  Biso   1.000  C
  C216     1.0000 0.08165  0.86641  0.99250  Biso   1.000  C
  C217     1.0000 0.49250  0.36641  0.58165  Biso   1.000  C
  C218     1.0000 0.00750  0.13359  0.58165  Biso   1.000  C
  C219     1.0000 0.00750  0.36641  0.91835  Biso   1.000  C
  C220     1.0000 0.49250  0.13359  0.91835  Biso   1.000  C
  C221     1.0000 0.58165  0.49250  0.36641  Biso   1.000  C
  C222     1.0000 0.58165  0.00750  0.13359  Biso   1.000  C
  C223     1.0000 0.91835  0.00750  0.36641  Biso   1.000  C
  C224     1.0000 0.91835  0.49250  0.13359  Biso   1.000  C
  C225     1.0000 0.36641  0.58165  0.49250  Biso   1.000  C
  C226     1.0000 0.13359  0.58165  0.00750  Biso   1.000  C
  C227     1.0000 0.36641  0.91835  0.00750  Biso   1.000  C
  C228     1.0000 0.13359  0.91835  0.49250  Biso   1.000  C
  C229     1.0000 0.36641  0.49250  0.91835  Biso   1.000  C
  C230     1.0000 0.13359  0.00750  0.91835  Biso   1.000  C
  C231     1.0000 0.36641  0.00750  0.58165  Biso   1.000  C
  C232     1.0000 0.13359  0.49250  0.58165  Biso   1.000  C
  C233     1.0000 0.49250  0.58165  0.13359  Biso   1.000  C
  C234     1.0000 0.00750  0.58165  0.36641  Biso   1.000  C
  C235     1.0000 0.00750  0.91835  0.13359  Biso   1.000  C
  C236     1.0000 0.49250  0.91835  0.36641  Biso   1.000  C
  C237     1.0000 0.58165  0.36641  0.00750  Biso   1.000  C
  C238     1.0000 0.58165  0.13359  0.49250  Biso   1.000  C
  C239     1.0000 0.91835  0.36641  0.49250  Biso   1.000  C
  C240     1.0000 0.91835  0.13359  0.00750  Biso   1.000  C
  C241     1.0000 0.47020  0.64700  0.40181  Biso   1.000  C
  C242     1.0000 0.02980  0.85300  0.40181  Biso   1.000  C
  C243     1.0000 0.02980  0.64700  0.09819  Biso   1.000  C
  C244     1.0000 0.47020  0.85300  0.09819  Biso   1.000  C
  C245     1.0000 0.40181  0.47020  0.64700  Biso   1.000  C
  C246     1.0000 0.40181  0.02980  0.85300  Biso   1.000  C
  C247     1.0000 0.09819  0.02980  0.64700  Biso   1.000  C
  C248     1.0000 0.09819  0.47020  0.85300  Biso   1.000  C
  C249     1.0000 0.64700  0.40181  0.47020  Biso   1.000  C
  C250     1.0000 0.85300  0.40181  0.02980  Biso   1.000  C
  C251     1.0000 0.64700  0.09819  0.02980  Biso   1.000  C
  C252     1.0000 0.85300  0.09819  0.47020  Biso   1.000  C
  C253     1.0000 0.64700  0.47020  0.09819  Biso   1.000  C
  C254     1.0000 0.85300  0.02980  0.09819  Biso   1.000  C
  C255     1.0000 0.64700  0.02980  0.40181  Biso   1.000  C
  C256     1.0000 0.85300  0.47020  0.40181  Biso   1.000  C
  C257     1.0000 0.47020  0.40181  0.85300  Biso   1.000  C
  C258     1.0000 0.02980  0.40181  0.64700  Biso   1.000  C
  C259     1.0000 0.02980  0.09819  0.85300  Biso   1.000  C
  C260     1.0000 0.47020  0.09819  0.64700  Biso   1.000  C
  C261     1.0000 0.40181  0.64700  0.02980  Biso   1.000  C
  C262     1.0000 0.40181  0.85300  0.47020  Biso   1.000  C
  C263     1.0000 0.09819  0.64700  0.47020  Biso   1.000  C
  C264     1.0000 0.09819  0.85300  0.02980  Biso   1.000  C
  C265     1.0000 0.52980  0.35300  0.59819  Biso   1.000  C
  C266     1.0000 0.97020  0.14700  0.59819  Biso   1.000  C
  C267     1.0000 0.97020  0.35300  0.90181  Biso   1.000  C
  C268     1.0000 0.52980  0.14700  0.90181  Biso   1.000  C
  C269     1.0000 0.59819  0.52980  0.35300  Biso   1.000  C
  C270     1.0000 0.59819  0.97020  0.14700  Biso   1.000  C
  C271     1.0000 0.90181  0.97020  0.35300  Biso   1.000  C
  C272     1.0000 0.90181  0.52980  0.14700  Biso   1.000  C
  C273     1.0000 0.35300  0.59819  0.52980  Biso   1.000  C
  C274     1.0000 0.14700  0.59819  0.97020  Biso   1.000  C
  C275     1.0000 0.35300  0.90181  0.97020  Biso   1.000  C
  C276     1.0000 0.14700  0.90181  0.52980  Biso   1.000  C
  C277     1.0000 0.35300  0.52980  0.90181  Biso   1.000  C
  C278     1.0000 0.14700  0.97020  0.90181  Biso   1.000  C
  C279     1.0000 0.35300  0.97020  0.59819  Biso   1.000  C
  C280     1.0000 0.14700  0.52980  0.59819  Biso   1.000  C
  C281     1.0000 0.52980  0.59819  0.14700  Biso   1.000  C
  C282     1.0000 0.97020  0.59819  0.35300  Biso   1.000  C
  C283     1.0000 0.97020  0.90181  0.14700  Biso   1.000  C
  C284     1.0000 0.52980  0.90181  0.35300  Biso   1.000  C
  C285     1.0000 0.59819  0.35300  0.97020  Biso   1.000  C
  C286     1.0000 0.59819  0.14700  0.52980  Biso   1.000  C
  C287     1.0000 0.90181  0.35300  0.52980  Biso   1.000  C
  C288     1.0000 0.90181  0.14700  0.97020  Biso   1.000  C
  H145     1.0000 0.44480  0.63900  0.41430  Biso   1.000  H
  H146     1.0000 0.05520  0.86100  0.41430  Biso   1.000  H
  H147     1.0000 0.05520  0.63900  0.08570  Biso   1.000  H
  H148     1.0000 0.44480  0.86100  0.08570  Biso   1.000  H
  H149     1.0000 0.41430  0.44480  0.63900  Biso   1.000  H
  H150     1.0000 0.41430  0.05520  0.86100  Biso   1.000  H
  H151     1.0000 0.08570  0.05520  0.63900  Biso   1.000  H
  H152     1.0000 0.08570  0.44480  0.86100  Biso   1.000  H
  H153     1.0000 0.63900  0.41430  0.44480  Biso   1.000  H
  H154     1.0000 0.86100  0.41430  0.05520  Biso   1.000  H
  H155     1.0000 0.63900  0.08570  0.05520  Biso   1.000  H
  H156     1.0000 0.86100  0.08570  0.44480  Biso   1.000  H
  H157     1.0000 0.63900  0.44480  0.08570  Biso   1.000  H
  H158     1.0000 0.86100  0.05520  0.08570  Biso   1.000  H
  H159     1.0000 0.63900  0.05520  0.41430  Biso   1.000  H
  H160     1.0000 0.86100  0.44480  0.41430  Biso   1.000  H
  H161     1.0000 0.44480  0.41430  0.86100  Biso   1.000  H
  H162     1.0000 0.05520  0.41430  0.63900  Biso   1.000  H
  H163     1.0000 0.05520  0.08570  0.86100  Biso   1.000  H
  H164     1.0000 0.44480  0.08570  0.63900  Biso   1.000  H
  H165     1.0000 0.41430  0.63900  0.05520  Biso   1.000  H
  H166     1.0000 0.41430  0.86100  0.44480  Biso   1.000  H
  H167     1.0000 0.08570  0.63900  0.44480  Biso   1.000  H
  H168     1.0000 0.08570  0.86100  0.05520  Biso   1.000  H
  H169     1.0000 0.55520  0.36100  0.58570  Biso   1.000  H
  H170     1.0000 0.94480  0.13900  0.58570  Biso   1.000  H
  H171     1.0000 0.94480  0.36100  0.91430  Biso   1.000  H
  H172     1.0000 0.55520  0.13900  0.91430  Biso   1.000  H
  H173     1.0000 0.58570  0.55520  0.36100  Biso   1.000  H
  H174     1.0000 0.58570  0.94480  0.13900  Biso   1.000  H
  H175     1.0000 0.91430  0.94480  0.36100  Biso   1.000  H
  H176     1.0000 0.91430  0.55520  0.13900  Biso   1.000  H
  H177     1.0000 0.36100  0.58570  0.55520  Biso   1.000  H
  H178     1.0000 0.13900  0.58570  0.94480  Biso   1.000  H
  H179     1.0000 0.36100  0.91430  0.94480  Biso   1.000  H
  H180     1.0000 0.13900  0.91430  0.55520  Biso   1.000  H
  H181     1.0000 0.36100  0.55520  0.91430  Biso   1.000  H
  H182     1.0000 0.13900  0.94480  0.91430  Biso   1.000  H
  H183     1.0000 0.36100  0.94480  0.58570  Biso   1.000  H
  H184     1.0000 0.13900  0.55520  0.58570  Biso   1.000  H
  H185     1.0000 0.55520  0.58570  0.13900  Biso   1.000  H
  H186     1.0000 0.94480  0.58570  0.36100  Biso   1.000  H
  H187     1.0000 0.94480  0.91430  0.13900  Biso   1.000  H
  H188     1.0000 0.55520  0.91430  0.36100  Biso   1.000  H
  H189     1.0000 0.58570  0.36100  0.94480  Biso   1.000  H
  H190     1.0000 0.58570  0.13900  0.55520  Biso   1.000  H
  H191     1.0000 0.91430  0.36100  0.55520  Biso   1.000  H
  H192     1.0000 0.91430  0.13900  0.94480  Biso   1.000  H
  C289     1.0000 0.46990  0.67213  0.36698  Biso   1.000  C
  C290     1.0000 0.03010  0.82787  0.36698  Biso   1.000  C
  C291     1.0000 0.03010  0.67213  0.13302  Biso   1.000  C
  C292     1.0000 0.46990  0.82787  0.13302  Biso   1.000  C
  C293     1.0000 0.36698  0.46990  0.67213  Biso   1.000  C
  C294     1.0000 0.36698  0.03010  0.82787  Biso   1.000  C
  C295     1.0000 0.13302  0.03010  0.67213  Biso   1.000  C
  C296     1.0000 0.13302  0.46990  0.82787  Biso   1.000  C
  C297     1.0000 0.67213  0.36698  0.46990  Biso   1.000  C
  C298     1.0000 0.82787  0.36698  0.03010  Biso   1.000  C
  C299     1.0000 0.67213  0.13302  0.03010  Biso   1.000  C
  C300     1.0000 0.82787  0.13302  0.46990  Biso   1.000  C
  C301     1.0000 0.67213  0.46990  0.13302  Biso   1.000  C
  C302     1.0000 0.82787  0.03010  0.13302  Biso   1.000  C
  C303     1.0000 0.67213  0.03010  0.36698  Biso   1.000  C
  C304     1.0000 0.82787  0.46990  0.36698  Biso   1.000  C
  C305     1.0000 0.46990  0.36698  0.82787  Biso   1.000  C
  C306     1.0000 0.03010  0.36698  0.67213  Biso   1.000  C
  C307     1.0000 0.03010  0.13302  0.82787  Biso   1.000  C
  C308     1.0000 0.46990  0.13302  0.67213  Biso   1.000  C
  C309     1.0000 0.36698  0.67213  0.03010  Biso   1.000  C
  C310     1.0000 0.36698  0.82787  0.46990  Biso   1.000  C
  C311     1.0000 0.13302  0.67213  0.46990  Biso   1.000  C
  C312     1.0000 0.13302  0.82787  0.03010  Biso   1.000  C
  C313     1.0000 0.53010  0.32787  0.63302  Biso   1.000  C
  C314     1.0000 0.96990  0.17213  0.63302  Biso   1.000  C
  C315     1.0000 0.96990  0.32787  0.86698  Biso   1.000  C
  C316     1.0000 0.53010  0.17213  0.86698  Biso   1.000  C
  C317     1.0000 0.63302  0.53010  0.32787  Biso   1.000  C
  C318     1.0000 0.63302  0.96990  0.17213  Biso   1.000  C
  C319     1.0000 0.86698  0.96990  0.32787  Biso   1.000  C
  C320     1.0000 0.86698  0.53010  0.17213  Biso   1.000  C
  C321     1.0000 0.32787  0.63302  0.53010  Biso   1.000  C
  C322     1.0000 0.17213  0.63302  0.96990  Biso   1.000  C
  C323     1.0000 0.32787  0.86698  0.96990  Biso   1.000  C
  C324     1.0000 0.17213  0.86698  0.53010  Biso   1.000  C
  C325     1.0000 0.32787  0.53010  0.86698  Biso   1.000  C
  C326     1.0000 0.17213  0.96990  0.86698  Biso   1.000  C
  C327     1.0000 0.32787  0.96990  0.63302  Biso   1.000  C
  C328     1.0000 0.17213  0.53010  0.63302  Biso   1.000  C
  C329     1.0000 0.53010  0.63302  0.17213  Biso   1.000  C
  C330     1.0000 0.96990  0.63302  0.32787  Biso   1.000  C
  C331     1.0000 0.96990  0.86698  0.17213  Biso   1.000  C
  C332     1.0000 0.53010  0.86698  0.32787  Biso   1.000  C
  C333     1.0000 0.63302  0.32787  0.96990  Biso   1.000  C
  C334     1.0000 0.63302  0.17213  0.53010  Biso   1.000  C
  C335     1.0000 0.86698  0.32787  0.53010  Biso   1.000  C
  C336     1.0000 0.86698  0.17213  0.96990  Biso   1.000  C
  H193     1.0000 0.44440  0.68130  0.35570  Biso   1.000  H
  H194     1.0000 0.05560  0.81870  0.35570  Biso   1.000  H
  H195     1.0000 0.05560  0.68130  0.14430  Biso   1.000  H
  H196     1.0000 0.44440  0.81870  0.14430  Biso   1.000  H
  H197     1.0000 0.35570  0.44440  0.68130  Biso   1.000  H
  H198     1.0000 0.35570  0.05560  0.81870  Biso   1.000  H
  H199     1.0000 0.14430  0.05560  0.68130  Biso   1.000  H
  H200     1.0000 0.14430  0.44440  0.81870  Biso   1.000  H
  H201     1.0000 0.68130  0.35570  0.44440  Biso   1.000  H
  H202     1.0000 0.81870  0.35570  0.05560  Biso   1.000  H
  H203     1.0000 0.68130  0.14430  0.05560  Biso   1.000  H
  H204     1.0000 0.81870  0.14430  0.44440  Biso   1.000  H
  H205     1.0000 0.68130  0.44440  0.14430  Biso   1.000  H
  H206     1.0000 0.81870  0.05560  0.14430  Biso   1.000  H
  H207     1.0000 0.68130  0.05560  0.35570  Biso   1.000  H
  H208     1.0000 0.81870  0.44440  0.35570  Biso   1.000  H
  H209     1.0000 0.44440  0.35570  0.81870  Biso   1.000  H
  H210     1.0000 0.05560  0.35570  0.68130  Biso   1.000  H
  H211     1.0000 0.05560  0.14430  0.81870  Biso   1.000  H
  H212     1.0000 0.44440  0.14430  0.68130  Biso   1.000  H
  H213     1.0000 0.35570  0.68130  0.05560  Biso   1.000  H
  H214     1.0000 0.35570  0.81870  0.44440  Biso   1.000  H
  H215     1.0000 0.14430  0.68130  0.44440  Biso   1.000  H
  H216     1.0000 0.14430  0.81870  0.05560  Biso   1.000  H
  H217     1.0000 0.55560  0.31870  0.64430  Biso   1.000  H
  H218     1.0000 0.94440  0.18130  0.64430  Biso   1.000  H
  H219     1.0000 0.94440  0.31870  0.85570  Biso   1.000  H
  H220     1.0000 0.55560  0.18130  0.85570  Biso   1.000  H
  H221     1.0000 0.64430  0.55560  0.31870  Biso   1.000  H
  H222     1.0000 0.64430  0.94440  0.18130  Biso   1.000  H
  H223     1.0000 0.85570  0.94440  0.31870  Biso   1.000  H
  H224     1.0000 0.85570  0.55560  0.18130  Biso   1.000  H
  H225     1.0000 0.31870  0.64430  0.55560  Biso   1.000  H
  H226     1.0000 0.18130  0.64430  0.94440  Biso   1.000  H
  H227     1.0000 0.31870  0.85570  0.94440  Biso   1.000  H
  H228     1.0000 0.18130  0.85570  0.55560  Biso   1.000  H
  H229     1.0000 0.31870  0.55560  0.85570  Biso   1.000  H
  H230     1.0000 0.18130  0.94440  0.85570  Biso   1.000  H
  H231     1.0000 0.31870  0.94440  0.64430  Biso   1.000  H
  H232     1.0000 0.18130  0.55560  0.64430  Biso   1.000  H
  H233     1.0000 0.55560  0.64430  0.18130  Biso   1.000  H
  H234     1.0000 0.94440  0.64430  0.31870  Biso   1.000  H
  H235     1.0000 0.94440  0.85570  0.18130  Biso   1.000  H
  H236     1.0000 0.55560  0.85570  0.31870  Biso   1.000  H
  H237     1.0000 0.64430  0.31870  0.94440  Biso   1.000  H
  H238     1.0000 0.64430  0.18130  0.55560  Biso   1.000  H
  H239     1.0000 0.85570  0.31870  0.55560  Biso   1.000  H
  H240     1.0000 0.85570  0.18130  0.94440  Biso   1.000  H
  C337     1.0000 0.53450  0.58310  0.46150  Biso   1.000  C
  C338     1.0000 0.96550  0.91690  0.46150  Biso   1.000  C
  C339     1.0000 0.96550  0.58310  0.03850  Biso   1.000  C
  C340     1.0000 0.53450  0.91690  0.03850  Biso   1.000  C
  C341     1.0000 0.46150  0.53450  0.58310  Biso   1.000  C
  C342     1.0000 0.46150  0.96550  0.91690  Biso   1.000  C
  C343     1.0000 0.03850  0.96550  0.58310  Biso   1.000  C
  C344     1.0000 0.03850  0.53450  0.91690  Biso   1.000  C
  C345     1.0000 0.58310  0.46150  0.53450  Biso   1.000  C
  C346     1.0000 0.91690  0.46150  0.96550  Biso   1.000  C
  C347     1.0000 0.58310  0.03850  0.96550  Biso   1.000  C
  C348     1.0000 0.91690  0.03850  0.53450  Biso   1.000  C
  C349     1.0000 0.58310  0.53450  0.03850  Biso   1.000  C
  C350     1.0000 0.91690  0.96550  0.03850  Biso   1.000  C
  C351     1.0000 0.58310  0.96550  0.46150  Biso   1.000  C
  C352     1.0000 0.91690  0.53450  0.46150  Biso   1.000  C
  C353     1.0000 0.53450  0.46150  0.91690  Biso   1.000  C
  C354     1.0000 0.96550  0.46150  0.58310  Biso   1.000  C
  C355     1.0000 0.96550  0.03850  0.91690  Biso   1.000  C
  C356     1.0000 0.53450  0.03850  0.58310  Biso   1.000  C
  C357     1.0000 0.46150  0.58310  0.96550  Biso   1.000  C
  C358     1.0000 0.46150  0.91690  0.53450  Biso   1.000  C
  C359     1.0000 0.03850  0.58310  0.53450  Biso   1.000  C
  C360     1.0000 0.03850  0.91690  0.96550  Biso   1.000  C
  C361     1.0000 0.46550  0.41690  0.53850  Biso   1.000  C
  C362     1.0000 0.03450  0.08310  0.53850  Biso   1.000  C
  C363     1.0000 0.03450  0.41690  0.96150  Biso   1.000  C
  C364     1.0000 0.46550  0.08310  0.96150  Biso   1.000  C
  C365     1.0000 0.53850  0.46550  0.41690  Biso   1.000  C
  C366     1.0000 0.53850  0.03450  0.08310  Biso   1.000  C
  C367     1.0000 0.96150  0.03450  0.41690  Biso   1.000  C
  C368     1.0000 0.96150  0.46550  0.08310  Biso   1.000  C
  C369     1.0000 0.41690  0.53850  0.46550  Biso   1.000  C
  C370     1.0000 0.08310  0.53850  0.03450  Biso   1.000  C
  C371     1.0000 0.41690  0.96150  0.03450  Biso   1.000  C
  C372     1.0000 0.08310  0.96150  0.46550  Biso   1.000  C
  C373     1.0000 0.41690  0.46550  0.96150  Biso   1.000  C
  C374     1.0000 0.08310  0.03450  0.96150  Biso   1.000  C
  C375     1.0000 0.41690  0.03450  0.53850  Biso   1.000  C
  C376     1.0000 0.08310  0.46550  0.53850  Biso   1.000  C
  C377     1.0000 0.46550  0.53850  0.08310  Biso   1.000  C
  C378     1.0000 0.03450  0.53850  0.41690  Biso   1.000  C
  C379     1.0000 0.03450  0.96150  0.08310  Biso   1.000  C
  C380     1.0000 0.46550  0.96150  0.41690  Biso   1.000  C
  C381     1.0000 0.53850  0.41690  0.03450  Biso   1.000  C
  C382     1.0000 0.53850  0.08310  0.46550  Biso   1.000  C
  C383     1.0000 0.96150  0.41690  0.46550  Biso   1.000  C
  C384     1.0000 0.96150  0.08310  0.03450  Biso   1.000  C
  C385     1.0000 0.53260  0.55660  0.49720  Biso   1.000  C
  C386     1.0000 0.96740  0.94340  0.49720  Biso   1.000  C
  C387     1.0000 0.96740  0.55660  0.00280  Biso   1.000  C
  C388     1.0000 0.53260  0.94340  0.00280  Biso   1.000  C
  C389     1.0000 0.49720  0.53260  0.55660  Biso   1.000  C
  C390     1.0000 0.49720  0.96740  0.94340  Biso   1.000  C
  C391     1.0000 0.00280  0.96740  0.55660  Biso   1.000  C
  C392     1.0000 0.00280  0.53260  0.94340  Biso   1.000  C
  C393     1.0000 0.55660  0.49720  0.53260  Biso   1.000  C
  C394     1.0000 0.94340  0.49720  0.96740  Biso   1.000  C
  C395     1.0000 0.55660  0.00280  0.96740  Biso   1.000  C
  C396     1.0000 0.94340  0.00280  0.53260  Biso   1.000  C
  C397     1.0000 0.55660  0.53260  0.00280  Biso   1.000  C
  C398     1.0000 0.94340  0.96740  0.00280  Biso   1.000  C
  C399     1.0000 0.55660  0.96740  0.49720  Biso   1.000  C
  C400     1.0000 0.94340  0.53260  0.49720  Biso   1.000  C
  C401     1.0000 0.53260  0.49720  0.94340  Biso   1.000  C
  C402     1.0000 0.96740  0.49720  0.55660  Biso   1.000  C
  C403     1.0000 0.96740  0.00280  0.94340  Biso   1.000  C
  C404     1.0000 0.53260  0.00280  0.55660  Biso   1.000  C
  C405     1.0000 0.49720  0.55660  0.96740  Biso   1.000  C
  C406     1.0000 0.49720  0.94340  0.53260  Biso   1.000  C
  C407     1.0000 0.00280  0.55660  0.53260  Biso   1.000  C
  C408     1.0000 0.00280  0.94340  0.96740  Biso   1.000  C
  C409     1.0000 0.46740  0.44340  0.50280  Biso   1.000  C
  C410     1.0000 0.03260  0.05660  0.50280  Biso   1.000  C
  C411     1.0000 0.03260  0.44340  0.99720  Biso   1.000  C
  C412     1.0000 0.46740  0.05660  0.99720  Biso   1.000  C
  C413     1.0000 0.50280  0.46740  0.44340  Biso   1.000  C
  C414     1.0000 0.50280  0.03260  0.05660  Biso   1.000  C
  C415     1.0000 0.99720  0.03260  0.44340  Biso   1.000  C
  C416     1.0000 0.99720  0.46740  0.05660  Biso   1.000  C
  C417     1.0000 0.44340  0.50280  0.46740  Biso   1.000  C
  C418     1.0000 0.05660  0.50280  0.03260  Biso   1.000  C
  C419     1.0000 0.44340  0.99720  0.03260  Biso   1.000  C
  C420     1.0000 0.05660  0.99720  0.46740  Biso   1.000  C
  C421     1.0000 0.44340  0.46740  0.99720  Biso   1.000  C
  C422     1.0000 0.05660  0.03260  0.99720  Biso   1.000  C
  C423     1.0000 0.44340  0.03260  0.50280  Biso   1.000  C
  C424     1.0000 0.05660  0.46740  0.50280  Biso   1.000  C
  C425     1.0000 0.46740  0.50280  0.05660  Biso   1.000  C
  C426     1.0000 0.03260  0.50280  0.44340  Biso   1.000  C
  C427     1.0000 0.03260  0.99720  0.05660  Biso   1.000  C
  C428     1.0000 0.46740  0.99720  0.44340  Biso   1.000  C
  C429     1.0000 0.50280  0.44340  0.03260  Biso   1.000  C
  C430     1.0000 0.50280  0.05660  0.46740  Biso   1.000  C
  C431     1.0000 0.99720  0.44340  0.46740  Biso   1.000  C
  C432     1.0000 0.99720  0.05660  0.03260  Biso   1.000  C
  C433     1.0000 0.50080  0.56010  0.52440  Biso   1.000  C
  C434     1.0000 0.99920  0.93990  0.52440  Biso   1.000  C
  C435     1.0000 0.99920  0.56010  0.97560  Biso   1.000  C
  C436     1.0000 0.50080  0.93990  0.97560  Biso   1.000  C
  C437     1.0000 0.52440  0.50080  0.56010  Biso   1.000  C
  C438     1.0000 0.52440  0.99920  0.93990  Biso   1.000  C
  C439     1.0000 0.97560  0.99920  0.56010  Biso   1.000  C
  C440     1.0000 0.97560  0.50080  0.93990  Biso   1.000  C
  C441     1.0000 0.56010  0.52440  0.50080  Biso   1.000  C
  C442     1.0000 0.93990  0.52440  0.99920  Biso   1.000  C
  C443     1.0000 0.56010  0.97560  0.99920  Biso   1.000  C
  C444     1.0000 0.93990  0.97560  0.50080  Biso   1.000  C
  C445     1.0000 0.56010  0.50080  0.97560  Biso   1.000  C
  C446     1.0000 0.93990  0.99920  0.97560  Biso   1.000  C
  C447     1.0000 0.56010  0.99920  0.52440  Biso   1.000  C
  C448     1.0000 0.93990  0.50080  0.52440  Biso   1.000  C
  C449     1.0000 0.50080  0.52440  0.93990  Biso   1.000  C
  C450     1.0000 0.99920  0.52440  0.56010  Biso   1.000  C
  C451     1.0000 0.99920  0.97560  0.93990  Biso   1.000  C
  C452     1.0000 0.50080  0.97560  0.56010  Biso   1.000  C
  C453     1.0000 0.52440  0.56010  0.99920  Biso   1.000  C
  C454     1.0000 0.52440  0.93990  0.50080  Biso   1.000  C
  C455     1.0000 0.97560  0.56010  0.50080  Biso   1.000  C
  C456     1.0000 0.97560  0.93990  0.99920  Biso   1.000  C
  C457     1.0000 0.49920  0.43990  0.47560  Biso   1.000  C
  C458     1.0000 0.00080  0.06010  0.47560  Biso   1.000  C
  C459     1.0000 0.00080  0.43990  0.02440  Biso   1.000  C
  C460     1.0000 0.49920  0.06010  0.02440  Biso   1.000  C
  C461     1.0000 0.47560  0.49920  0.43990  Biso   1.000  C
  C462     1.0000 0.47560  0.00080  0.06010  Biso   1.000  C
  C463     1.0000 0.02440  0.00080  0.43990  Biso   1.000  C
  C464     1.0000 0.02440  0.49920  0.06010  Biso   1.000  C
  C465     1.0000 0.43990  0.47560  0.49920  Biso   1.000  C
  C466     1.0000 0.06010  0.47560  0.00080  Biso   1.000  C
  C467     1.0000 0.43990  0.02440  0.00080  Biso   1.000  C
  C468     1.0000 0.06010  0.02440  0.49920  Biso   1.000  C
  C469     1.0000 0.43990  0.49920  0.02440  Biso   1.000  C
  C470     1.0000 0.06010  0.00080  0.02440  Biso   1.000  C
  C471     1.0000 0.43990  0.00080  0.47560  Biso   1.000  C
  C472     1.0000 0.06010  0.49920  0.47560  Biso   1.000  C
  C473     1.0000 0.49920  0.47560  0.06010  Biso   1.000  C
  C474     1.0000 0.00080  0.47560  0.43990  Biso   1.000  C
  C475     1.0000 0.00080  0.02440  0.06010  Biso   1.000  C
  C476     1.0000 0.49920  0.02440  0.43990  Biso   1.000  C
  C477     1.0000 0.47560  0.43990  0.00080  Biso   1.000  C
  C478     1.0000 0.47560  0.06010  0.49920  Biso   1.000  C
  C479     1.0000 0.02440  0.43990  0.49920  Biso   1.000  C
  C480     1.0000 0.02440  0.06010  0.00080  Biso   1.000  C
  H241     1.0000 0.48100  0.58150  0.52110  Biso   1.000  H
  H242     1.0000 0.01900  0.91850  0.52110  Biso   1.000  H
  H243     1.0000 0.01900  0.58150  0.97890  Biso   1.000  H
  H244     1.0000 0.48100  0.91850  0.97890  Biso   1.000  H
  H245     1.0000 0.52110  0.48100  0.58150  Biso   1.000  H
  H246     1.0000 0.52110  0.01900  0.91850  Biso   1.000  H
  H247     1.0000 0.97890  0.01900  0.58150  Biso   1.000  H
  H248     1.0000 0.97890  0.48100  0.91850  Biso   1.000  H
  H249     1.0000 0.58150  0.52110  0.48100  Biso   1.000  H
  H250     1.0000 0.91850  0.52110  0.01900  Biso   1.000  H
  H251     1.0000 0.58150  0.97890  0.01900  Biso   1.000  H
  H252     1.0000 0.91850  0.97890  0.48100  Biso   1.000  H
  H253     1.0000 0.58150  0.48100  0.97890  Biso   1.000  H
  H254     1.0000 0.91850  0.01900  0.97890  Biso   1.000  H
  H255     1.0000 0.58150  0.01900  0.52110  Biso   1.000  H
  H256     1.0000 0.91850  0.48100  0.52110  Biso   1.000  H
  H257     1.0000 0.48100  0.52110  0.91850  Biso   1.000  H
  H258     1.0000 0.01900  0.52110  0.58150  Biso   1.000  H
  H259     1.0000 0.01900  0.97890  0.91850  Biso   1.000  H
  H260     1.0000 0.48100  0.97890  0.58150  Biso   1.000  H
  H261     1.0000 0.52110  0.58150  0.01900  Biso   1.000  H
  H262     1.0000 0.52110  0.91850  0.48100  Biso   1.000  H
  H263     1.0000 0.97890  0.58150  0.48100  Biso   1.000  H
  H264     1.0000 0.97890  0.91850  0.01900  Biso   1.000  H
  H265     1.0000 0.51900  0.41850  0.47890  Biso   1.000  H
  H266     1.0000 0.98100  0.08150  0.47890  Biso   1.000  H
  H267     1.0000 0.98100  0.41850  0.02110  Biso   1.000  H
  H268     1.0000 0.51900  0.08150  0.02110  Biso   1.000  H
  H269     1.0000 0.47890  0.51900  0.41850  Biso   1.000  H
  H270     1.0000 0.47890  0.98100  0.08150  Biso   1.000  H
  H271     1.0000 0.02110  0.98100  0.41850  Biso   1.000  H
  H272     1.0000 0.02110  0.51900  0.08150  Biso   1.000  H
  H273     1.0000 0.41850  0.47890  0.51900  Biso   1.000  H
  H274     1.0000 0.08150  0.47890  0.98100  Biso   1.000  H
  H275     1.0000 0.41850  0.02110  0.98100  Biso   1.000  H
  H276     1.0000 0.08150  0.02110  0.51900  Biso   1.000  H
  H277     1.0000 0.41850  0.51900  0.02110  Biso   1.000  H
  H278     1.0000 0.08150  0.98100  0.02110  Biso   1.000  H
  H279     1.0000 0.41850  0.98100  0.47890  Biso   1.000  H
  H280     1.0000 0.08150  0.51900  0.47890  Biso   1.000  H
  H281     1.0000 0.51900  0.47890  0.08150  Biso   1.000  H
  H282     1.0000 0.98100  0.47890  0.41850  Biso   1.000  H
  H283     1.0000 0.98100  0.02110  0.08150  Biso   1.000  H
  H284     1.0000 0.51900  0.02110  0.41850  Biso   1.000  H
  H285     1.0000 0.47890  0.41850  0.98100  Biso   1.000  H
  H286     1.0000 0.47890  0.08150  0.51900  Biso   1.000  H
  H287     1.0000 0.02110  0.41850  0.51900  Biso   1.000  H
  H288     1.0000 0.02110  0.08150  0.98100  Biso   1.000  H
