data_image0
_cell_length_a       17.3334
_cell_length_b       25.7403
_cell_length_c       23.7612
_cell_angle_alpha    90
_cell_angle_beta     109.812
_cell_angle_gamma    90

_symmetry_space_group_name_H-M    "P 1"
_symmetry_int_tables_number       1

loop_
  _symmetry_equiv_pos_as_xyz
  'x, y, z'

loop_
  _atom_site_label
  _atom_site_occupancy
  _atom_site_fract_x
  _atom_site_fract_y
  _atom_site_fract_z
  _atom_site_thermal_displace_type
  _atom_site_B_iso_or_equiv
  _atom_site_type_symbol
  Cu1      1.0000 0.05544  0.78471  0.37637  Biso   1.000  Cu
  Cu2      1.0000 0.44456  0.28471  0.12363  Biso   1.000  Cu
  Cu3      1.0000 0.94456  0.21529  0.62363  Biso   1.000  Cu
  Cu4      1.0000 0.55544  0.71529  0.87637  Biso   1.000  Cu
  P1       1.0000 0.39620  0.86155  0.26460  Biso   1.000  P
  P2       1.0000 0.10380  0.36155  0.23540  Biso   1.000  P
  P3       1.0000 0.60380  0.13845  0.73540  Biso   1.000  P
  P4       1.0000 0.89620  0.63845  0.76460  Biso   1.000  P
  W1       1.0000 0.23246  0.93952  0.27076  Biso   1.000  W
  W2       1.0000 0.26754  0.43952  0.22924  Biso   1.000  W
  W3       1.0000 0.76754  0.06048  0.72924  Biso   1.000  W
  W4       1.0000 0.73246  0.56048  0.77076  Biso   1.000  W
  O1       1.0000 0.30490  0.86150  0.26560  Biso   1.000  O
  O2       1.0000 0.19510  0.36150  0.23440  Biso   1.000  O
  O3       1.0000 0.69510  0.13850  0.73440  Biso   1.000  O
  O4       1.0000 0.80490  0.63850  0.76560  Biso   1.000  O
  C1       1.0000 0.00750  0.90250  0.25690  Biso   1.000  C
  C2       1.0000 0.49250  0.40250  0.24310  Biso   1.000  C
  C3       1.0000 0.99250  0.09750  0.74310  Biso   1.000  C
  C4       1.0000 0.50750  0.59750  0.75690  Biso   1.000  C
  N1       1.0000 0.01220  0.84910  0.26900  Biso   1.000  N
  N2       1.0000 0.48780  0.34910  0.23100  Biso   1.000  N
  N3       1.0000 0.98780  0.15090  0.73100  Biso   1.000  N
  N4       1.0000 0.51220  0.65090  0.76900  Biso   1.000  N
  O5       1.0000 0.10450  0.07070  0.52290  Biso   1.000  O
  O6       1.0000 0.39550  0.57070  0.97710  Biso   1.000  O
  O7       1.0000 0.89550  0.92930  0.47710  Biso   1.000  O
  O8       1.0000 0.60450  0.42930  0.02290  Biso   1.000  O
  Cu5      1.0000 0.07750  0.90540  0.43858  Biso   1.000  Cu
  Cu6      1.0000 0.42250  0.40540  0.06142  Biso   1.000  Cu
  Cu7      1.0000 0.92250  0.09460  0.56142  Biso   1.000  Cu
  Cu8      1.0000 0.57750  0.59460  0.93858  Biso   1.000  Cu
  P5       1.0000 0.62240  0.85838  0.26250  Biso   1.000  P
  P6       1.0000 0.87760  0.35838  0.23750  Biso   1.000  P
  P7       1.0000 0.37760  0.14162  0.73750  Biso   1.000  P
  P8       1.0000 0.12240  0.64162  0.76250  Biso   1.000  P
  W5       1.0000 0.18881  0.82868  0.18939  Biso   1.000  W
  W6       1.0000 0.31119  0.32868  0.31061  Biso   1.000  W
  W7       1.0000 0.81119  0.17132  0.81061  Biso   1.000  W
  W8       1.0000 0.68881  0.67132  0.68939  Biso   1.000  W
  O9       1.0000 0.44940  0.88820  0.32120  Biso   1.000  O
  O10      1.0000 0.05060  0.38820  0.17880  Biso   1.000  O
  O11      1.0000 0.55060  0.11180  0.67880  Biso   1.000  O
  O12      1.0000 0.94940  0.61180  0.82120  Biso   1.000  O
  O13      1.0000 0.48520  0.87210  0.62390  Biso   1.000  O
  O14      1.0000 0.01480  0.37210  0.87610  Biso   1.000  O
  O15      1.0000 0.51480  0.12790  0.37610  Biso   1.000  O
  O16      1.0000 0.98520  0.62790  0.12390  Biso   1.000  O
  C5       1.0000 0.98280  0.92270  0.19520  Biso   1.000  C
  C6       1.0000 0.51720  0.42270  0.30480  Biso   1.000  C
  C7       1.0000 0.01720  0.07730  0.80480  Biso   1.000  C
  C8       1.0000 0.48280  0.57730  0.69520  Biso   1.000  C
  N5       1.0000 0.03700  0.84920  0.32760  Biso   1.000  N
  N6       1.0000 0.46300  0.34920  0.17240  Biso   1.000  N
  N7       1.0000 0.96300  0.15080  0.67240  Biso   1.000  N
  N8       1.0000 0.53700  0.65080  0.82760  Biso   1.000  N
  Cu9      1.0000 0.20908  0.80488  0.49162  Biso   1.000  Cu
  Cu10     1.0000 0.29092  0.30488  0.00838  Biso   1.000  Cu
  Cu11     1.0000 0.79092  0.19512  0.50838  Biso   1.000  Cu
  Cu12     1.0000 0.70908  0.69512  0.99162  Biso   1.000  Cu
  W9       1.0000 0.26104  0.82257  0.33981  Biso   1.000  W
  W10      1.0000 0.23896  0.32257  0.16019  Biso   1.000  W
  W11      1.0000 0.73896  0.17743  0.66019  Biso   1.000  W
  W12      1.0000 0.76104  0.67743  0.83981  Biso   1.000  W
  O17      1.0000 0.39480  0.88990  0.20810  Biso   1.000  O
  O18      1.0000 0.10520  0.38990  0.29190  Biso   1.000  O
  O19      1.0000 0.60520  0.11010  0.79190  Biso   1.000  O
  O20      1.0000 0.89480  0.61010  0.70810  Biso   1.000  O
  O21      1.0000 0.47960  0.76860  0.58660  Biso   1.000  O
  O22      1.0000 0.02040  0.26860  0.91340  Biso   1.000  O
  O23      1.0000 0.52040  0.23140  0.41340  Biso   1.000  O
  O24      1.0000 0.97960  0.73140  0.08660  Biso   1.000  O
  C9       1.0000 0.95410  0.88740  0.14860  Biso   1.000  C
  C10      1.0000 0.54590  0.38740  0.35140  Biso   1.000  C
  C11      1.0000 0.04590  0.11260  0.85140  Biso   1.000  C
  C12      1.0000 0.45410  0.61260  0.64860  Biso   1.000  C
  H1       1.0000 0.94940  0.85260  0.15710  Biso   1.000  H
  H2       1.0000 0.55060  0.35260  0.34290  Biso   1.000  H
  H3       1.0000 0.05060  0.14740  0.84290  Biso   1.000  H
  H4       1.0000 0.44940  0.64740  0.65710  Biso   1.000  H
  N9       1.0000 0.04540  0.89450  0.35120  Biso   1.000  N
  N10      1.0000 0.45460  0.39450  0.14880  Biso   1.000  N
  N11      1.0000 0.95460  0.10550  0.64880  Biso   1.000  N
  N12      1.0000 0.54540  0.60550  0.85120  Biso   1.000  N
  Cu13     1.0000 0.00000  0.00000  0.50000  Biso   1.000  Cu
  Cu14     1.0000 0.50000  0.50000  0.00000  Biso   1.000  Cu
  W13      1.0000 0.44856  0.97572  0.34968  Biso   1.000  W
  W14      1.0000 0.05144  0.47572  0.15032  Biso   1.000  W
  W15      1.0000 0.55144  0.02428  0.65032  Biso   1.000  W
  W16      1.0000 0.94856  0.52428  0.84968  Biso   1.000  W
  O25      1.0000 0.42070  0.80360  0.26290  Biso   1.000  O
  O26      1.0000 0.07930  0.30360  0.23710  Biso   1.000  O
  O27      1.0000 0.57930  0.19640  0.73710  Biso   1.000  O
  O28      1.0000 0.92070  0.69640  0.76290  Biso   1.000  O
  O29      1.0000 0.01900  0.73910  0.30700  Biso   1.000  O
  O30      1.0000 0.48100  0.23910  0.19300  Biso   1.000  O
  O31      1.0000 0.98100  0.26090  0.69300  Biso   1.000  O
  O32      1.0000 0.51900  0.76090  0.80700  Biso   1.000  O
  C13      1.0000 0.93320  0.90280  0.09160  Biso   1.000  C
  C14      1.0000 0.56680  0.40280  0.40840  Biso   1.000  C
  C15      1.0000 0.06680  0.09720  0.90840  Biso   1.000  C
  C16      1.0000 0.43320  0.59720  0.59160  Biso   1.000  C
  H5       1.0000 0.91880  0.87920  0.06010  Biso   1.000  H
  H6       1.0000 0.58120  0.37920  0.43990  Biso   1.000  H
  H7       1.0000 0.08120  0.12080  0.93990  Biso   1.000  H
  H8       1.0000 0.41880  0.62080  0.56010  Biso   1.000  H
  N13      1.0000 0.02820  0.92840  0.30740  Biso   1.000  N
  N14      1.0000 0.47180  0.42840  0.19260  Biso   1.000  N
  N15      1.0000 0.97180  0.07160  0.69260  Biso   1.000  N
  N16      1.0000 0.52820  0.57160  0.80740  Biso   1.000  N
  Cu15     1.0000 0.40622  0.82612  0.56610  Biso   1.000  Cu
  Cu16     1.0000 0.09378  0.32612  0.93390  Biso   1.000  Cu
  Cu17     1.0000 0.59378  0.17388  0.43390  Biso   1.000  Cu
  Cu18     1.0000 0.90622  0.67388  0.06610  Biso   1.000  Cu
  W17      1.0000 0.36544  0.97928  0.18535  Biso   1.000  W
  W18      1.0000 0.13456  0.47928  0.31465  Biso   1.000  W
  W19      1.0000 0.63456  0.02072  0.81465  Biso   1.000  W
  W20      1.0000 0.86544  0.52072  0.68535  Biso   1.000  W
  O33      1.0000 0.62530  0.88550  0.31950  Biso   1.000  O
  O34      1.0000 0.87470  0.38550  0.18050  Biso   1.000  O
  O35      1.0000 0.37470  0.11450  0.68050  Biso   1.000  O
  O36      1.0000 0.12530  0.61450  0.81950  Biso   1.000  O
  C17      1.0000 0.96000  0.99090  0.12700  Biso   1.000  C
  C18      1.0000 0.54000  0.49090  0.37300  Biso   1.000  C
  C19      1.0000 0.04000  0.00910  0.87300  Biso   1.000  C
  C20      1.0000 0.46000  0.50910  0.62700  Biso   1.000  C
  H9       1.0000 0.96070  0.02630  0.11910  Biso   1.000  H
  H10      1.0000 0.53930  0.52630  0.38090  Biso   1.000  H
  H11      1.0000 0.03930  0.97370  0.88090  Biso   1.000  H
  H12      1.0000 0.46070  0.47370  0.61910  Biso   1.000  H
  N17      1.0000 0.93400  0.95720  0.08230  Biso   1.000  N
  N18      1.0000 0.56600  0.45720  0.41770  Biso   1.000  N
  N19      1.0000 0.06600  0.04280  0.91770  Biso   1.000  N
  N20      1.0000 0.43400  0.54280  0.58230  Biso   1.000  N
  O37      1.0000 0.98560  0.95120  0.67790  Biso   1.000  O
  O38      1.0000 0.51440  0.45120  0.82210  Biso   1.000  O
  O39      1.0000 0.01440  0.04880  0.32210  Biso   1.000  O
  O40      1.0000 0.48560  0.54880  0.17790  Biso   1.000  O
  W21      1.0000 0.32725  0.86782  0.10751  Biso   1.000  W
  W22      1.0000 0.17275  0.36782  0.39249  Biso   1.000  W
  W23      1.0000 0.67275  0.13218  0.89249  Biso   1.000  W
  W24      1.0000 0.82725  0.63218  0.60751  Biso   1.000  W
  O41      1.0000 0.57070  0.88920  0.20600  Biso   1.000  O
  O42      1.0000 0.92930  0.38920  0.29400  Biso   1.000  O
  O43      1.0000 0.42930  0.11080  0.79400  Biso   1.000  O
  O44      1.0000 0.07070  0.61080  0.70600  Biso   1.000  O
  C21      1.0000 0.98490  0.97370  0.18500  Biso   1.000  C
  C22      1.0000 0.51510  0.47370  0.31500  Biso   1.000  C
  C23      1.0000 0.01510  0.02630  0.81500  Biso   1.000  C
  C24      1.0000 0.48490  0.52630  0.68500  Biso   1.000  C
  H13      1.0000 0.00320  0.99700  0.21660  Biso   1.000  H
  H14      1.0000 0.49680  0.49700  0.28340  Biso   1.000  H
  H15      1.0000 0.99680  0.00300  0.78340  Biso   1.000  H
  H16      1.0000 0.50320  0.50300  0.71660  Biso   1.000  H
  N21      1.0000 0.22350  0.91560  0.46200  Biso   1.000  N
  N22      1.0000 0.27650  0.41560  0.03800  Biso   1.000  N
  N23      1.0000 0.77650  0.08440  0.53800  Biso   1.000  N
  N24      1.0000 0.72350  0.58440  0.96200  Biso   1.000  N
  O45      1.0000 0.17880  0.39970  0.55920  Biso   1.000  O
  O46      1.0000 0.32120  0.89970  0.94080  Biso   1.000  O
  O47      1.0000 0.82120  0.60030  0.44080  Biso   1.000  O
  O48      1.0000 0.67880  0.10030  0.05920  Biso   1.000  O
  W25      1.0000 0.35997  0.74297  0.18716  Biso   1.000  W
  W26      1.0000 0.14003  0.24297  0.31284  Biso   1.000  W
  W27      1.0000 0.64003  0.25703  0.81284  Biso   1.000  W
  W28      1.0000 0.85997  0.75703  0.68716  Biso   1.000  W
  O49      1.0000 0.59530  0.80130  0.26180  Biso   1.000  O
  O50      1.0000 0.90470  0.30130  0.23820  Biso   1.000  O
  O51      1.0000 0.40470  0.19870  0.73820  Biso   1.000  O
  O52      1.0000 0.09530  0.69870  0.76180  Biso   1.000  O
  C25      1.0000 0.28620  0.95100  0.47570  Biso   1.000  C
  C26      1.0000 0.21380  0.45100  0.02430  Biso   1.000  C
  C27      1.0000 0.71380  0.04900  0.52430  Biso   1.000  C
  C28      1.0000 0.78620  0.54900  0.97570  Biso   1.000  C
  N25      1.0000 0.25920  0.87290  0.49190  Biso   1.000  N
  N26      1.0000 0.24080  0.37290  0.00810  Biso   1.000  N
  N27      1.0000 0.74080  0.12710  0.50810  Biso   1.000  N
  N28      1.0000 0.75920  0.62710  0.99190  Biso   1.000  N
  O53      1.0000 0.40440  0.82350  0.90300  Biso   1.000  O
  O54      1.0000 0.09560  0.32350  0.59700  Biso   1.000  O
  O55      1.0000 0.59560  0.17650  0.09700  Biso   1.000  O
  O56      1.0000 0.90440  0.67650  0.40300  Biso   1.000  O
  W29      1.0000 0.43586  0.73963  0.33731  Biso   1.000  W
  W30      1.0000 0.06414  0.23963  0.16269  Biso   1.000  W
  W31      1.0000 0.56414  0.26037  0.66269  Biso   1.000  W
  W32      1.0000 0.93586  0.76037  0.83731  Biso   1.000  W
  O57      1.0000 0.71350  0.85800  0.26200  Biso   1.000  O
  O58      1.0000 0.78650  0.35800  0.23800  Biso   1.000  O
  O59      1.0000 0.28650  0.14200  0.73800  Biso   1.000  O
  O60      1.0000 0.21350  0.64200  0.76200  Biso   1.000  O
  C29      1.0000 0.27950  0.00200  0.45050  Biso   1.000  C
  C30      1.0000 0.22050  0.50200  0.04950  Biso   1.000  C
  C31      1.0000 0.72050  0.99800  0.54950  Biso   1.000  C
  C32      1.0000 0.77950  0.49800  0.95050  Biso   1.000  C
  N29      1.0000 0.33550  0.88250  0.52000  Biso   1.000  N
  N30      1.0000 0.16450  0.38250  0.98000  Biso   1.000  N
  N31      1.0000 0.66450  0.11750  0.48000  Biso   1.000  N
  N32      1.0000 0.83550  0.61750  0.02000  Biso   1.000  N
  O61      1.0000 0.35990  0.19480  0.39600  Biso   1.000  O
  O62      1.0000 0.14010  0.69480  0.10400  Biso   1.000  O
  O63      1.0000 0.64010  0.80520  0.60400  Biso   1.000  O
  O64      1.0000 0.85990  0.30520  0.89600  Biso   1.000  O
  W33      1.0000 0.47420  0.86183  0.42185  Biso   1.000  W
  W34      1.0000 0.02580  0.36183  0.07815  Biso   1.000  W
  W35      1.0000 0.52580  0.13817  0.57815  Biso   1.000  W
  W36      1.0000 0.97420  0.63817  0.92185  Biso   1.000  W
  O65      1.0000 0.21640  0.89140  0.32740  Biso   1.000  O
  O66      1.0000 0.28360  0.39140  0.17260  Biso   1.000  O
  O67      1.0000 0.78360  0.10860  0.67260  Biso   1.000  O
  O68      1.0000 0.71640  0.60860  0.82740  Biso   1.000  O
  C33      1.0000 0.20600  0.02340  0.41440  Biso   1.000  C
  C34      1.0000 0.29400  0.52340  0.08560  Biso   1.000  C
  C35      1.0000 0.79400  0.97660  0.58560  Biso   1.000  C
  C36      1.0000 0.70600  0.47660  0.91440  Biso   1.000  C
  H17      1.0000 0.15710  0.00480  0.40480  Biso   1.000  H
  H18      1.0000 0.34290  0.50480  0.09520  Biso   1.000  H
  H19      1.0000 0.84290  0.99520  0.59520  Biso   1.000  H
  H20      1.0000 0.65710  0.49520  0.90480  Biso   1.000  H
  N33      1.0000 0.35560  0.93020  0.51160  Biso   1.000  N
  N34      1.0000 0.14440  0.43020  0.98840  Biso   1.000  N
  N35      1.0000 0.64440  0.06980  0.48840  Biso   1.000  N
  N36      1.0000 0.85560  0.56980  0.01160  Biso   1.000  N
  O69      1.0000 0.36080  0.75290  0.99580  Biso   1.000  O
  O70      1.0000 0.13920  0.25290  0.50420  Biso   1.000  O
  O71      1.0000 0.63920  0.24710  0.00420  Biso   1.000  O
  O72      1.0000 0.86080  0.74710  0.49580  Biso   1.000  O
  W37      1.0000 0.66312  0.97394  0.34721  Biso   1.000  W
  W38      1.0000 0.83688  0.47394  0.15279  Biso   1.000  W
  W39      1.0000 0.33688  0.02606  0.65279  Biso   1.000  W
  W40      1.0000 0.16312  0.52606  0.84721  Biso   1.000  W
  O73      1.0000 0.15990  0.89570  0.20890  Biso   1.000  O
  O74      1.0000 0.34010  0.39570  0.29110  Biso   1.000  O
  O75      1.0000 0.84010  0.10430  0.79110  Biso   1.000  O
  O76      1.0000 0.65990  0.60430  0.70890  Biso   1.000  O
  C37      1.0000 0.20770  0.07070  0.39430  Biso   1.000  C
  C38      1.0000 0.29230  0.57070  0.10570  Biso   1.000  C
  C39      1.0000 0.79230  0.92930  0.60570  Biso   1.000  C
  C40      1.0000 0.70770  0.42930  0.89430  Biso   1.000  C
  H21      1.0000 0.15860  0.08460  0.36920  Biso   1.000  H
  H22      1.0000 0.34140  0.58460  0.13080  Biso   1.000  H
  H23      1.0000 0.84140  0.91540  0.63080  Biso   1.000  H
  H24      1.0000 0.65860  0.41540  0.86920  Biso   1.000  H
  N37      1.0000 0.27200  0.09930  0.40680  Biso   1.000  N
  N38      1.0000 0.22800  0.59930  0.09320  Biso   1.000  N
  N39      1.0000 0.72800  0.90070  0.59320  Biso   1.000  N
  N40      1.0000 0.77200  0.40070  0.90680  Biso   1.000  N
  O77      1.0000 0.00480  0.80580  0.51120  Biso   1.000  O
  O78      1.0000 0.49520  0.30580  0.98880  Biso   1.000  O
  O79      1.0000 0.99520  0.19420  0.48880  Biso   1.000  O
  O80      1.0000 0.50480  0.69420  0.01120  Biso   1.000  O
  W41      1.0000 0.58047  0.97711  0.18267  Biso   1.000  W
  W42      1.0000 0.91953  0.47711  0.31733  Biso   1.000  W
  W43      1.0000 0.41953  0.02289  0.81733  Biso   1.000  W
  W44      1.0000 0.08047  0.52289  0.68267  Biso   1.000  W
  O81      1.0000 0.18250  0.80530  0.26450  Biso   1.000  O
  O82      1.0000 0.31750  0.30530  0.23550  Biso   1.000  O
  O83      1.0000 0.81750  0.19470  0.73550  Biso   1.000  O
  O84      1.0000 0.68250  0.69470  0.76450  Biso   1.000  O
  C41      1.0000 0.34370  0.08120  0.44110  Biso   1.000  C
  C42      1.0000 0.15630  0.58120  0.05890  Biso   1.000  C
  C43      1.0000 0.65630  0.91880  0.55890  Biso   1.000  C
  C44      1.0000 0.84370  0.41880  0.94110  Biso   1.000  C
  H25      1.0000 0.39050  0.10150  0.44890  Biso   1.000  H
  H26      1.0000 0.10950  0.60150  0.05110  Biso   1.000  H
  H27      1.0000 0.60950  0.89850  0.55110  Biso   1.000  H
  H28      1.0000 0.89050  0.39850  0.94890  Biso   1.000  H
  N41      1.0000 0.19330  0.68880  0.50620  Biso   1.000  N
  N42      1.0000 0.30670  0.18880  0.99380  Biso   1.000  N
  N43      1.0000 0.80670  0.31120  0.49380  Biso   1.000  N
  N44      1.0000 0.69330  0.81120  0.00620  Biso   1.000  N
  O85      1.0000 0.99970  0.88980  0.77980  Biso   1.000  O
  O86      1.0000 0.50030  0.38980  0.72020  Biso   1.000  O
  O87      1.0000 0.00030  0.11020  0.22020  Biso   1.000  O
  O88      1.0000 0.49970  0.61020  0.27980  Biso   1.000  O
  W45      1.0000 0.54198  0.86479  0.10535  Biso   1.000  W
  W46      1.0000 0.95802  0.36479  0.39465  Biso   1.000  W
  W47      1.0000 0.45802  0.13521  0.89465  Biso   1.000  W
  W48      1.0000 0.04198  0.63521  0.60535  Biso   1.000  W
  O89      1.0000 0.33400  0.96070  0.32750  Biso   1.000  O
  O90      1.0000 0.16600  0.46070  0.17250  Biso   1.000  O
  O91      1.0000 0.66600  0.03930  0.67250  Biso   1.000  O
  O92      1.0000 0.83400  0.53930  0.82750  Biso   1.000  O
  C45      1.0000 0.34890  0.03290  0.46490  Biso   1.000  C
  C46      1.0000 0.15110  0.53290  0.03510  Biso   1.000  C
  C47      1.0000 0.65110  0.96710  0.53510  Biso   1.000  C
  C48      1.0000 0.84890  0.46710  0.96490  Biso   1.000  C
  H29      1.0000 0.39880  0.02060  0.49070  Biso   1.000  H
  H30      1.0000 0.10120  0.52060  0.00930  Biso   1.000  H
  H31      1.0000 0.60120  0.97940  0.50930  Biso   1.000  H
  H32      1.0000 0.89880  0.47940  0.99070  Biso   1.000  H
  N45      1.0000 0.16490  0.73390  0.47840  Biso   1.000  N
  N46      1.0000 0.33510  0.23390  0.02160  Biso   1.000  N
  N47      1.0000 0.83510  0.26610  0.52160  Biso   1.000  N
  N48      1.0000 0.66490  0.76610  0.97840  Biso   1.000  N
  O93      1.0000 0.47000  0.89970  0.73080  Biso   1.000  O
  O94      1.0000 0.03000  0.39970  0.76920  Biso   1.000  O
  O95      1.0000 0.53000  0.10030  0.26920  Biso   1.000  O
  O96      1.0000 0.97000  0.60030  0.23080  Biso   1.000  O
  W49      1.0000 0.57436  0.74030  0.18467  Biso   1.000  W
  W50      1.0000 0.92564  0.24030  0.31533  Biso   1.000  W
  W51      1.0000 0.42564  0.25970  0.81533  Biso   1.000  W
  W52      1.0000 0.07436  0.75970  0.68467  Biso   1.000  W
  O97      1.0000 0.27490  0.96360  0.21010  Biso   1.000  O
  O98      1.0000 0.22510  0.46360  0.28990  Biso   1.000  O
  O99      1.0000 0.72510  0.03640  0.78990  Biso   1.000  O
  O100     1.0000 0.77490  0.53640  0.71010  Biso   1.000  O
  C49      1.0000 0.14360  0.65360  0.47390  Biso   1.000  C
  C50      1.0000 0.35640  0.15360  0.02610  Biso   1.000  C
  C51      1.0000 0.85640  0.34640  0.52610  Biso   1.000  C
  C52      1.0000 0.64360  0.84640  0.97390  Biso   1.000  C
  N49      1.0000 0.10030  0.72380  0.43140  Biso   1.000  N
  N50      1.0000 0.39970  0.22380  0.06860  Biso   1.000  N
  N51      1.0000 0.89970  0.27620  0.56860  Biso   1.000  N
  N52      1.0000 0.60030  0.77620  0.93140  Biso   1.000  N
  O101     1.0000 0.35200  0.26310  0.48750  Biso   1.000  O
  O102     1.0000 0.14800  0.76310  0.01250  Biso   1.000  O
  O103     1.0000 0.64800  0.73690  0.51250  Biso   1.000  O
  O104     1.0000 0.85200  0.23690  0.98750  Biso   1.000  O
  W53      1.0000 0.65117  0.73696  0.33443  Biso   1.000  W
  W54      1.0000 0.84883  0.23696  0.16557  Biso   1.000  W
  W55      1.0000 0.34883  0.26304  0.66557  Biso   1.000  W
  W56      1.0000 0.15117  0.76304  0.83443  Biso   1.000  W
  O105     1.0000 0.23710  0.85870  0.13670  Biso   1.000  O
  O106     1.0000 0.26290  0.35870  0.36330  Biso   1.000  O
  O107     1.0000 0.76290  0.14130  0.86330  Biso   1.000  O
  O108     1.0000 0.73710  0.64130  0.63670  Biso   1.000  O
  C53      1.0000 0.15070  0.59840  0.49030  Biso   1.000  C
  C54      1.0000 0.34930  0.09840  0.00970  Biso   1.000  C
  C55      1.0000 0.84930  0.40160  0.50970  Biso   1.000  C
  C56      1.0000 0.65070  0.90160  0.99030  Biso   1.000  C
  N53      1.0000 0.08390  0.67340  0.42710  Biso   1.000  N
  N54      1.0000 0.41610  0.17340  0.07290  Biso   1.000  N
  N55      1.0000 0.91610  0.32660  0.57290  Biso   1.000  N
  N56      1.0000 0.58390  0.82660  0.92710  Biso   1.000  N
  O109     1.0000 0.21150  0.66820  0.24370  Biso   1.000  O
  O110     1.0000 0.28850  0.16820  0.25630  Biso   1.000  O
  O111     1.0000 0.78850  0.33180  0.75630  Biso   1.000  O
  O112     1.0000 0.71150  0.83180  0.74370  Biso   1.000  O
  W57      1.0000 0.68967  0.85931  0.41917  Biso   1.000  W
  W58      1.0000 0.81033  0.35931  0.08083  Biso   1.000  W
  W59      1.0000 0.31033  0.14069  0.58083  Biso   1.000  W
  W60      1.0000 0.18967  0.64069  0.91917  Biso   1.000  W
  O113     1.0000 0.26010  0.77050  0.19250  Biso   1.000  O
  O114     1.0000 0.23990  0.27050  0.30750  Biso   1.000  O
  O115     1.0000 0.73990  0.22950  0.80750  Biso   1.000  O
  O116     1.0000 0.76010  0.72950  0.69250  Biso   1.000  O
  C57      1.0000 0.20840  0.58310  0.53970  Biso   1.000  C
  C58      1.0000 0.29160  0.08310  0.96030  Biso   1.000  C
  C59      1.0000 0.79160  0.41690  0.46030  Biso   1.000  C
  C60      1.0000 0.70840  0.91690  0.03970  Biso   1.000  C
  H33      1.0000 0.24760  0.60710  0.56090  Biso   1.000  H
  H34      1.0000 0.25240  0.10710  0.93910  Biso   1.000  H
  H35      1.0000 0.75240  0.39290  0.43910  Biso   1.000  H
  H36      1.0000 0.74760  0.89290  0.06090  Biso   1.000  H
  N57      1.0000 0.15930  0.49710  0.52660  Biso   1.000  N
  N58      1.0000 0.34070  0.99710  0.97340  Biso   1.000  N
  N59      1.0000 0.84070  0.50290  0.47340  Biso   1.000  N
  N60      1.0000 0.65930  0.00290  0.02660  Biso   1.000  N
  O117     1.0000 0.10300  0.65480  0.30110  Biso   1.000  O
  O118     1.0000 0.39700  0.15480  0.19890  Biso   1.000  O
  O119     1.0000 0.89700  0.34520  0.69890  Biso   1.000  O
  O120     1.0000 0.60300  0.84520  0.80110  Biso   1.000  O
  W61      1.0000 0.79274  0.93253  0.26013  Biso   1.000  W
  W62      1.0000 0.70726  0.43253  0.23987  Biso   1.000  W
  W63      1.0000 0.20726  0.06747  0.73987  Biso   1.000  W
  W64      1.0000 0.29274  0.56747  0.76013  Biso   1.000  W
  O121     1.0000 0.32930  0.76800  0.33410  Biso   1.000  O
  O122     1.0000 0.17070  0.26800  0.16590  Biso   1.000  O
  O123     1.0000 0.67070  0.23200  0.66590  Biso   1.000  O
  O124     1.0000 0.82930  0.73200  0.83410  Biso   1.000  O
  C61      1.0000 0.21330  0.53430  0.56090  Biso   1.000  C
  C62      1.0000 0.28670  0.03430  0.93910  Biso   1.000  C
  C63      1.0000 0.78670  0.46570  0.43910  Biso   1.000  C
  C64      1.0000 0.71330  0.96570  0.06090  Biso   1.000  C
  H37      1.0000 0.25190  0.52560  0.59770  Biso   1.000  H
  H38      1.0000 0.24810  0.02560  0.90230  Biso   1.000  H
  H39      1.0000 0.74810  0.47440  0.40230  Biso   1.000  H
  H40      1.0000 0.75190  0.97440  0.09770  Biso   1.000  H
  N61      1.0000 0.15790  0.88010  0.56690  Biso   1.000  N
  N62      1.0000 0.34210  0.38010  0.93310  Biso   1.000  N
  N63      1.0000 0.84210  0.11990  0.43310  Biso   1.000  N
  N64      1.0000 0.65790  0.61990  0.06690  Biso   1.000  N
  O125     1.0000 0.16300  0.09270  0.22530  Biso   1.000  O
  O126     1.0000 0.33700  0.59270  0.27470  Biso   1.000  O
  O127     1.0000 0.83700  0.90730  0.77470  Biso   1.000  O
  O128     1.0000 0.66300  0.40730  0.72530  Biso   1.000  O
  W65      1.0000 0.75315  0.81886  0.18450  Biso   1.000  W
  W66      1.0000 0.74685  0.31886  0.31550  Biso   1.000  W
  W67      1.0000 0.24685  0.18114  0.81550  Biso   1.000  W
  W68      1.0000 0.25315  0.68114  0.68450  Biso   1.000  W
  O129     1.0000 0.35910  0.85320  0.39380  Biso   1.000  O
  O130     1.0000 0.14090  0.35320  0.10620  Biso   1.000  O
  O131     1.0000 0.64090  0.14680  0.60620  Biso   1.000  O
  O132     1.0000 0.85910  0.64680  0.89380  Biso   1.000  O
  C65      1.0000 0.10270  0.51170  0.47410  Biso   1.000  C
  C66      1.0000 0.39730  0.01170  0.02590  Biso   1.000  C
  C67      1.0000 0.89730  0.48830  0.52590  Biso   1.000  C
  C68      1.0000 0.60270  0.98830  0.97410  Biso   1.000  C
  H41      1.0000 0.06820  0.48690  0.44960  Biso   1.000  H
  H42      1.0000 0.43180  0.98690  0.05040  Biso   1.000  H
  H43      1.0000 0.93180  0.51310  0.55040  Biso   1.000  H
  H44      1.0000 0.56820  0.01310  0.94960  Biso   1.000  H
  N65      1.0000 0.10560  0.91000  0.52540  Biso   1.000  N
  N66      1.0000 0.39440  0.41000  0.97460  Biso   1.000  N
  N67      1.0000 0.89440  0.09000  0.47460  Biso   1.000  N
  N68      1.0000 0.60560  0.59000  0.02540  Biso   1.000  N
  O133     1.0000 0.96000  0.74250  0.18950  Biso   1.000  O
  O134     1.0000 0.54000  0.24250  0.31050  Biso   1.000  O
  O135     1.0000 0.04000  0.25750  0.81050  Biso   1.000  O
  O136     1.0000 0.46000  0.75750  0.68950  Biso   1.000  O
  W69      1.0000 0.82654  0.81877  0.33564  Biso   1.000  W
  W70      1.0000 0.67346  0.31877  0.16436  Biso   1.000  W
  W71      1.0000 0.17346  0.18123  0.66436  Biso   1.000  W
  W72      1.0000 0.32654  0.68123  0.83564  Biso   1.000  W
  O137     1.0000 0.42670  0.98950  0.26690  Biso   1.000  O
  O138     1.0000 0.07330  0.48950  0.23310  Biso   1.000  O
  O139     1.0000 0.57330  0.01050  0.73310  Biso   1.000  O
  O140     1.0000 0.92670  0.51050  0.76690  Biso   1.000  O
  C69      1.0000 0.09580  0.56220  0.45680  Biso   1.000  C
  C70      1.0000 0.40420  0.06220  0.04320  Biso   1.000  C
  C71      1.0000 0.90420  0.43780  0.54320  Biso   1.000  C
  C72      1.0000 0.59580  0.93780  0.95680  Biso   1.000  C
  H45      1.0000 0.05400  0.57240  0.42230  Biso   1.000  H
  H46      1.0000 0.44600  0.07240  0.07770  Biso   1.000  H
  H47      1.0000 0.94600  0.42760  0.57770  Biso   1.000  H
  H48      1.0000 0.55400  0.92760  0.92230  Biso   1.000  H
  N69      1.0000 0.07840  0.94820  0.55280  Biso   1.000  N
  N70      1.0000 0.42160  0.44820  0.94720  Biso   1.000  N
  N71      1.0000 0.92160  0.05180  0.44720  Biso   1.000  N
  N72      1.0000 0.57840  0.55180  0.05280  Biso   1.000  N
  O141     1.0000 0.31580  0.94050  0.11340  Biso   1.000  O
  O142     1.0000 0.18420  0.44050  0.38660  Biso   1.000  O
  O143     1.0000 0.68420  0.05950  0.88660  Biso   1.000  O
  O144     1.0000 0.81580  0.55950  0.61340  Biso   1.000  O
  C73      1.0000 0.16030  0.90300  0.61880  Biso   1.000  C
  C74      1.0000 0.33970  0.40300  0.88120  Biso   1.000  C
  C75      1.0000 0.83970  0.09700  0.38120  Biso   1.000  C
  C76      1.0000 0.66030  0.59700  0.11880  Biso   1.000  C
  N73      1.0000 0.10950  0.94400  0.61250  Biso   1.000  N
  N74      1.0000 0.39050  0.44400  0.88750  Biso   1.000  N
  N75      1.0000 0.89050  0.05600  0.38750  Biso   1.000  N
  N76      1.0000 0.60950  0.55600  0.11250  Biso   1.000  N
  O145     1.0000 0.35680  0.79760  0.13510  Biso   1.000  O
  O146     1.0000 0.14320  0.29760  0.36490  Biso   1.000  O
  O147     1.0000 0.64320  0.20240  0.86490  Biso   1.000  O
  O148     1.0000 0.85680  0.70240  0.63510  Biso   1.000  O
  C77      1.0000 0.21090  0.88320  0.67740  Biso   1.000  C
  C78      1.0000 0.28910  0.38320  0.82260  Biso   1.000  C
  C79      1.0000 0.78910  0.11680  0.32260  Biso   1.000  C
  C80      1.0000 0.71090  0.61680  0.17740  Biso   1.000  C
  N77      1.0000 0.31150  0.84990  0.78740  Biso   1.000  N
  N78      1.0000 0.18850  0.34990  0.71260  Biso   1.000  N
  N79      1.0000 0.68850  0.15010  0.21260  Biso   1.000  N
  N80      1.0000 0.81150  0.65010  0.28740  Biso   1.000  N
  O149     1.0000 0.38090  0.70840  0.26180  Biso   1.000  O
  O150     1.0000 0.11910  0.20840  0.23820  Biso   1.000  O
  O151     1.0000 0.61910  0.29160  0.73820  Biso   1.000  O
  O152     1.0000 0.88090  0.79160  0.76180  Biso   1.000  O
  C81      1.0000 0.26650  0.84640  0.68330  Biso   1.000  C
  C82      1.0000 0.23350  0.34640  0.81670  Biso   1.000  C
  C83      1.0000 0.73350  0.15360  0.31670  Biso   1.000  C
  C84      1.0000 0.76650  0.65360  0.18330  Biso   1.000  C
  H49      1.0000 0.27220  0.83260  0.64880  Biso   1.000  H
  H50      1.0000 0.22780  0.33260  0.85120  Biso   1.000  H
  H51      1.0000 0.72780  0.16740  0.35120  Biso   1.000  H
  H52      1.0000 0.77220  0.66740  0.14880  Biso   1.000  H
  O153     1.0000 0.48000  0.79440  0.39040  Biso   1.000  O
  O154     1.0000 0.02000  0.29440  0.10960  Biso   1.000  O
  O155     1.0000 0.52000  0.20560  0.60960  Biso   1.000  O
  O156     1.0000 0.98000  0.70560  0.89040  Biso   1.000  O
  C85      1.0000 0.31590  0.82780  0.73690  Biso   1.000  C
  C86      1.0000 0.18410  0.32780  0.76310  Biso   1.000  C
  C87      1.0000 0.68410  0.17220  0.26310  Biso   1.000  C
  C88      1.0000 0.81590  0.67220  0.23690  Biso   1.000  C
  H53      1.0000 0.35190  0.80050  0.73880  Biso   1.000  H
  H54      1.0000 0.14810  0.30050  0.76120  Biso   1.000  H
  H55      1.0000 0.64810  0.19950  0.26120  Biso   1.000  H
  H56      1.0000 0.85190  0.69950  0.23880  Biso   1.000  H
  O157     1.0000 0.46400  0.93480  0.41960  Biso   1.000  O
  O158     1.0000 0.03600  0.43480  0.08040  Biso   1.000  O
  O159     1.0000 0.53600  0.06520  0.58040  Biso   1.000  O
  O160     1.0000 0.96400  0.56520  0.91960  Biso   1.000  O
  C89      1.0000 0.25880  0.89010  0.78390  Biso   1.000  C
  C90      1.0000 0.24120  0.39010  0.71610  Biso   1.000  C
  C91      1.0000 0.74120  0.10990  0.21610  Biso   1.000  C
  C92      1.0000 0.75880  0.60990  0.28390  Biso   1.000  C
  H57      1.0000 0.25600  0.90620  0.81820  Biso   1.000  H
  H58      1.0000 0.24400  0.40620  0.68180  Biso   1.000  H
  H59      1.0000 0.74400  0.09380  0.18180  Biso   1.000  H
  H60      1.0000 0.75600  0.59380  0.31820  Biso   1.000  H
  O161     1.0000 0.56060  0.97230  0.35870  Biso   1.000  O
  O162     1.0000 0.93940  0.47230  0.14130  Biso   1.000  O
  O163     1.0000 0.43940  0.02770  0.64130  Biso   1.000  O
  O164     1.0000 0.06060  0.52770  0.85870  Biso   1.000  O
  C93      1.0000 0.20990  0.90590  0.72760  Biso   1.000  C
  C94      1.0000 0.29010  0.40590  0.77240  Biso   1.000  C
  C95      1.0000 0.79010  0.09410  0.27240  Biso   1.000  C
  C96      1.0000 0.70990  0.59410  0.22760  Biso   1.000  C
  H61      1.0000 0.17450  0.93370  0.72450  Biso   1.000  H
  H62      1.0000 0.32550  0.43370  0.77550  Biso   1.000  H
  H63      1.0000 0.82550  0.06630  0.27550  Biso   1.000  H
  H64      1.0000 0.67450  0.56630  0.22450  Biso   1.000  H
  O165     1.0000 0.46810  0.97720  0.17280  Biso   1.000  O
  O166     1.0000 0.03190  0.47720  0.32720  Biso   1.000  O
  O167     1.0000 0.53190  0.02280  0.82720  Biso   1.000  O
  O168     1.0000 0.96810  0.52280  0.67280  Biso   1.000  O
  O169     1.0000 0.43190  0.87550  0.10340  Biso   1.000  O
  O170     1.0000 0.06810  0.37550  0.39660  Biso   1.000  O
  O171     1.0000 0.56810  0.12450  0.89660  Biso   1.000  O
  O172     1.0000 0.93190  0.62450  0.60340  Biso   1.000  O
  O173     1.0000 0.47060  0.73300  0.19500  Biso   1.000  O
  O174     1.0000 0.02940  0.23300  0.30500  Biso   1.000  O
  O175     1.0000 0.52940  0.26700  0.80500  Biso   1.000  O
  O176     1.0000 0.97060  0.76700  0.69500  Biso   1.000  O
  O177     1.0000 0.53830  0.72960  0.32840  Biso   1.000  O
  O178     1.0000 0.96170  0.22960  0.17160  Biso   1.000  O
  O179     1.0000 0.46170  0.27040  0.67160  Biso   1.000  O
  O180     1.0000 0.03830  0.77040  0.82840  Biso   1.000  O
  O181     1.0000 0.58640  0.86830  0.42630  Biso   1.000  O
  O182     1.0000 0.91360  0.36830  0.07370  Biso   1.000  O
  O183     1.0000 0.41360  0.13170  0.57370  Biso   1.000  O
  O184     1.0000 0.08640  0.63170  0.92630  Biso   1.000  O
  O185     1.0000 0.60160  0.98870  0.26490  Biso   1.000  O
  O186     1.0000 0.89840  0.48870  0.23510  Biso   1.000  O
  O187     1.0000 0.39840  0.01130  0.73510  Biso   1.000  O
  O188     1.0000 0.10160  0.51130  0.76490  Biso   1.000  O
  O189     1.0000 0.55950  0.93730  0.11050  Biso   1.000  O
  O190     1.0000 0.94050  0.43730  0.38950  Biso   1.000  O
  O191     1.0000 0.44050  0.06270  0.88950  Biso   1.000  O
  O192     1.0000 0.05950  0.56270  0.61050  Biso   1.000  O
  O193     1.0000 0.53190  0.79780  0.13500  Biso   1.000  O
  O194     1.0000 0.96810  0.29780  0.36500  Biso   1.000  O
  O195     1.0000 0.46810  0.20220  0.86500  Biso   1.000  O
  O196     1.0000 0.03190  0.70220  0.63500  Biso   1.000  O
  O197     1.0000 0.62380  0.70360  0.25760  Biso   1.000  O
  O198     1.0000 0.87620  0.20360  0.24240  Biso   1.000  O
  O199     1.0000 0.37620  0.29640  0.74240  Biso   1.000  O
  O200     1.0000 0.12380  0.79640  0.75760  Biso   1.000  O
  O201     1.0000 0.65540  0.79170  0.38840  Biso   1.000  O
  O202     1.0000 0.84460  0.29170  0.11160  Biso   1.000  O
  O203     1.0000 0.34460  0.20830  0.61160  Biso   1.000  O
  O204     1.0000 0.15540  0.70830  0.88840  Biso   1.000  O
  O205     1.0000 0.71090  0.93190  0.41700  Biso   1.000  O
  O206     1.0000 0.78910  0.43190  0.08300  Biso   1.000  O
  O207     1.0000 0.28910  0.06810  0.58300  Biso   1.000  O
  O208     1.0000 0.21090  0.56810  0.91700  Biso   1.000  O
  O209     1.0000 0.75240  0.95630  0.32170  Biso   1.000  O
  O210     1.0000 0.74760  0.45630  0.17830  Biso   1.000  O
  O211     1.0000 0.24760  0.04370  0.67830  Biso   1.000  O
  O212     1.0000 0.25240  0.54370  0.82170  Biso   1.000  O
  O213     1.0000 0.69360  0.95940  0.20480  Biso   1.000  O
  O214     1.0000 0.80640  0.45940  0.29520  Biso   1.000  O
  O215     1.0000 0.30640  0.04060  0.79520  Biso   1.000  O
  O216     1.0000 0.19360  0.54060  0.70480  Biso   1.000  O
  O217     1.0000 0.65570  0.85250  0.13130  Biso   1.000  O
  O218     1.0000 0.84430  0.35250  0.36870  Biso   1.000  O
  O219     1.0000 0.34430  0.14750  0.86870  Biso   1.000  O
  O220     1.0000 0.15570  0.64750  0.63130  Biso   1.000  O
  O221     1.0000 0.68090  0.76380  0.18860  Biso   1.000  O
  O222     1.0000 0.81910  0.26380  0.31140  Biso   1.000  O
  O223     1.0000 0.31910  0.23620  0.81140  Biso   1.000  O
  O224     1.0000 0.18090  0.73620  0.68860  Biso   1.000  O
  O225     1.0000 0.75110  0.76260  0.32960  Biso   1.000  O
  O226     1.0000 0.74890  0.26260  0.17040  Biso   1.000  O
  O227     1.0000 0.24890  0.23740  0.67040  Biso   1.000  O
  O228     1.0000 0.25110  0.73740  0.82960  Biso   1.000  O
  O229     1.0000 0.77980  0.84860  0.38860  Biso   1.000  O
  O230     1.0000 0.72020  0.34860  0.11140  Biso   1.000  O
  O231     1.0000 0.22020  0.15140  0.61140  Biso   1.000  O
  O232     1.0000 0.27980  0.65140  0.88860  Biso   1.000  O
  O233     1.0000 0.80370  0.88620  0.20060  Biso   1.000  O
  O234     1.0000 0.69630  0.38620  0.29940  Biso   1.000  O
  O235     1.0000 0.19630  0.11380  0.79940  Biso   1.000  O
  O236     1.0000 0.30370  0.61380  0.70060  Biso   1.000  O
  O237     1.0000 0.82920  0.79750  0.25850  Biso   1.000  O
  O238     1.0000 0.67080  0.29750  0.24150  Biso   1.000  O
  O239     1.0000 0.17080  0.20250  0.74150  Biso   1.000  O
  O240     1.0000 0.32920  0.70250  0.75850  Biso   1.000  O
  O241     1.0000 0.86190  0.88400  0.31880  Biso   1.000  O
  O242     1.0000 0.63810  0.38400  0.18120  Biso   1.000  O
  O243     1.0000 0.13810  0.11600  0.68120  Biso   1.000  O
  O244     1.0000 0.36190  0.61600  0.81880  Biso   1.000  O
  O245     1.0000 0.16760  0.98800  0.27300  Biso   1.000  O
  O246     1.0000 0.33240  0.48800  0.22700  Biso   1.000  O
  O247     1.0000 0.83240  0.01200  0.72700  Biso   1.000  O
  O248     1.0000 0.66760  0.51200  0.77300  Biso   1.000  O
  O249     1.0000 0.09710  0.80720  0.14190  Biso   1.000  O
  O250     1.0000 0.40290  0.30720  0.35810  Biso   1.000  O
  O251     1.0000 0.90290  0.19280  0.85810  Biso   1.000  O
  O252     1.0000 0.59710  0.69280  0.64190  Biso   1.000  O
  O253     1.0000 0.21390  0.79740  0.38670  Biso   1.000  O
  O254     1.0000 0.28610  0.29740  0.11330  Biso   1.000  O
  O255     1.0000 0.78610  0.20260  0.61330  Biso   1.000  O
  O256     1.0000 0.71390  0.70260  0.88670  Biso   1.000  O
  O257     1.0000 0.44600  0.03650  0.37850  Biso   1.000  O
  O258     1.0000 0.05400  0.53650  0.12150  Biso   1.000  O
  O259     1.0000 0.55400  0.96350  0.62150  Biso   1.000  O
  O260     1.0000 0.94600  0.46350  0.87850  Biso   1.000  O
  O261     1.0000 0.33690  0.04180  0.16170  Biso   1.000  O
  O262     1.0000 0.16310  0.54180  0.33830  Biso   1.000  O
  O263     1.0000 0.66310  0.95820  0.83830  Biso   1.000  O
  O264     1.0000 0.83690  0.45820  0.66170  Biso   1.000  O
  O265     1.0000 0.27260  0.85880  0.03290  Biso   1.000  O
  O266     1.0000 0.22740  0.35880  0.46710  Biso   1.000  O
  O267     1.0000 0.72740  0.14120  0.96710  Biso   1.000  O
  O268     1.0000 0.77260  0.64120  0.53290  Biso   1.000  O
  O269     1.0000 0.31790  0.69330  0.13950  Biso   1.000  O
  O270     1.0000 0.18210  0.19330  0.36050  Biso   1.000  O
  O271     1.0000 0.68210  0.30670  0.86050  Biso   1.000  O
  O272     1.0000 0.81790  0.80670  0.63950  Biso   1.000  O
  O273     1.0000 0.43930  0.68890  0.38410  Biso   1.000  O
  O274     1.0000 0.06070  0.18890  0.11590  Biso   1.000  O
  O275     1.0000 0.56070  0.31110  0.61590  Biso   1.000  O
  O276     1.0000 0.93930  0.81110  0.88410  Biso   1.000  O
  O277     1.0000 0.49040  0.85000  0.49560  Biso   1.000  O
  O278     1.0000 0.00960  0.35000  0.00440  Biso   1.000  O
  O279     1.0000 0.50960  0.15000  0.50440  Biso   1.000  O
  O280     1.0000 0.99040  0.65000  0.99560  Biso   1.000  O
  O281     1.0000 0.69490  0.03360  0.37420  Biso   1.000  O
  O282     1.0000 0.80510  0.53360  0.12580  Biso   1.000  O
  O283     1.0000 0.30510  0.96640  0.62580  Biso   1.000  O
  O284     1.0000 0.19490  0.46640  0.87420  Biso   1.000  O
  O285     1.0000 0.58660  0.03730  0.15710  Biso   1.000  O
  O286     1.0000 0.91340  0.53730  0.34290  Biso   1.000  O
  O287     1.0000 0.41340  0.96270  0.84290  Biso   1.000  O
  O288     1.0000 0.08660  0.46270  0.65710  Biso   1.000  O
  O289     1.0000 0.51950  0.85500  0.03160  Biso   1.000  O
  O290     1.0000 0.98050  0.35500  0.46840  Biso   1.000  O
  O291     1.0000 0.48050  0.14500  0.96840  Biso   1.000  O
  O292     1.0000 0.01950  0.64500  0.53160  Biso   1.000  O
  O293     1.0000 0.56750  0.69050  0.13640  Biso   1.000  O
  O294     1.0000 0.93250  0.19050  0.36360  Biso   1.000  O
  O295     1.0000 0.43250  0.30950  0.86360  Biso   1.000  O
  O296     1.0000 0.06750  0.80950  0.63640  Biso   1.000  O
  O297     1.0000 0.68930  0.68620  0.38110  Biso   1.000  O
  O298     1.0000 0.81070  0.18620  0.11890  Biso   1.000  O
  O299     1.0000 0.31070  0.31380  0.61890  Biso   1.000  O
  O300     1.0000 0.18930  0.81380  0.88110  Biso   1.000  O
  O301     1.0000 0.74580  0.84580  0.49180  Biso   1.000  O
  O302     1.0000 0.75420  0.34580  0.00820  Biso   1.000  O
  O303     1.0000 0.25420  0.15420  0.50820  Biso   1.000  O
  O304     1.0000 0.24580  0.65420  0.99180  Biso   1.000  O
  O305     1.0000 0.86250  0.97880  0.25970  Biso   1.000  O
  O306     1.0000 0.63750  0.47880  0.24030  Biso   1.000  O
  O307     1.0000 0.13750  0.02120  0.74030  Biso   1.000  O
  O308     1.0000 0.36250  0.52120  0.75970  Biso   1.000  O
  O309     1.0000 0.79840  0.79430  0.13660  Biso   1.000  O
  O310     1.0000 0.70160  0.29430  0.36340  Biso   1.000  O
  O311     1.0000 0.20160  0.20570  0.86340  Biso   1.000  O
  O312     1.0000 0.29840  0.70570  0.63660  Biso   1.000  O
  O313     1.0000 0.91830  0.79260  0.38040  Biso   1.000  O
  O314     1.0000 0.58170  0.29260  0.11960  Biso   1.000  O
  O315     1.0000 0.08170  0.20740  0.61960  Biso   1.000  O
  O316     1.0000 0.41830  0.70740  0.88040  Biso   1.000  O
  O317     1.0000 0.09690  0.82870  0.44710  Biso   1.000  O
  O318     1.0000 0.40310  0.32870  0.05290  Biso   1.000  O
  O319     1.0000 0.90310  0.17130  0.55290  Biso   1.000  O
  O320     1.0000 0.59690  0.67130  0.94710  Biso   1.000  O
  O321     1.0000 0.02830  0.97260  0.43320  Biso   1.000  O
  O322     1.0000 0.47170  0.47260  0.06680  Biso   1.000  O
  O323     1.0000 0.97170  0.02740  0.56680  Biso   1.000  O
  O324     1.0000 0.52830  0.52740  0.93320  Biso   1.000  O
  O325     1.0000 0.31270  0.78300  0.54450  Biso   1.000  O
  O326     1.0000 0.18730  0.28300  0.95550  Biso   1.000  O
  O327     1.0000 0.68730  0.21700  0.45550  Biso   1.000  O
  O328     1.0000 0.81270  0.71700  0.04450  Biso   1.000  O
