data_image0
_cell_length_a       24.091
_cell_length_b       34.462
_cell_length_c       9.065
_cell_angle_alpha    90
_cell_angle_beta     90
_cell_angle_gamma    90

_symmetry_space_group_name_H-M    "P 1"
_symmetry_int_tables_number       1

loop_
  _symmetry_equiv_pos_as_xyz
  'x, y, z'

loop_
  _atom_site_label
  _atom_site_occupancy
  _atom_site_fract_x
  _atom_site_fract_y
  _atom_site_fract_z
  _atom_site_thermal_displace_type
  _atom_site_B_iso_or_equiv
  _atom_site_type_symbol
  Cu1      1.0000 0.62500  0.62500  0.62500  Biso   1.000  Cu
  Cu2      1.0000 0.62500  0.12500  0.12500  Biso   1.000  Cu
  Cu3      1.0000 0.12500  0.62500  0.12500  Biso   1.000  Cu
  Cu4      1.0000 0.12500  0.12500  0.62500  Biso   1.000  Cu
  Cu5      1.0000 0.37500  0.37500  0.37500  Biso   1.000  Cu
  Cu6      1.0000 0.37500  0.87500  0.87500  Biso   1.000  Cu
  Cu7      1.0000 0.87500  0.37500  0.87500  Biso   1.000  Cu
  Cu8      1.0000 0.87500  0.87500  0.37500  Biso   1.000  Cu
  P1       1.0000 0.62500  0.49921  0.12500  Biso   1.000  P
  P2       1.0000 0.62500  0.75079  0.12500  Biso   1.000  P
  P3       1.0000 0.62500  0.99921  0.62500  Biso   1.000  P
  P4       1.0000 0.12500  0.49921  0.62500  Biso   1.000  P
  P5       1.0000 0.12500  0.99921  0.12500  Biso   1.000  P
  P6       1.0000 0.62500  0.25079  0.62500  Biso   1.000  P
  P7       1.0000 0.12500  0.25079  0.12500  Biso   1.000  P
  P8       1.0000 0.12500  0.75079  0.62500  Biso   1.000  P
  P9       1.0000 0.37500  0.50079  0.87500  Biso   1.000  P
  P10      1.0000 0.37500  0.74921  0.37500  Biso   1.000  P
  P11      1.0000 0.87500  0.50079  0.37500  Biso   1.000  P
  P12      1.0000 0.87500  0.74921  0.87500  Biso   1.000  P
  P13      1.0000 0.37500  0.00079  0.37500  Biso   1.000  P
  P14      1.0000 0.87500  0.00079  0.87500  Biso   1.000  P
  P15      1.0000 0.37500  0.24921  0.87500  Biso   1.000  P
  P16      1.0000 0.87500  0.24921  0.37500  Biso   1.000  P
  F1       1.0000 0.56530  0.49990  0.20090  Biso   1.000  F
  F2       1.0000 0.56530  0.75010  0.04910  Biso   1.000  F
  F3       1.0000 0.68470  0.49990  0.04910  Biso   1.000  F
  F4       1.0000 0.68470  0.75010  0.20090  Biso   1.000  F
  F5       1.0000 0.56530  0.99990  0.70090  Biso   1.000  F
  F6       1.0000 0.06530  0.49990  0.70090  Biso   1.000  F
  F7       1.0000 0.06530  0.99990  0.20090  Biso   1.000  F
  F8       1.0000 0.56530  0.25010  0.54910  Biso   1.000  F
  F9       1.0000 0.18470  0.49990  0.54910  Biso   1.000  F
  F10      1.0000 0.18470  0.25010  0.20090  Biso   1.000  F
  F11      1.0000 0.18470  0.99990  0.04910  Biso   1.000  F
  F12      1.0000 0.18470  0.75010  0.70090  Biso   1.000  F
  F13      1.0000 0.06530  0.25010  0.04910  Biso   1.000  F
  F14      1.0000 0.68470  0.25010  0.70090  Biso   1.000  F
  F15      1.0000 0.06530  0.75010  0.54910  Biso   1.000  F
  F16      1.0000 0.68470  0.99990  0.54910  Biso   1.000  F
  F17      1.0000 0.43470  0.50010  0.79910  Biso   1.000  F
  F18      1.0000 0.43470  0.74990  0.45090  Biso   1.000  F
  F19      1.0000 0.81530  0.50010  0.45090  Biso   1.000  F
  F20      1.0000 0.81530  0.74990  0.79910  Biso   1.000  F
  F21      1.0000 0.43470  0.00010  0.29910  Biso   1.000  F
  F22      1.0000 0.93470  0.50010  0.29910  Biso   1.000  F
  F23      1.0000 0.93470  0.00010  0.79910  Biso   1.000  F
  F24      1.0000 0.43470  0.24990  0.95090  Biso   1.000  F
  F25      1.0000 0.31530  0.50010  0.95090  Biso   1.000  F
  F26      1.0000 0.31530  0.24990  0.79910  Biso   1.000  F
  F27      1.0000 0.31530  0.00010  0.45090  Biso   1.000  F
  F28      1.0000 0.31530  0.74990  0.29910  Biso   1.000  F
  F29      1.0000 0.93470  0.24990  0.45090  Biso   1.000  F
  F30      1.0000 0.81530  0.24990  0.29910  Biso   1.000  F
  F31      1.0000 0.93470  0.74990  0.95090  Biso   1.000  F
  F32      1.0000 0.81530  0.00010  0.95090  Biso   1.000  F
  F33      1.0000 0.64330  0.53230  0.22300  Biso   1.000  F
  F34      1.0000 0.64330  0.71770  0.02700  Biso   1.000  F
  F35      1.0000 0.60670  0.53230  0.02700  Biso   1.000  F
  F36      1.0000 0.60670  0.71770  0.22300  Biso   1.000  F
  F37      1.0000 0.64330  0.03230  0.72300  Biso   1.000  F
  F38      1.0000 0.14330  0.53230  0.72300  Biso   1.000  F
  F39      1.0000 0.14330  0.03230  0.22300  Biso   1.000  F
  F40      1.0000 0.64330  0.21770  0.52700  Biso   1.000  F
  F41      1.0000 0.10670  0.53230  0.52700  Biso   1.000  F
  F42      1.0000 0.10670  0.21770  0.22300  Biso   1.000  F
  F43      1.0000 0.10670  0.03230  0.02700  Biso   1.000  F
  F44      1.0000 0.10670  0.71770  0.72300  Biso   1.000  F
  F45      1.0000 0.14330  0.21770  0.02700  Biso   1.000  F
  F46      1.0000 0.60670  0.21770  0.72300  Biso   1.000  F
  F47      1.0000 0.14330  0.71770  0.52700  Biso   1.000  F
  F48      1.0000 0.60670  0.03230  0.52700  Biso   1.000  F
  F49      1.0000 0.35670  0.46770  0.77700  Biso   1.000  F
  F50      1.0000 0.35670  0.78230  0.47300  Biso   1.000  F
  F51      1.0000 0.89330  0.46770  0.47300  Biso   1.000  F
  F52      1.0000 0.89330  0.78230  0.77700  Biso   1.000  F
  F53      1.0000 0.35670  0.96770  0.27700  Biso   1.000  F
  F54      1.0000 0.85670  0.46770  0.27700  Biso   1.000  F
  F55      1.0000 0.85670  0.96770  0.77700  Biso   1.000  F
  F56      1.0000 0.35670  0.28230  0.97300  Biso   1.000  F
  F57      1.0000 0.39330  0.46770  0.97300  Biso   1.000  F
  F58      1.0000 0.39330  0.28230  0.77700  Biso   1.000  F
  F59      1.0000 0.39330  0.96770  0.47300  Biso   1.000  F
  F60      1.0000 0.39330  0.78230  0.27700  Biso   1.000  F
  F61      1.0000 0.85670  0.28230  0.47300  Biso   1.000  F
  F62      1.0000 0.89330  0.28230  0.27700  Biso   1.000  F
  F63      1.0000 0.85670  0.78230  0.97300  Biso   1.000  F
  F64      1.0000 0.89330  0.96770  0.97300  Biso   1.000  F
  F65      1.0000 0.61140  0.46470  0.02540  Biso   1.000  F
  F66      1.0000 0.61140  0.78530  0.22460  Biso   1.000  F
  F67      1.0000 0.63860  0.46470  0.22460  Biso   1.000  F
  F68      1.0000 0.63860  0.78530  0.02540  Biso   1.000  F
  F69      1.0000 0.61140  0.96470  0.52540  Biso   1.000  F
  F70      1.0000 0.11140  0.46470  0.52540  Biso   1.000  F
  F71      1.0000 0.11140  0.96470  0.02540  Biso   1.000  F
  F72      1.0000 0.61140  0.28530  0.72460  Biso   1.000  F
  F73      1.0000 0.13860  0.46470  0.72460  Biso   1.000  F
  F74      1.0000 0.13860  0.28530  0.02540  Biso   1.000  F
  F75      1.0000 0.13860  0.96470  0.22460  Biso   1.000  F
  F76      1.0000 0.13860  0.78530  0.52540  Biso   1.000  F
  F77      1.0000 0.11140  0.28530  0.22460  Biso   1.000  F
  F78      1.0000 0.63860  0.28530  0.52540  Biso   1.000  F
  F79      1.0000 0.11140  0.78530  0.72460  Biso   1.000  F
  F80      1.0000 0.63860  0.96470  0.72460  Biso   1.000  F
  F81      1.0000 0.38860  0.53530  0.97460  Biso   1.000  F
  F82      1.0000 0.38860  0.71470  0.27540  Biso   1.000  F
  F83      1.0000 0.86140  0.53530  0.27540  Biso   1.000  F
  F84      1.0000 0.86140  0.71470  0.97460  Biso   1.000  F
  F85      1.0000 0.38860  0.03530  0.47460  Biso   1.000  F
  F86      1.0000 0.88860  0.53530  0.47460  Biso   1.000  F
  F87      1.0000 0.88860  0.03530  0.97460  Biso   1.000  F
  F88      1.0000 0.38860  0.21470  0.77540  Biso   1.000  F
  F89      1.0000 0.36140  0.53530  0.77540  Biso   1.000  F
  F90      1.0000 0.36140  0.21470  0.97460  Biso   1.000  F
  F91      1.0000 0.36140  0.03530  0.27540  Biso   1.000  F
  F92      1.0000 0.36140  0.71470  0.47460  Biso   1.000  F
  F93      1.0000 0.88860  0.21470  0.27540  Biso   1.000  F
  F94      1.0000 0.86140  0.21470  0.47460  Biso   1.000  F
  F95      1.0000 0.88860  0.71470  0.77540  Biso   1.000  F
  F96      1.0000 0.86140  0.03530  0.77540  Biso   1.000  F
  O1       1.0000 0.62500  0.55260  0.62500  Biso   1.000  O
  O2       1.0000 0.62500  0.69740  0.62500  Biso   1.000  O
  O3       1.0000 0.62500  0.05260  0.12500  Biso   1.000  O
  O4       1.0000 0.12500  0.55260  0.12500  Biso   1.000  O
  O5       1.0000 0.12500  0.05260  0.62500  Biso   1.000  O
  O6       1.0000 0.62500  0.19740  0.12500  Biso   1.000  O
  O7       1.0000 0.12500  0.19740  0.62500  Biso   1.000  O
  O8       1.0000 0.12500  0.69740  0.12500  Biso   1.000  O
  O9       1.0000 0.37500  0.44740  0.37500  Biso   1.000  O
  O10      1.0000 0.37500  0.80260  0.87500  Biso   1.000  O
  O11      1.0000 0.87500  0.44740  0.87500  Biso   1.000  O
  O12      1.0000 0.87500  0.80260  0.37500  Biso   1.000  O
  O13      1.0000 0.37500  0.94740  0.87500  Biso   1.000  O
  O14      1.0000 0.87500  0.94740  0.37500  Biso   1.000  O
  O15      1.0000 0.37500  0.30260  0.37500  Biso   1.000  O
  O16      1.0000 0.87500  0.30260  0.87500  Biso   1.000  O
  N1       1.0000 0.56570  0.62449  0.46910  Biso   1.000  N
  N2       1.0000 0.56570  0.62551  0.78090  Biso   1.000  N
  N3       1.0000 0.68430  0.62449  0.78090  Biso   1.000  N
  N4       1.0000 0.68430  0.62551  0.46910  Biso   1.000  N
  N5       1.0000 0.56570  0.12449  0.96910  Biso   1.000  N
  N6       1.0000 0.06570  0.62449  0.96910  Biso   1.000  N
  N7       1.0000 0.06570  0.12449  0.46910  Biso   1.000  N
  N8       1.0000 0.56570  0.12551  0.28090  Biso   1.000  N
  N9       1.0000 0.18430  0.62449  0.28090  Biso   1.000  N
  N10      1.0000 0.18430  0.12551  0.46910  Biso   1.000  N
  N11      1.0000 0.18430  0.12449  0.78090  Biso   1.000  N
  N12      1.0000 0.18430  0.62551  0.96910  Biso   1.000  N
  N13      1.0000 0.06570  0.12551  0.78090  Biso   1.000  N
  N14      1.0000 0.68430  0.12551  0.96910  Biso   1.000  N
  N15      1.0000 0.06570  0.62551  0.28090  Biso   1.000  N
  N16      1.0000 0.68430  0.12449  0.28090  Biso   1.000  N
  N17      1.0000 0.43430  0.37551  0.53090  Biso   1.000  N
  N18      1.0000 0.43430  0.87449  0.71910  Biso   1.000  N
  N19      1.0000 0.81570  0.37551  0.71910  Biso   1.000  N
  N20      1.0000 0.81570  0.87449  0.53090  Biso   1.000  N
  N21      1.0000 0.43430  0.87551  0.03090  Biso   1.000  N
  N22      1.0000 0.93430  0.37551  0.03090  Biso   1.000  N
  N23      1.0000 0.93430  0.87551  0.53090  Biso   1.000  N
  N24      1.0000 0.43430  0.37449  0.21910  Biso   1.000  N
  N25      1.0000 0.31570  0.37551  0.21910  Biso   1.000  N
  N26      1.0000 0.31570  0.37449  0.53090  Biso   1.000  N
  N27      1.0000 0.31570  0.87551  0.71910  Biso   1.000  N
  N28      1.0000 0.31570  0.87449  0.03090  Biso   1.000  N
  N29      1.0000 0.93430  0.37449  0.71910  Biso   1.000  N
  N30      1.0000 0.81570  0.37449  0.03090  Biso   1.000  N
  N31      1.0000 0.93430  0.87449  0.21910  Biso   1.000  N
  N32      1.0000 0.81570  0.87551  0.21910  Biso   1.000  N
  C1       1.0000 0.56330  0.59571  0.37020  Biso   1.000  C
  C2       1.0000 0.56330  0.65429  0.87980  Biso   1.000  C
  C3       1.0000 0.68670  0.59571  0.87980  Biso   1.000  C
  C4       1.0000 0.68670  0.65429  0.37020  Biso   1.000  C
  C5       1.0000 0.56330  0.09571  0.87020  Biso   1.000  C
  C6       1.0000 0.06330  0.59571  0.87020  Biso   1.000  C
  C7       1.0000 0.06330  0.09571  0.37020  Biso   1.000  C
  C8       1.0000 0.56330  0.15429  0.37980  Biso   1.000  C
  C9       1.0000 0.18670  0.59571  0.37980  Biso   1.000  C
  C10      1.0000 0.18670  0.15429  0.37020  Biso   1.000  C
  C11      1.0000 0.18670  0.09571  0.87980  Biso   1.000  C
  C12      1.0000 0.18670  0.65429  0.87020  Biso   1.000  C
  C13      1.0000 0.06330  0.15429  0.87980  Biso   1.000  C
  C14      1.0000 0.68670  0.15429  0.87020  Biso   1.000  C
  C15      1.0000 0.06330  0.65429  0.37980  Biso   1.000  C
  C16      1.0000 0.68670  0.09571  0.37980  Biso   1.000  C
  C17      1.0000 0.43670  0.40429  0.62980  Biso   1.000  C
  C18      1.0000 0.43670  0.84571  0.62020  Biso   1.000  C
  C19      1.0000 0.81330  0.40429  0.62020  Biso   1.000  C
  C20      1.0000 0.81330  0.84571  0.62980  Biso   1.000  C
  C21      1.0000 0.43670  0.90429  0.12980  Biso   1.000  C
  C22      1.0000 0.93670  0.40429  0.12980  Biso   1.000  C
  C23      1.0000 0.93670  0.90429  0.62980  Biso   1.000  C
  C24      1.0000 0.43670  0.34571  0.12020  Biso   1.000  C
  C25      1.0000 0.31330  0.40429  0.12020  Biso   1.000  C
  C26      1.0000 0.31330  0.34571  0.62980  Biso   1.000  C
  C27      1.0000 0.31330  0.90429  0.62020  Biso   1.000  C
  C28      1.0000 0.31330  0.84571  0.12980  Biso   1.000  C
  C29      1.0000 0.93670  0.34571  0.62020  Biso   1.000  C
  C30      1.0000 0.81330  0.34571  0.12980  Biso   1.000  C
  C31      1.0000 0.93670  0.84571  0.12020  Biso   1.000  C
  C32      1.0000 0.81330  0.90429  0.12020  Biso   1.000  C
  C33      1.0000 0.51760  0.59031  0.27900  Biso   1.000  C
  C34      1.0000 0.51760  0.65969  0.97100  Biso   1.000  C
  C35      1.0000 0.73240  0.59031  0.97100  Biso   1.000  C
  C36      1.0000 0.73240  0.65969  0.27900  Biso   1.000  C
  C37      1.0000 0.51760  0.09031  0.77900  Biso   1.000  C
  C38      1.0000 0.01760  0.59031  0.77900  Biso   1.000  C
  C39      1.0000 0.01760  0.09031  0.27900  Biso   1.000  C
  C40      1.0000 0.51760  0.15969  0.47100  Biso   1.000  C
  C41      1.0000 0.23240  0.59031  0.47100  Biso   1.000  C
  C42      1.0000 0.23240  0.15969  0.27900  Biso   1.000  C
  C43      1.0000 0.23240  0.09031  0.97100  Biso   1.000  C
  C44      1.0000 0.23240  0.65969  0.77900  Biso   1.000  C
  C45      1.0000 0.01760  0.15969  0.97100  Biso   1.000  C
  C46      1.0000 0.73240  0.15969  0.77900  Biso   1.000  C
  C47      1.0000 0.01760  0.65969  0.47100  Biso   1.000  C
  C48      1.0000 0.73240  0.09031  0.47100  Biso   1.000  C
  C49      1.0000 0.48240  0.40969  0.72100  Biso   1.000  C
  C50      1.0000 0.48240  0.84031  0.52900  Biso   1.000  C
  C51      1.0000 0.76760  0.40969  0.52900  Biso   1.000  C
  C52      1.0000 0.76760  0.84031  0.72100  Biso   1.000  C
  C53      1.0000 0.48240  0.90969  0.22100  Biso   1.000  C
  C54      1.0000 0.98240  0.40969  0.22100  Biso   1.000  C
  C55      1.0000 0.98240  0.90969  0.72100  Biso   1.000  C
  C56      1.0000 0.48240  0.34031  0.02900  Biso   1.000  C
  C57      1.0000 0.26760  0.40969  0.02900  Biso   1.000  C
  C58      1.0000 0.26760  0.34031  0.72100  Biso   1.000  C
  C59      1.0000 0.26760  0.90969  0.52900  Biso   1.000  C
  C60      1.0000 0.26760  0.84031  0.22100  Biso   1.000  C
  C61      1.0000 0.98240  0.34031  0.52900  Biso   1.000  C
  C62      1.0000 0.76760  0.34031  0.22100  Biso   1.000  C
  C63      1.0000 0.98240  0.84031  0.02900  Biso   1.000  C
  C64      1.0000 0.76760  0.90969  0.02900  Biso   1.000  C
  C65      1.0000 0.47320  0.61503  0.28680  Biso   1.000  C
  C66      1.0000 0.47320  0.63497  0.96320  Biso   1.000  C
  C67      1.0000 0.77680  0.61503  0.96320  Biso   1.000  C
  C68      1.0000 0.77680  0.63497  0.28680  Biso   1.000  C
  C69      1.0000 0.47320  0.11503  0.78680  Biso   1.000  C
  C70      1.0000 0.97320  0.61503  0.78680  Biso   1.000  C
  C71      1.0000 0.97320  0.11503  0.28680  Biso   1.000  C
  C72      1.0000 0.47320  0.13497  0.46320  Biso   1.000  C
  C73      1.0000 0.27680  0.61503  0.46320  Biso   1.000  C
  C74      1.0000 0.27680  0.13497  0.28680  Biso   1.000  C
  C75      1.0000 0.27680  0.11503  0.96320  Biso   1.000  C
  C76      1.0000 0.27680  0.63497  0.78680  Biso   1.000  C
  C77      1.0000 0.97320  0.13497  0.96320  Biso   1.000  C
  C78      1.0000 0.77680  0.13497  0.78680  Biso   1.000  C
  C79      1.0000 0.97320  0.63497  0.46320  Biso   1.000  C
  C80      1.0000 0.77680  0.11503  0.46320  Biso   1.000  C
  C81      1.0000 0.52680  0.38497  0.71320  Biso   1.000  C
  C82      1.0000 0.52680  0.86503  0.53680  Biso   1.000  C
  C83      1.0000 0.72320  0.38497  0.53680  Biso   1.000  C
  C84      1.0000 0.72320  0.86503  0.71320  Biso   1.000  C
  C85      1.0000 0.52680  0.88497  0.21320  Biso   1.000  C
  C86      1.0000 0.02680  0.38497  0.21320  Biso   1.000  C
  C87      1.0000 0.02680  0.88497  0.71320  Biso   1.000  C
  C88      1.0000 0.52680  0.36503  0.03680  Biso   1.000  C
  C89      1.0000 0.22320  0.38497  0.03680  Biso   1.000  C
  C90      1.0000 0.22320  0.36503  0.71320  Biso   1.000  C
  C91      1.0000 0.22320  0.88497  0.53680  Biso   1.000  C
  C92      1.0000 0.22320  0.86503  0.21320  Biso   1.000  C
  C93      1.0000 0.02680  0.36503  0.53680  Biso   1.000  C
  C94      1.0000 0.72320  0.36503  0.21320  Biso   1.000  C
  C95      1.0000 0.02680  0.86503  0.03680  Biso   1.000  C
  C96      1.0000 0.72320  0.88497  0.03680  Biso   1.000  C
  C97      1.0000 0.47690  0.64600  0.38500  Biso   1.000  C
  C98      1.0000 0.47690  0.60400  0.86500  Biso   1.000  C
  C99      1.0000 0.77310  0.64600  0.86500  Biso   1.000  C
  C100     1.0000 0.77310  0.60400  0.38500  Biso   1.000  C
  C101     1.0000 0.47690  0.14600  0.88500  Biso   1.000  C
  C102     1.0000 0.97690  0.64600  0.88500  Biso   1.000  C
  C103     1.0000 0.97690  0.14600  0.38500  Biso   1.000  C
  C104     1.0000 0.47690  0.10400  0.36500  Biso   1.000  C
  C105     1.0000 0.27310  0.64600  0.36500  Biso   1.000  C
  C106     1.0000 0.27310  0.10400  0.38500  Biso   1.000  C
  C107     1.0000 0.27310  0.14600  0.86500  Biso   1.000  C
  C108     1.0000 0.27310  0.60400  0.88500  Biso   1.000  C
  C109     1.0000 0.97690  0.10400  0.86500  Biso   1.000  C
  C110     1.0000 0.77310  0.10400  0.88500  Biso   1.000  C
  C111     1.0000 0.97690  0.60400  0.36500  Biso   1.000  C
  C112     1.0000 0.77310  0.14600  0.36500  Biso   1.000  C
  C113     1.0000 0.52310  0.35400  0.61500  Biso   1.000  C
  C114     1.0000 0.52310  0.89600  0.63500  Biso   1.000  C
  C115     1.0000 0.72690  0.35400  0.63500  Biso   1.000  C
  C116     1.0000 0.72690  0.89600  0.61500  Biso   1.000  C
  C117     1.0000 0.52310  0.85400  0.11500  Biso   1.000  C
  C118     1.0000 0.02310  0.35400  0.11500  Biso   1.000  C
  C119     1.0000 0.02310  0.85400  0.61500  Biso   1.000  C
  C120     1.0000 0.52310  0.39600  0.13500  Biso   1.000  C
  C121     1.0000 0.22690  0.35400  0.13500  Biso   1.000  C
  C122     1.0000 0.22690  0.39600  0.61500  Biso   1.000  C
  C123     1.0000 0.22690  0.85400  0.63500  Biso   1.000  C
  C124     1.0000 0.22690  0.89600  0.11500  Biso   1.000  C
  C125     1.0000 0.02310  0.39600  0.63500  Biso   1.000  C
  C126     1.0000 0.72690  0.39600  0.11500  Biso   1.000  C
  C127     1.0000 0.02310  0.89600  0.13500  Biso   1.000  C
  C128     1.0000 0.72690  0.85400  0.13500  Biso   1.000  C
  C129     1.0000 0.52220  0.64960  0.47320  Biso   1.000  C
  C130     1.0000 0.52220  0.60040  0.77680  Biso   1.000  C
  C131     1.0000 0.72780  0.64960  0.77680  Biso   1.000  C
  C132     1.0000 0.72780  0.60040  0.47320  Biso   1.000  C
  C133     1.0000 0.52220  0.14960  0.97320  Biso   1.000  C
  C134     1.0000 0.02220  0.64960  0.97320  Biso   1.000  C
  C135     1.0000 0.02220  0.14960  0.47320  Biso   1.000  C
  C136     1.0000 0.52220  0.10040  0.27680  Biso   1.000  C
  C137     1.0000 0.22780  0.64960  0.27680  Biso   1.000  C
  C138     1.0000 0.22780  0.10040  0.47320  Biso   1.000  C
  C139     1.0000 0.22780  0.14960  0.77680  Biso   1.000  C
  C140     1.0000 0.22780  0.60040  0.97320  Biso   1.000  C
  C141     1.0000 0.02220  0.10040  0.77680  Biso   1.000  C
  C142     1.0000 0.72780  0.10040  0.97320  Biso   1.000  C
  C143     1.0000 0.02220  0.60040  0.27680  Biso   1.000  C
  C144     1.0000 0.72780  0.14960  0.27680  Biso   1.000  C
  C145     1.0000 0.47780  0.35040  0.52680  Biso   1.000  C
  C146     1.0000 0.47780  0.89960  0.72320  Biso   1.000  C
  C147     1.0000 0.77220  0.35040  0.72320  Biso   1.000  C
  C148     1.0000 0.77220  0.89960  0.52680  Biso   1.000  C
  C149     1.0000 0.47780  0.85040  0.02680  Biso   1.000  C
  C150     1.0000 0.97780  0.35040  0.02680  Biso   1.000  C
  C151     1.0000 0.97780  0.85040  0.52680  Biso   1.000  C
  C152     1.0000 0.47780  0.39960  0.22320  Biso   1.000  C
  C153     1.0000 0.27220  0.35040  0.22320  Biso   1.000  C
  C154     1.0000 0.27220  0.39960  0.52680  Biso   1.000  C
  C155     1.0000 0.27220  0.85040  0.72320  Biso   1.000  C
  C156     1.0000 0.27220  0.89960  0.02680  Biso   1.000  C
  C157     1.0000 0.97780  0.39960  0.72320  Biso   1.000  C
  C158     1.0000 0.77220  0.39960  0.02680  Biso   1.000  C
  C159     1.0000 0.97780  0.89960  0.22320  Biso   1.000  C
  C160     1.0000 0.77220  0.85040  0.22320  Biso   1.000  C
  C161     1.0000 0.42290  0.61020  0.18810  Biso   1.000  C
  C162     1.0000 0.42290  0.63980  0.06190  Biso   1.000  C
  C163     1.0000 0.82710  0.61020  0.06190  Biso   1.000  C
  C164     1.0000 0.82710  0.63980  0.18810  Biso   1.000  C
  C165     1.0000 0.42290  0.11020  0.68810  Biso   1.000  C
  C166     1.0000 0.92290  0.61020  0.68810  Biso   1.000  C
  C167     1.0000 0.92290  0.11020  0.18810  Biso   1.000  C
  C168     1.0000 0.42290  0.13980  0.56190  Biso   1.000  C
  C169     1.0000 0.32710  0.61020  0.56190  Biso   1.000  C
  C170     1.0000 0.32710  0.13980  0.18810  Biso   1.000  C
  C171     1.0000 0.32710  0.11020  0.06190  Biso   1.000  C
  C172     1.0000 0.32710  0.63980  0.68810  Biso   1.000  C
  C173     1.0000 0.92290  0.13980  0.06190  Biso   1.000  C
  C174     1.0000 0.82710  0.13980  0.68810  Biso   1.000  C
  C175     1.0000 0.92290  0.63980  0.56190  Biso   1.000  C
  C176     1.0000 0.82710  0.11020  0.56190  Biso   1.000  C
  C177     1.0000 0.57710  0.38980  0.81190  Biso   1.000  C
  C178     1.0000 0.57710  0.86020  0.43810  Biso   1.000  C
  C179     1.0000 0.67290  0.38980  0.43810  Biso   1.000  C
  C180     1.0000 0.67290  0.86020  0.81190  Biso   1.000  C
  C181     1.0000 0.57710  0.88980  0.31190  Biso   1.000  C
  C182     1.0000 0.07710  0.38980  0.31190  Biso   1.000  C
  C183     1.0000 0.07710  0.88980  0.81190  Biso   1.000  C
  C184     1.0000 0.57710  0.36020  0.93810  Biso   1.000  C
  C185     1.0000 0.17290  0.38980  0.93810  Biso   1.000  C
  C186     1.0000 0.17290  0.36020  0.81190  Biso   1.000  C
  C187     1.0000 0.17290  0.88980  0.43810  Biso   1.000  C
  C188     1.0000 0.17290  0.86020  0.31190  Biso   1.000  C
  C189     1.0000 0.07710  0.36020  0.43810  Biso   1.000  C
  C190     1.0000 0.67290  0.36020  0.31190  Biso   1.000  C
  C191     1.0000 0.07710  0.86020  0.93810  Biso   1.000  C
  C192     1.0000 0.67290  0.88980  0.93810  Biso   1.000  C
  C193     1.0000 0.62500  0.51740  0.62500  Biso   1.000  C
  C194     1.0000 0.62500  0.73260  0.62500  Biso   1.000  C
  C195     1.0000 0.62500  0.01740  0.12500  Biso   1.000  C
  C196     1.0000 0.12500  0.51740  0.12500  Biso   1.000  C
  C197     1.0000 0.12500  0.01740  0.62500  Biso   1.000  C
  C198     1.0000 0.62500  0.23260  0.12500  Biso   1.000  C
  C199     1.0000 0.12500  0.23260  0.62500  Biso   1.000  C
  C200     1.0000 0.12500  0.73260  0.12500  Biso   1.000  C
  C201     1.0000 0.37500  0.48260  0.37500  Biso   1.000  C
  C202     1.0000 0.37500  0.76740  0.87500  Biso   1.000  C
  C203     1.0000 0.87500  0.48260  0.87500  Biso   1.000  C
  C204     1.0000 0.87500  0.76740  0.37500  Biso   1.000  C
  C205     1.0000 0.37500  0.98260  0.87500  Biso   1.000  C
  C206     1.0000 0.87500  0.98260  0.37500  Biso   1.000  C
  C207     1.0000 0.37500  0.26740  0.37500  Biso   1.000  C
  C208     1.0000 0.87500  0.26740  0.87500  Biso   1.000  C
  C209     1.0000 0.57260  0.49520  0.60660  Biso   1.000  C
  C210     1.0000 0.57260  0.75480  0.64340  Biso   1.000  C
  C211     1.0000 0.67740  0.49520  0.64340  Biso   1.000  C
  C212     1.0000 0.67740  0.75480  0.60660  Biso   1.000  C
  C213     1.0000 0.57260  0.99520  0.10660  Biso   1.000  C
  C214     1.0000 0.07260  0.49520  0.10660  Biso   1.000  C
  C215     1.0000 0.07260  0.99520  0.60660  Biso   1.000  C
  C216     1.0000 0.57260  0.25480  0.14340  Biso   1.000  C
  C217     1.0000 0.17740  0.49520  0.14340  Biso   1.000  C
  C218     1.0000 0.17740  0.25480  0.60660  Biso   1.000  C
  C219     1.0000 0.17740  0.99520  0.64340  Biso   1.000  C
  C220     1.0000 0.17740  0.75480  0.10660  Biso   1.000  C
  C221     1.0000 0.07260  0.25480  0.64340  Biso   1.000  C
  C222     1.0000 0.67740  0.25480  0.10660  Biso   1.000  C
  C223     1.0000 0.07260  0.75480  0.14340  Biso   1.000  C
  C224     1.0000 0.67740  0.99520  0.14340  Biso   1.000  C
  C225     1.0000 0.42740  0.50480  0.39340  Biso   1.000  C
  C226     1.0000 0.42740  0.74520  0.85660  Biso   1.000  C
  C227     1.0000 0.82260  0.50480  0.85660  Biso   1.000  C
  C228     1.0000 0.82260  0.74520  0.39340  Biso   1.000  C
  C229     1.0000 0.42740  0.00480  0.89340  Biso   1.000  C
  C230     1.0000 0.92740  0.50480  0.89340  Biso   1.000  C
  C231     1.0000 0.92740  0.00480  0.39340  Biso   1.000  C
  C232     1.0000 0.42740  0.24520  0.35660  Biso   1.000  C
  C233     1.0000 0.32260  0.50480  0.35660  Biso   1.000  C
  C234     1.0000 0.32260  0.24520  0.39340  Biso   1.000  C
  C235     1.0000 0.32260  0.00480  0.85660  Biso   1.000  C
  C236     1.0000 0.32260  0.74520  0.89340  Biso   1.000  C
  C237     1.0000 0.92740  0.24520  0.85660  Biso   1.000  C
  C238     1.0000 0.82260  0.24520  0.89340  Biso   1.000  C
  C239     1.0000 0.92740  0.74520  0.35660  Biso   1.000  C
  C240     1.0000 0.82260  0.00480  0.35660  Biso   1.000  C
  H1       1.0000 0.59350  0.57810  0.36260  Biso   1.000  H
  H2       1.0000 0.59350  0.67190  0.88740  Biso   1.000  H
  H3       1.0000 0.65650  0.57810  0.88740  Biso   1.000  H
  H4       1.0000 0.65650  0.67190  0.36260  Biso   1.000  H
  H5       1.0000 0.59350  0.07810  0.86260  Biso   1.000  H
  H6       1.0000 0.09350  0.57810  0.86260  Biso   1.000  H
  H7       1.0000 0.09350  0.07810  0.36260  Biso   1.000  H
  H8       1.0000 0.59350  0.17190  0.38740  Biso   1.000  H
  H9       1.0000 0.15650  0.57810  0.38740  Biso   1.000  H
  H10      1.0000 0.15650  0.17190  0.36260  Biso   1.000  H
  H11      1.0000 0.15650  0.07810  0.88740  Biso   1.000  H
  H12      1.0000 0.15650  0.67190  0.86260  Biso   1.000  H
  H13      1.0000 0.09350  0.17190  0.88740  Biso   1.000  H
  H14      1.0000 0.65650  0.17190  0.86260  Biso   1.000  H
  H15      1.0000 0.09350  0.67190  0.38740  Biso   1.000  H
  H16      1.0000 0.65650  0.07810  0.38740  Biso   1.000  H
  H17      1.0000 0.40650  0.42190  0.63740  Biso   1.000  H
  H18      1.0000 0.40650  0.82810  0.61260  Biso   1.000  H
  H19      1.0000 0.84350  0.42190  0.61260  Biso   1.000  H
  H20      1.0000 0.84350  0.82810  0.63740  Biso   1.000  H
  H21      1.0000 0.40650  0.92190  0.13740  Biso   1.000  H
  H22      1.0000 0.90650  0.42190  0.13740  Biso   1.000  H
  H23      1.0000 0.90650  0.92190  0.63740  Biso   1.000  H
  H24      1.0000 0.40650  0.32810  0.11260  Biso   1.000  H
  H25      1.0000 0.34350  0.42190  0.11260  Biso   1.000  H
  H26      1.0000 0.34350  0.32810  0.63740  Biso   1.000  H
  H27      1.0000 0.34350  0.92190  0.61260  Biso   1.000  H
  H28      1.0000 0.34350  0.82810  0.13740  Biso   1.000  H
  H29      1.0000 0.90650  0.32810  0.61260  Biso   1.000  H
  H30      1.0000 0.84350  0.32810  0.13740  Biso   1.000  H
  H31      1.0000 0.90650  0.82810  0.11260  Biso   1.000  H
  H32      1.0000 0.84350  0.92190  0.11260  Biso   1.000  H
  H33      1.0000 0.51700  0.56910  0.21010  Biso   1.000  H
  H34      1.0000 0.51700  0.68090  0.03990  Biso   1.000  H
  H35      1.0000 0.73300  0.56910  0.03990  Biso   1.000  H
  H36      1.0000 0.73300  0.68090  0.21010  Biso   1.000  H
  H37      1.0000 0.51700  0.06910  0.71010  Biso   1.000  H
  H38      1.0000 0.01700  0.56910  0.71010  Biso   1.000  H
  H39      1.0000 0.01700  0.06910  0.21010  Biso   1.000  H
  H40      1.0000 0.51700  0.18090  0.53990  Biso   1.000  H
  H41      1.0000 0.23300  0.56910  0.53990  Biso   1.000  H
  H42      1.0000 0.23300  0.18090  0.21010  Biso   1.000  H
  H43      1.0000 0.23300  0.06910  0.03990  Biso   1.000  H
  H44      1.0000 0.23300  0.68090  0.71010  Biso   1.000  H
  H45      1.0000 0.01700  0.18090  0.03990  Biso   1.000  H
  H46      1.0000 0.73300  0.18090  0.71010  Biso   1.000  H
  H47      1.0000 0.01700  0.68090  0.53990  Biso   1.000  H
  H48      1.0000 0.73300  0.06910  0.53990  Biso   1.000  H
  H49      1.0000 0.48300  0.43090  0.78990  Biso   1.000  H
  H50      1.0000 0.48300  0.81910  0.46010  Biso   1.000  H
  H51      1.0000 0.76700  0.43090  0.46010  Biso   1.000  H
  H52      1.0000 0.76700  0.81910  0.78990  Biso   1.000  H
  H53      1.0000 0.48300  0.93090  0.28990  Biso   1.000  H
  H54      1.0000 0.98300  0.43090  0.28990  Biso   1.000  H
  H55      1.0000 0.98300  0.93090  0.78990  Biso   1.000  H
  H56      1.0000 0.48300  0.31910  0.96010  Biso   1.000  H
  H57      1.0000 0.26700  0.43090  0.96010  Biso   1.000  H
  H58      1.0000 0.26700  0.31910  0.78990  Biso   1.000  H
  H59      1.0000 0.26700  0.93090  0.46010  Biso   1.000  H
  H60      1.0000 0.26700  0.81910  0.28990  Biso   1.000  H
  H61      1.0000 0.98300  0.31910  0.46010  Biso   1.000  H
  H62      1.0000 0.76700  0.31910  0.28990  Biso   1.000  H
  H63      1.0000 0.98300  0.81910  0.96010  Biso   1.000  H
  H64      1.0000 0.76700  0.93090  0.96010  Biso   1.000  H
  H65      1.0000 0.44740  0.66460  0.38960  Biso   1.000  H
  H66      1.0000 0.44740  0.58540  0.86040  Biso   1.000  H
  H67      1.0000 0.80260  0.66460  0.86040  Biso   1.000  H
  H68      1.0000 0.80260  0.58540  0.38960  Biso   1.000  H
  H69      1.0000 0.44740  0.16460  0.88960  Biso   1.000  H
  H70      1.0000 0.94740  0.66460  0.88960  Biso   1.000  H
  H71      1.0000 0.94740  0.16460  0.38960  Biso   1.000  H
  H72      1.0000 0.44740  0.08540  0.36040  Biso   1.000  H
  H73      1.0000 0.30260  0.66460  0.36040  Biso   1.000  H
  H74      1.0000 0.30260  0.08540  0.38960  Biso   1.000  H
  H75      1.0000 0.30260  0.16460  0.86040  Biso   1.000  H
  H76      1.0000 0.30260  0.58540  0.88960  Biso   1.000  H
  H77      1.0000 0.94740  0.08540  0.86040  Biso   1.000  H
  H78      1.0000 0.80260  0.08540  0.88960  Biso   1.000  H
  H79      1.0000 0.94740  0.58540  0.36040  Biso   1.000  H
  H80      1.0000 0.80260  0.16460  0.36040  Biso   1.000  H
  H81      1.0000 0.55260  0.33540  0.61040  Biso   1.000  H
  H82      1.0000 0.55260  0.91460  0.63960  Biso   1.000  H
  H83      1.0000 0.69740  0.33540  0.63960  Biso   1.000  H
  H84      1.0000 0.69740  0.91460  0.61040  Biso   1.000  H
  H85      1.0000 0.55260  0.83540  0.11040  Biso   1.000  H
  H86      1.0000 0.05260  0.33540  0.11040  Biso   1.000  H
  H87      1.0000 0.05260  0.83540  0.61040  Biso   1.000  H
  H88      1.0000 0.55260  0.41460  0.13960  Biso   1.000  H
  H89      1.0000 0.19740  0.33540  0.13960  Biso   1.000  H
  H90      1.0000 0.19740  0.41460  0.61040  Biso   1.000  H
  H91      1.0000 0.19740  0.83540  0.63960  Biso   1.000  H
  H92      1.0000 0.19740  0.91460  0.11040  Biso   1.000  H
  H93      1.0000 0.05260  0.41460  0.63960  Biso   1.000  H
  H94      1.0000 0.69740  0.41460  0.11040  Biso   1.000  H
  H95      1.0000 0.05260  0.91460  0.13960  Biso   1.000  H
  H96      1.0000 0.69740  0.83540  0.13960  Biso   1.000  H
  H97      1.0000 0.52370  0.67120  0.54080  Biso   1.000  H
  H98      1.0000 0.52370  0.57880  0.70920  Biso   1.000  H
  H99      1.0000 0.72630  0.67120  0.70920  Biso   1.000  H
  H100     1.0000 0.72630  0.57880  0.54080  Biso   1.000  H
  H101     1.0000 0.52370  0.17120  0.04080  Biso   1.000  H
  H102     1.0000 0.02370  0.67120  0.04080  Biso   1.000  H
  H103     1.0000 0.02370  0.17120  0.54080  Biso   1.000  H
  H104     1.0000 0.52370  0.07880  0.20920  Biso   1.000  H
  H105     1.0000 0.22630  0.67120  0.20920  Biso   1.000  H
  H106     1.0000 0.22630  0.07880  0.54080  Biso   1.000  H
  H107     1.0000 0.22630  0.17120  0.70920  Biso   1.000  H
  H108     1.0000 0.22630  0.57880  0.04080  Biso   1.000  H
  H109     1.0000 0.02370  0.07880  0.70920  Biso   1.000  H
  H110     1.0000 0.72630  0.07880  0.04080  Biso   1.000  H
  H111     1.0000 0.02370  0.57880  0.20920  Biso   1.000  H
  H112     1.0000 0.72630  0.17120  0.20920  Biso   1.000  H
  H113     1.0000 0.47630  0.32880  0.45920  Biso   1.000  H
  H114     1.0000 0.47630  0.92120  0.79080  Biso   1.000  H
  H115     1.0000 0.77370  0.32880  0.79080  Biso   1.000  H
  H116     1.0000 0.77370  0.92120  0.45920  Biso   1.000  H
  H117     1.0000 0.47630  0.82880  0.95920  Biso   1.000  H
  H118     1.0000 0.97630  0.32880  0.95920  Biso   1.000  H
  H119     1.0000 0.97630  0.82880  0.45920  Biso   1.000  H
  H120     1.0000 0.47630  0.42120  0.29080  Biso   1.000  H
  H121     1.0000 0.27370  0.32880  0.29080  Biso   1.000  H
  H122     1.0000 0.27370  0.42120  0.45920  Biso   1.000  H
  H123     1.0000 0.27370  0.82880  0.79080  Biso   1.000  H
  H124     1.0000 0.27370  0.92120  0.95920  Biso   1.000  H
  H125     1.0000 0.97630  0.42120  0.79080  Biso   1.000  H
  H126     1.0000 0.77370  0.42120  0.95920  Biso   1.000  H
  H127     1.0000 0.97630  0.92120  0.29080  Biso   1.000  H
  H128     1.0000 0.77370  0.82880  0.29080  Biso   1.000  H
  H129     1.0000 0.42360  0.58420  0.14540  Biso   1.000  H
  H130     1.0000 0.42360  0.66580  0.10460  Biso   1.000  H
  H131     1.0000 0.82640  0.58420  0.10460  Biso   1.000  H
  H132     1.0000 0.82640  0.66580  0.14540  Biso   1.000  H
  H133     1.0000 0.42360  0.08420  0.64540  Biso   1.000  H
  H134     1.0000 0.92360  0.58420  0.64540  Biso   1.000  H
  H135     1.0000 0.92360  0.08420  0.14540  Biso   1.000  H
  H136     1.0000 0.42360  0.16580  0.60460  Biso   1.000  H
  H137     1.0000 0.32640  0.58420  0.60460  Biso   1.000  H
  H138     1.0000 0.32640  0.16580  0.14540  Biso   1.000  H
  H139     1.0000 0.32640  0.08420  0.10460  Biso   1.000  H
  H140     1.0000 0.32640  0.66580  0.64540  Biso   1.000  H
  H141     1.0000 0.92360  0.16580  0.10460  Biso   1.000  H
  H142     1.0000 0.82640  0.16580  0.64540  Biso   1.000  H
  H143     1.0000 0.92360  0.66580  0.60460  Biso   1.000  H
  H144     1.0000 0.82640  0.08420  0.60460  Biso   1.000  H
  H145     1.0000 0.57640  0.41580  0.85460  Biso   1.000  H
  H146     1.0000 0.57640  0.83420  0.39540  Biso   1.000  H
  H147     1.0000 0.67360  0.41580  0.39540  Biso   1.000  H
  H148     1.0000 0.67360  0.83420  0.85460  Biso   1.000  H
  H149     1.0000 0.57640  0.91580  0.35460  Biso   1.000  H
  H150     1.0000 0.07640  0.41580  0.35460  Biso   1.000  H
  H151     1.0000 0.07640  0.91580  0.85460  Biso   1.000  H
  H152     1.0000 0.57640  0.33420  0.89540  Biso   1.000  H
  H153     1.0000 0.17360  0.41580  0.89540  Biso   1.000  H
  H154     1.0000 0.17360  0.33420  0.85460  Biso   1.000  H
  H155     1.0000 0.17360  0.91580  0.39540  Biso   1.000  H
  H156     1.0000 0.17360  0.83420  0.35460  Biso   1.000  H
  H157     1.0000 0.07640  0.33420  0.39540  Biso   1.000  H
  H158     1.0000 0.67360  0.33420  0.35460  Biso   1.000  H
  H159     1.0000 0.07640  0.83420  0.89540  Biso   1.000  H
  H160     1.0000 0.67360  0.91580  0.89540  Biso   1.000  H
  H161     1.0000 0.39000  0.61220  0.24540  Biso   1.000  H
  H162     1.0000 0.39000  0.63780  0.00460  Biso   1.000  H
  H163     1.0000 0.86000  0.61220  0.00460  Biso   1.000  H
  H164     1.0000 0.86000  0.63780  0.24540  Biso   1.000  H
  H165     1.0000 0.39000  0.11220  0.74540  Biso   1.000  H
  H166     1.0000 0.89000  0.61220  0.74540  Biso   1.000  H
  H167     1.0000 0.89000  0.11220  0.24540  Biso   1.000  H
  H168     1.0000 0.39000  0.13780  0.50460  Biso   1.000  H
  H169     1.0000 0.36000  0.61220  0.50460  Biso   1.000  H
  H170     1.0000 0.36000  0.13780  0.24540  Biso   1.000  H
  H171     1.0000 0.36000  0.11220  0.00460  Biso   1.000  H
  H172     1.0000 0.36000  0.63780  0.74540  Biso   1.000  H
  H173     1.0000 0.89000  0.13780  0.00460  Biso   1.000  H
  H174     1.0000 0.86000  0.13780  0.74540  Biso   1.000  H
  H175     1.0000 0.89000  0.63780  0.50460  Biso   1.000  H
  H176     1.0000 0.86000  0.11220  0.50460  Biso   1.000  H
  H177     1.0000 0.61000  0.38780  0.75460  Biso   1.000  H
  H178     1.0000 0.61000  0.86220  0.49540  Biso   1.000  H
  H179     1.0000 0.64000  0.38780  0.49540  Biso   1.000  H
  H180     1.0000 0.64000  0.86220  0.75460  Biso   1.000  H
  H181     1.0000 0.61000  0.88780  0.25460  Biso   1.000  H
  H182     1.0000 0.11000  0.38780  0.25460  Biso   1.000  H
  H183     1.0000 0.11000  0.88780  0.75460  Biso   1.000  H
  H184     1.0000 0.61000  0.36220  0.99540  Biso   1.000  H
  H185     1.0000 0.14000  0.38780  0.99540  Biso   1.000  H
  H186     1.0000 0.14000  0.36220  0.75460  Biso   1.000  H
  H187     1.0000 0.14000  0.88780  0.49540  Biso   1.000  H
  H188     1.0000 0.14000  0.86220  0.25460  Biso   1.000  H
  H189     1.0000 0.11000  0.36220  0.49540  Biso   1.000  H
  H190     1.0000 0.64000  0.36220  0.25460  Biso   1.000  H
  H191     1.0000 0.11000  0.86220  0.99540  Biso   1.000  H
  H192     1.0000 0.64000  0.88780  0.99540  Biso   1.000  H
  H193     1.0000 0.54670  0.50250  0.68820  Biso   1.000  H
  H194     1.0000 0.54670  0.74750  0.56180  Biso   1.000  H
  H195     1.0000 0.70330  0.50250  0.56180  Biso   1.000  H
  H196     1.0000 0.70330  0.74750  0.68820  Biso   1.000  H
  H197     1.0000 0.54670  0.00250  0.18820  Biso   1.000  H
  H198     1.0000 0.04670  0.50250  0.18820  Biso   1.000  H
  H199     1.0000 0.04670  0.00250  0.68820  Biso   1.000  H
  H200     1.0000 0.54670  0.24750  0.06180  Biso   1.000  H
  H201     1.0000 0.20330  0.50250  0.06180  Biso   1.000  H
  H202     1.0000 0.20330  0.24750  0.68820  Biso   1.000  H
  H203     1.0000 0.20330  0.00250  0.56180  Biso   1.000  H
  H204     1.0000 0.20330  0.74750  0.18820  Biso   1.000  H
  H205     1.0000 0.04670  0.24750  0.56180  Biso   1.000  H
  H206     1.0000 0.70330  0.24750  0.18820  Biso   1.000  H
  H207     1.0000 0.04670  0.74750  0.06180  Biso   1.000  H
  H208     1.0000 0.70330  0.00250  0.06180  Biso   1.000  H
  H209     1.0000 0.45330  0.49750  0.31180  Biso   1.000  H
  H210     1.0000 0.45330  0.75250  0.93820  Biso   1.000  H
  H211     1.0000 0.79670  0.49750  0.93820  Biso   1.000  H
  H212     1.0000 0.79670  0.75250  0.31180  Biso   1.000  H
  H213     1.0000 0.45330  0.99750  0.81180  Biso   1.000  H
  H214     1.0000 0.95330  0.49750  0.81180  Biso   1.000  H
  H215     1.0000 0.95330  0.99750  0.31180  Biso   1.000  H
  H216     1.0000 0.45330  0.25250  0.43820  Biso   1.000  H
  H217     1.0000 0.29670  0.49750  0.43820  Biso   1.000  H
  H218     1.0000 0.29670  0.25250  0.31180  Biso   1.000  H
  H219     1.0000 0.29670  0.99750  0.93820  Biso   1.000  H
  H220     1.0000 0.29670  0.75250  0.81180  Biso   1.000  H
  H221     1.0000 0.95330  0.25250  0.93820  Biso   1.000  H
  H222     1.0000 0.79670  0.25250  0.81180  Biso   1.000  H
  H223     1.0000 0.95330  0.75250  0.43820  Biso   1.000  H
  H224     1.0000 0.79670  0.99750  0.43820  Biso   1.000  H
  H225     1.0000 0.55370  0.50260  0.51810  Biso   1.000  H
  H226     1.0000 0.55370  0.74740  0.73190  Biso   1.000  H
  H227     1.0000 0.69630  0.50260  0.73190  Biso   1.000  H
  H228     1.0000 0.69630  0.74740  0.51810  Biso   1.000  H
  H229     1.0000 0.55370  0.00260  0.01810  Biso   1.000  H
  H230     1.0000 0.05370  0.50260  0.01810  Biso   1.000  H
  H231     1.0000 0.05370  0.00260  0.51810  Biso   1.000  H
  H232     1.0000 0.55370  0.24740  0.23190  Biso   1.000  H
  H233     1.0000 0.19630  0.50260  0.23190  Biso   1.000  H
  H234     1.0000 0.19630  0.24740  0.51810  Biso   1.000  H
  H235     1.0000 0.19630  0.00260  0.73190  Biso   1.000  H
  H236     1.0000 0.19630  0.74740  0.01810  Biso   1.000  H
  H237     1.0000 0.05370  0.24740  0.73190  Biso   1.000  H
  H238     1.0000 0.69630  0.24740  0.01810  Biso   1.000  H
  H239     1.0000 0.05370  0.74740  0.23190  Biso   1.000  H
  H240     1.0000 0.69630  0.00260  0.23190  Biso   1.000  H
  H241     1.0000 0.44630  0.49740  0.48190  Biso   1.000  H
  H242     1.0000 0.44630  0.75260  0.76810  Biso   1.000  H
  H243     1.0000 0.80370  0.49740  0.76810  Biso   1.000  H
  H244     1.0000 0.80370  0.75260  0.48190  Biso   1.000  H
  H245     1.0000 0.44630  0.99740  0.98190  Biso   1.000  H
  H246     1.0000 0.94630  0.49740  0.98190  Biso   1.000  H
  H247     1.0000 0.94630  0.99740  0.48190  Biso   1.000  H
  H248     1.0000 0.44630  0.25260  0.26810  Biso   1.000  H
  H249     1.0000 0.30370  0.49740  0.26810  Biso   1.000  H
  H250     1.0000 0.30370  0.25260  0.48190  Biso   1.000  H
  H251     1.0000 0.30370  0.99740  0.76810  Biso   1.000  H
  H252     1.0000 0.30370  0.75260  0.98190  Biso   1.000  H
  H253     1.0000 0.94630  0.25260  0.76810  Biso   1.000  H
  H254     1.0000 0.80370  0.25260  0.98190  Biso   1.000  H
  H255     1.0000 0.94630  0.75260  0.26810  Biso   1.000  H
  H256     1.0000 0.80370  0.99740  0.26810  Biso   1.000  H
  H257     1.0000 0.57720  0.46850  0.61090  Biso   1.000  H
  H258     1.0000 0.57720  0.78150  0.63910  Biso   1.000  H
  H259     1.0000 0.67280  0.46850  0.63910  Biso   1.000  H
  H260     1.0000 0.67280  0.78150  0.61090  Biso   1.000  H
  H261     1.0000 0.57720  0.96850  0.11090  Biso   1.000  H
  H262     1.0000 0.07720  0.46850  0.11090  Biso   1.000  H
  H263     1.0000 0.07720  0.96850  0.61090  Biso   1.000  H
  H264     1.0000 0.57720  0.28150  0.13910  Biso   1.000  H
  H265     1.0000 0.17280  0.46850  0.13910  Biso   1.000  H
  H266     1.0000 0.17280  0.28150  0.61090  Biso   1.000  H
  H267     1.0000 0.17280  0.96850  0.63910  Biso   1.000  H
  H268     1.0000 0.17280  0.78150  0.11090  Biso   1.000  H
  H269     1.0000 0.07720  0.28150  0.63910  Biso   1.000  H
  H270     1.0000 0.67280  0.28150  0.11090  Biso   1.000  H
  H271     1.0000 0.07720  0.78150  0.13910  Biso   1.000  H
  H272     1.0000 0.67280  0.96850  0.13910  Biso   1.000  H
  H273     1.0000 0.42280  0.53150  0.38910  Biso   1.000  H
  H274     1.0000 0.42280  0.71850  0.86090  Biso   1.000  H
  H275     1.0000 0.82720  0.53150  0.86090  Biso   1.000  H
  H276     1.0000 0.82720  0.71850  0.38910  Biso   1.000  H
  H277     1.0000 0.42280  0.03150  0.88910  Biso   1.000  H
  H278     1.0000 0.92280  0.53150  0.88910  Biso   1.000  H
  H279     1.0000 0.92280  0.03150  0.38910  Biso   1.000  H
  H280     1.0000 0.42280  0.21850  0.36090  Biso   1.000  H
  H281     1.0000 0.32720  0.53150  0.36090  Biso   1.000  H
  H282     1.0000 0.32720  0.21850  0.38910  Biso   1.000  H
  H283     1.0000 0.32720  0.03150  0.86090  Biso   1.000  H
  H284     1.0000 0.32720  0.71850  0.88910  Biso   1.000  H
  H285     1.0000 0.92280  0.21850  0.86090  Biso   1.000  H
  H286     1.0000 0.82720  0.21850  0.88910  Biso   1.000  H
  H287     1.0000 0.92280  0.71850  0.36090  Biso   1.000  H
  H288     1.0000 0.82720  0.03150  0.36090  Biso   1.000  H
