data_image0
_cell_length_a       20.089
_cell_length_b       41.009
_cell_length_c       9.399
_cell_angle_alpha    90
_cell_angle_beta     90
_cell_angle_gamma    90

_symmetry_space_group_name_H-M    "P 1"
_symmetry_int_tables_number       1

loop_
  _symmetry_equiv_pos_as_xyz
  'x, y, z'

loop_
  _atom_site_label
  _atom_site_occupancy
  _atom_site_fract_x
  _atom_site_fract_y
  _atom_site_fract_z
  _atom_site_thermal_displace_type
  _atom_site_B_iso_or_equiv
  _atom_site_type_symbol
  Cu1      1.0000 0.50000  0.00000  0.16549  Biso   1.000  Cu
  Cu2      1.0000 0.75000  0.25000  0.41549  Biso   1.000  Cu
  Cu3      1.0000 0.00000  0.00000  0.66549  Biso   1.000  Cu
  Cu4      1.0000 0.50000  0.50000  0.66549  Biso   1.000  Cu
  Cu5      1.0000 0.75000  0.75000  0.91549  Biso   1.000  Cu
  Cu6      1.0000 0.00000  0.50000  0.16549  Biso   1.000  Cu
  Cu7      1.0000 0.25000  0.25000  0.91549  Biso   1.000  Cu
  Cu8      1.0000 0.25000  0.75000  0.41549  Biso   1.000  Cu
  P1       1.0000 0.21024  0.94589  0.11513  Biso   1.000  P
  P2       1.0000 0.03976  0.19589  0.36513  Biso   1.000  P
  P3       1.0000 0.46024  0.30411  0.36513  Biso   1.000  P
  P4       1.0000 0.28976  0.05411  0.61513  Biso   1.000  P
  P5       1.0000 0.21024  0.44589  0.61513  Biso   1.000  P
  P6       1.0000 0.03976  0.69589  0.86513  Biso   1.000  P
  P7       1.0000 0.46024  0.80411  0.86513  Biso   1.000  P
  P8       1.0000 0.28976  0.55411  0.11513  Biso   1.000  P
  P9       1.0000 0.71024  0.94589  0.61513  Biso   1.000  P
  P10      1.0000 0.53976  0.19589  0.86513  Biso   1.000  P
  P11      1.0000 0.96024  0.30411  0.86513  Biso   1.000  P
  P12      1.0000 0.78976  0.05411  0.11513  Biso   1.000  P
  P13      1.0000 0.71024  0.44589  0.11513  Biso   1.000  P
  P14      1.0000 0.53976  0.69589  0.36513  Biso   1.000  P
  P15      1.0000 0.96024  0.80411  0.36513  Biso   1.000  P
  P16      1.0000 0.78976  0.55411  0.61513  Biso   1.000  P
  F1       1.0000 0.15396  0.92302  0.18170  Biso   1.000  F
  F2       1.0000 0.09604  0.17302  0.43170  Biso   1.000  F
  F3       1.0000 0.40396  0.32698  0.43170  Biso   1.000  F
  F4       1.0000 0.34604  0.07698  0.68170  Biso   1.000  F
  F5       1.0000 0.15396  0.42302  0.68170  Biso   1.000  F
  F6       1.0000 0.09604  0.67302  0.93170  Biso   1.000  F
  F7       1.0000 0.40396  0.82698  0.93170  Biso   1.000  F
  F8       1.0000 0.34604  0.57698  0.18170  Biso   1.000  F
  F9       1.0000 0.65396  0.92302  0.68170  Biso   1.000  F
  F10      1.0000 0.59604  0.17302  0.93170  Biso   1.000  F
  F11      1.0000 0.90396  0.32698  0.93170  Biso   1.000  F
  F12      1.0000 0.84604  0.07698  0.18170  Biso   1.000  F
  F13      1.0000 0.65396  0.42302  0.18170  Biso   1.000  F
  F14      1.0000 0.59604  0.67302  0.43170  Biso   1.000  F
  F15      1.0000 0.90396  0.82698  0.43170  Biso   1.000  F
  F16      1.0000 0.84604  0.57698  0.68170  Biso   1.000  F
  F17      1.0000 0.26703  0.96720  0.04700  Biso   1.000  F
  F18      1.0000 0.98297  0.21720  0.29700  Biso   1.000  F
  F19      1.0000 0.51703  0.28280  0.29700  Biso   1.000  F
  F20      1.0000 0.23297  0.03280  0.54700  Biso   1.000  F
  F21      1.0000 0.26703  0.46720  0.54700  Biso   1.000  F
  F22      1.0000 0.98297  0.71720  0.79700  Biso   1.000  F
  F23      1.0000 0.51703  0.78280  0.79700  Biso   1.000  F
  F24      1.0000 0.23297  0.53280  0.04700  Biso   1.000  F
  F25      1.0000 0.76703  0.96720  0.54700  Biso   1.000  F
  F26      1.0000 0.48297  0.21720  0.79700  Biso   1.000  F
  F27      1.0000 0.01703  0.28280  0.79700  Biso   1.000  F
  F28      1.0000 0.73297  0.03280  0.04700  Biso   1.000  F
  F29      1.0000 0.76703  0.46720  0.04700  Biso   1.000  F
  F30      1.0000 0.48297  0.71720  0.29700  Biso   1.000  F
  F31      1.0000 0.01703  0.78280  0.29700  Biso   1.000  F
  F32      1.0000 0.73297  0.53280  0.54700  Biso   1.000  F
  F33      1.0000 0.25787  0.91495  0.11180  Biso   1.000  F
  F34      1.0000 0.99213  0.16495  0.36180  Biso   1.000  F
  F35      1.0000 0.50787  0.33505  0.36180  Biso   1.000  F
  F36      1.0000 0.24213  0.08505  0.61180  Biso   1.000  F
  F37      1.0000 0.25787  0.41495  0.61180  Biso   1.000  F
  F38      1.0000 0.99213  0.66495  0.86180  Biso   1.000  F
  F39      1.0000 0.50787  0.83505  0.86180  Biso   1.000  F
  F40      1.0000 0.24213  0.58505  0.11180  Biso   1.000  F
  F41      1.0000 0.75787  0.91495  0.61180  Biso   1.000  F
  F42      1.0000 0.49213  0.16495  0.86180  Biso   1.000  F
  F43      1.0000 0.00787  0.33505  0.86180  Biso   1.000  F
  F44      1.0000 0.74213  0.08505  0.11180  Biso   1.000  F
  F45      1.0000 0.75787  0.41495  0.11180  Biso   1.000  F
  F46      1.0000 0.49213  0.66495  0.36180  Biso   1.000  F
  F47      1.0000 0.00787  0.83505  0.36180  Biso   1.000  F
  F48      1.0000 0.74213  0.58505  0.61180  Biso   1.000  F
  F49      1.0000 0.16164  0.97592  0.11480  Biso   1.000  F
  F50      1.0000 0.08836  0.22592  0.36480  Biso   1.000  F
  F51      1.0000 0.41164  0.27408  0.36480  Biso   1.000  F
  F52      1.0000 0.33836  0.02408  0.61480  Biso   1.000  F
  F53      1.0000 0.16164  0.47592  0.61480  Biso   1.000  F
  F54      1.0000 0.08836  0.72592  0.86480  Biso   1.000  F
  F55      1.0000 0.41164  0.77408  0.86480  Biso   1.000  F
  F56      1.0000 0.33836  0.52408  0.11480  Biso   1.000  F
  F57      1.0000 0.66164  0.97592  0.61480  Biso   1.000  F
  F58      1.0000 0.58836  0.22592  0.86480  Biso   1.000  F
  F59      1.0000 0.91164  0.27408  0.86480  Biso   1.000  F
  F60      1.0000 0.83836  0.02408  0.11480  Biso   1.000  F
  F61      1.0000 0.66164  0.47592  0.11480  Biso   1.000  F
  F62      1.0000 0.58836  0.72592  0.36480  Biso   1.000  F
  F63      1.0000 0.91164  0.77408  0.36480  Biso   1.000  F
  F64      1.0000 0.83836  0.52408  0.61480  Biso   1.000  F
  F65      1.0000 0.23690  0.95581  0.26580  Biso   1.000  F
  F66      1.0000 0.01310  0.20581  0.51580  Biso   1.000  F
  F67      1.0000 0.48690  0.29419  0.51580  Biso   1.000  F
  F68      1.0000 0.26310  0.04419  0.76580  Biso   1.000  F
  F69      1.0000 0.23690  0.45581  0.76580  Biso   1.000  F
  F70      1.0000 0.01310  0.70581  0.01580  Biso   1.000  F
  F71      1.0000 0.48690  0.79419  0.01580  Biso   1.000  F
  F72      1.0000 0.26310  0.54419  0.26580  Biso   1.000  F
  F73      1.0000 0.73690  0.95581  0.76580  Biso   1.000  F
  F74      1.0000 0.51310  0.20581  0.01580  Biso   1.000  F
  F75      1.0000 0.98690  0.29419  0.01580  Biso   1.000  F
  F76      1.0000 0.76310  0.04419  0.26580  Biso   1.000  F
  F77      1.0000 0.73690  0.45581  0.26580  Biso   1.000  F
  F78      1.0000 0.51310  0.70581  0.51580  Biso   1.000  F
  F79      1.0000 0.98690  0.79419  0.51580  Biso   1.000  F
  F80      1.0000 0.76310  0.54419  0.76580  Biso   1.000  F
  F81      1.0000 0.18093  0.93560  0.96451  Biso   1.000  F
  F82      1.0000 0.06907  0.18560  0.21451  Biso   1.000  F
  F83      1.0000 0.43093  0.31440  0.21451  Biso   1.000  F
  F84      1.0000 0.31907  0.06440  0.46451  Biso   1.000  F
  F85      1.0000 0.18093  0.43560  0.46451  Biso   1.000  F
  F86      1.0000 0.06907  0.68560  0.71451  Biso   1.000  F
  F87      1.0000 0.43093  0.81440  0.71451  Biso   1.000  F
  F88      1.0000 0.31907  0.56440  0.96451  Biso   1.000  F
  F89      1.0000 0.68093  0.93560  0.46451  Biso   1.000  F
  F90      1.0000 0.56907  0.18560  0.71451  Biso   1.000  F
  F91      1.0000 0.93093  0.31440  0.71451  Biso   1.000  F
  F92      1.0000 0.81907  0.06440  0.96451  Biso   1.000  F
  F93      1.0000 0.68093  0.43560  0.96451  Biso   1.000  F
  F94      1.0000 0.56907  0.68560  0.21451  Biso   1.000  F
  F95      1.0000 0.93093  0.81440  0.21451  Biso   1.000  F
  F96      1.0000 0.81907  0.56440  0.46451  Biso   1.000  F
  N1       1.0000 0.46995  0.96863  0.31955  Biso   1.000  N
  N2       1.0000 0.78005  0.21863  0.56955  Biso   1.000  N
  N3       1.0000 0.71995  0.28137  0.56955  Biso   1.000  N
  N4       1.0000 0.03005  0.03137  0.81955  Biso   1.000  N
  N5       1.0000 0.46995  0.46863  0.81955  Biso   1.000  N
  N6       1.0000 0.78005  0.71863  0.06955  Biso   1.000  N
  N7       1.0000 0.71995  0.78137  0.06955  Biso   1.000  N
  N8       1.0000 0.03005  0.53137  0.31955  Biso   1.000  N
  N9       1.0000 0.96995  0.96863  0.81955  Biso   1.000  N
  N10      1.0000 0.28005  0.21863  0.06955  Biso   1.000  N
  N11      1.0000 0.21995  0.28137  0.06955  Biso   1.000  N
  N12      1.0000 0.53005  0.03137  0.31955  Biso   1.000  N
  N13      1.0000 0.96995  0.46863  0.31955  Biso   1.000  N
  N14      1.0000 0.28005  0.71863  0.56955  Biso   1.000  N
  N15      1.0000 0.21995  0.78137  0.56955  Biso   1.000  N
  N16      1.0000 0.53005  0.53137  0.81955  Biso   1.000  N
  N17      1.0000 0.46617  0.96883  0.01454  Biso   1.000  N
  N18      1.0000 0.78383  0.21883  0.26454  Biso   1.000  N
  N19      1.0000 0.71617  0.28117  0.26454  Biso   1.000  N
  N20      1.0000 0.03383  0.03117  0.51454  Biso   1.000  N
  N21      1.0000 0.46617  0.46883  0.51454  Biso   1.000  N
  N22      1.0000 0.78383  0.71883  0.76454  Biso   1.000  N
  N23      1.0000 0.71617  0.78117  0.76454  Biso   1.000  N
  N24      1.0000 0.03383  0.53117  0.01454  Biso   1.000  N
  N25      1.0000 0.96617  0.96883  0.51454  Biso   1.000  N
  N26      1.0000 0.28383  0.21883  0.76454  Biso   1.000  N
  N27      1.0000 0.21617  0.28117  0.76454  Biso   1.000  N
  N28      1.0000 0.53383  0.03117  0.01454  Biso   1.000  N
  N29      1.0000 0.96617  0.46883  0.01454  Biso   1.000  N
  N30      1.0000 0.28383  0.71883  0.26454  Biso   1.000  N
  N31      1.0000 0.21617  0.78117  0.26454  Biso   1.000  N
  N32      1.0000 0.53383  0.53117  0.51454  Biso   1.000  N
  N33      1.0000 0.39217  0.02723  0.15440  Biso   1.000  N
  N34      1.0000 0.85783  0.27723  0.40440  Biso   1.000  N
  N35      1.0000 0.64217  0.22277  0.40440  Biso   1.000  N
  N36      1.0000 0.10783  0.97277  0.65440  Biso   1.000  N
  N37      1.0000 0.39217  0.52723  0.65440  Biso   1.000  N
  N38      1.0000 0.85783  0.77723  0.90440  Biso   1.000  N
  N39      1.0000 0.64217  0.72277  0.90440  Biso   1.000  N
  N40      1.0000 0.10783  0.47277  0.15440  Biso   1.000  N
  N41      1.0000 0.89217  0.02723  0.65440  Biso   1.000  N
  N42      1.0000 0.35783  0.27723  0.90440  Biso   1.000  N
  N43      1.0000 0.14217  0.22277  0.90440  Biso   1.000  N
  N44      1.0000 0.60783  0.97277  0.15440  Biso   1.000  N
  N45      1.0000 0.89217  0.52723  0.15440  Biso   1.000  N
  N46      1.0000 0.35783  0.77723  0.40440  Biso   1.000  N
  N47      1.0000 0.14217  0.72277  0.40440  Biso   1.000  N
  N48      1.0000 0.60783  0.47277  0.65440  Biso   1.000  N
  N49      1.0000 0.25106  0.88118  0.48920  Biso   1.000  N
  N50      1.0000 0.99894  0.13118  0.73920  Biso   1.000  N
  N51      1.0000 0.50106  0.36882  0.73920  Biso   1.000  N
  N52      1.0000 0.24894  0.11882  0.98920  Biso   1.000  N
  N53      1.0000 0.25106  0.38118  0.98920  Biso   1.000  N
  N54      1.0000 0.99894  0.63118  0.23920  Biso   1.000  N
  N55      1.0000 0.50106  0.86882  0.23920  Biso   1.000  N
  N56      1.0000 0.24894  0.61882  0.48920  Biso   1.000  N
  N57      1.0000 0.75106  0.88118  0.98920  Biso   1.000  N
  N58      1.0000 0.49894  0.13118  0.23920  Biso   1.000  N
  N59      1.0000 0.00106  0.36882  0.23920  Biso   1.000  N
  N60      1.0000 0.74894  0.11882  0.48920  Biso   1.000  N
  N61      1.0000 0.75106  0.38118  0.48920  Biso   1.000  N
  N62      1.0000 0.49894  0.63118  0.73920  Biso   1.000  N
  N63      1.0000 0.00106  0.86882  0.73920  Biso   1.000  N
  N64      1.0000 0.74894  0.61882  0.98920  Biso   1.000  N
  C1       1.0000 0.51509  0.95766  0.41390  Biso   1.000  C
  C2       1.0000 0.73491  0.20766  0.66390  Biso   1.000  C
  C3       1.0000 0.76509  0.29234  0.66390  Biso   1.000  C
  C4       1.0000 0.98491  0.04234  0.91390  Biso   1.000  C
  C5       1.0000 0.51509  0.45766  0.91390  Biso   1.000  C
  C6       1.0000 0.73491  0.70766  0.16390  Biso   1.000  C
  C7       1.0000 0.76509  0.79234  0.16390  Biso   1.000  C
  C8       1.0000 0.98491  0.54234  0.41390  Biso   1.000  C
  C9       1.0000 0.01509  0.95766  0.91390  Biso   1.000  C
  C10      1.0000 0.23491  0.20766  0.16390  Biso   1.000  C
  C11      1.0000 0.26509  0.29234  0.16390  Biso   1.000  C
  C12      1.0000 0.48491  0.04234  0.41390  Biso   1.000  C
  C13      1.0000 0.01509  0.45766  0.41390  Biso   1.000  C
  C14      1.0000 0.23491  0.70766  0.66390  Biso   1.000  C
  C15      1.0000 0.26509  0.79234  0.66390  Biso   1.000  C
  C16      1.0000 0.48491  0.54234  0.91390  Biso   1.000  C
  C17      1.0000 0.50149  0.93261  0.50810  Biso   1.000  C
  C18      1.0000 0.74851  0.18261  0.75810  Biso   1.000  C
  C19      1.0000 0.75149  0.31739  0.75810  Biso   1.000  C
  C20      1.0000 0.99851  0.06739  0.00810  Biso   1.000  C
  C21      1.0000 0.50149  0.43261  0.00810  Biso   1.000  C
  C22      1.0000 0.74851  0.68261  0.25810  Biso   1.000  C
  C23      1.0000 0.75149  0.81739  0.25810  Biso   1.000  C
  C24      1.0000 0.99851  0.56739  0.50810  Biso   1.000  C
  C25      1.0000 0.00149  0.93261  0.00810  Biso   1.000  C
  C26      1.0000 0.24851  0.18261  0.25810  Biso   1.000  C
  C27      1.0000 0.25149  0.31739  0.25810  Biso   1.000  C
  C28      1.0000 0.49851  0.06739  0.50810  Biso   1.000  C
  C29      1.0000 0.00149  0.43261  0.50810  Biso   1.000  C
  C30      1.0000 0.24851  0.68261  0.75810  Biso   1.000  C
  C31      1.0000 0.25149  0.81739  0.75810  Biso   1.000  C
  C32      1.0000 0.49851  0.56739  0.00810  Biso   1.000  C
  C33      1.0000 0.43892  0.91819  0.50790  Biso   1.000  C
  C34      1.0000 0.81108  0.16819  0.75790  Biso   1.000  C
  C35      1.0000 0.68892  0.33181  0.75790  Biso   1.000  C
  C36      1.0000 0.06108  0.08181  0.00790  Biso   1.000  C
  C37      1.0000 0.43892  0.41819  0.00790  Biso   1.000  C
  C38      1.0000 0.81108  0.66819  0.25790  Biso   1.000  C
  C39      1.0000 0.68892  0.83181  0.25790  Biso   1.000  C
  C40      1.0000 0.06108  0.58181  0.50790  Biso   1.000  C
  C41      1.0000 0.93892  0.91819  0.00790  Biso   1.000  C
  C42      1.0000 0.31108  0.16819  0.25790  Biso   1.000  C
  C43      1.0000 0.18892  0.33181  0.25790  Biso   1.000  C
  C44      1.0000 0.56108  0.08181  0.50790  Biso   1.000  C
  C45      1.0000 0.93892  0.41819  0.50790  Biso   1.000  C
  C46      1.0000 0.31108  0.66819  0.75790  Biso   1.000  C
  C47      1.0000 0.18892  0.83181  0.75790  Biso   1.000  C
  C48      1.0000 0.56108  0.58181  0.00790  Biso   1.000  C
  C49      1.0000 0.39126  0.93074  0.41630  Biso   1.000  C
  C50      1.0000 0.85874  0.18074  0.66630  Biso   1.000  C
  C51      1.0000 0.64126  0.31926  0.66630  Biso   1.000  C
  C52      1.0000 0.10874  0.06926  0.91630  Biso   1.000  C
  C53      1.0000 0.39126  0.43074  0.91630  Biso   1.000  C
  C54      1.0000 0.85874  0.68074  0.16630  Biso   1.000  C
  C55      1.0000 0.64126  0.81926  0.16630  Biso   1.000  C
  C56      1.0000 0.10874  0.56926  0.41630  Biso   1.000  C
  C57      1.0000 0.89126  0.93074  0.91630  Biso   1.000  C
  C58      1.0000 0.35874  0.18074  0.16630  Biso   1.000  C
  C59      1.0000 0.14126  0.31926  0.16630  Biso   1.000  C
  C60      1.0000 0.60874  0.06926  0.41630  Biso   1.000  C
  C61      1.0000 0.89126  0.43074  0.41630  Biso   1.000  C
  C62      1.0000 0.35874  0.68074  0.66630  Biso   1.000  C
  C63      1.0000 0.14126  0.81926  0.66630  Biso   1.000  C
  C64      1.0000 0.60874  0.56926  0.91630  Biso   1.000  C
  C65      1.0000 0.40842  0.95546  0.32270  Biso   1.000  C
  C66      1.0000 0.84158  0.20546  0.57270  Biso   1.000  C
  C67      1.0000 0.65842  0.29454  0.57270  Biso   1.000  C
  C68      1.0000 0.09158  0.04454  0.82270  Biso   1.000  C
  C69      1.0000 0.40842  0.45546  0.82270  Biso   1.000  C
  C70      1.0000 0.84158  0.70546  0.07270  Biso   1.000  C
  C71      1.0000 0.65842  0.79454  0.07270  Biso   1.000  C
  C72      1.0000 0.09158  0.54454  0.32270  Biso   1.000  C
  C73      1.0000 0.90842  0.95546  0.82270  Biso   1.000  C
  C74      1.0000 0.34158  0.20546  0.07270  Biso   1.000  C
  C75      1.0000 0.15842  0.29454  0.07270  Biso   1.000  C
  C76      1.0000 0.59158  0.04454  0.32270  Biso   1.000  C
  C77      1.0000 0.90842  0.45546  0.32270  Biso   1.000  C
  C78      1.0000 0.34158  0.70546  0.57270  Biso   1.000  C
  C79      1.0000 0.15842  0.79454  0.57270  Biso   1.000  C
  C80      1.0000 0.59158  0.54454  0.82270  Biso   1.000  C
  C81      1.0000 0.42775  0.97879  0.90570  Biso   1.000  C
  C82      1.0000 0.82225  0.22879  0.15570  Biso   1.000  C
  C83      1.0000 0.67775  0.27121  0.15570  Biso   1.000  C
  C84      1.0000 0.07225  0.02121  0.40570  Biso   1.000  C
  C85      1.0000 0.42775  0.47879  0.40570  Biso   1.000  C
  C86      1.0000 0.82225  0.72879  0.65570  Biso   1.000  C
  C87      1.0000 0.67775  0.77121  0.65570  Biso   1.000  C
  C88      1.0000 0.07225  0.52121  0.90570  Biso   1.000  C
  C89      1.0000 0.92775  0.97879  0.40570  Biso   1.000  C
  C90      1.0000 0.32225  0.22879  0.65570  Biso   1.000  C
  C91      1.0000 0.17775  0.27121  0.65570  Biso   1.000  C
  C92      1.0000 0.57225  0.02121  0.90570  Biso   1.000  C
  C93      1.0000 0.92775  0.47879  0.90570  Biso   1.000  C
  C94      1.0000 0.32225  0.72879  0.15570  Biso   1.000  C
  C95      1.0000 0.17775  0.77121  0.15570  Biso   1.000  C
  C96      1.0000 0.57225  0.52121  0.40570  Biso   1.000  C
  C97      1.0000 0.39913  0.95733  0.80950  Biso   1.000  C
  C98      1.0000 0.85087  0.20733  0.05950  Biso   1.000  C
  C99      1.0000 0.64913  0.29267  0.05950  Biso   1.000  C
  C100     1.0000 0.10087  0.04267  0.30950  Biso   1.000  C
  C101     1.0000 0.39913  0.45733  0.30950  Biso   1.000  C
  C102     1.0000 0.85087  0.70733  0.55950  Biso   1.000  C
  C103     1.0000 0.64913  0.79267  0.55950  Biso   1.000  C
  C104     1.0000 0.10087  0.54267  0.80950  Biso   1.000  C
  C105     1.0000 0.89913  0.95733  0.30950  Biso   1.000  C
  C106     1.0000 0.35087  0.20733  0.55950  Biso   1.000  C
  C107     1.0000 0.14913  0.29267  0.55950  Biso   1.000  C
  C108     1.0000 0.60087  0.04267  0.80950  Biso   1.000  C
  C109     1.0000 0.89913  0.45733  0.80950  Biso   1.000  C
  C110     1.0000 0.35087  0.70733  0.05950  Biso   1.000  C
  C111     1.0000 0.14913  0.79267  0.05950  Biso   1.000  C
  C112     1.0000 0.60087  0.54267  0.30950  Biso   1.000  C
  C113     1.0000 0.40898  0.92390  0.82540  Biso   1.000  C
  C114     1.0000 0.84102  0.17390  0.07540  Biso   1.000  C
  C115     1.0000 0.65898  0.32610  0.07540  Biso   1.000  C
  C116     1.0000 0.09102  0.07610  0.32540  Biso   1.000  C
  C117     1.0000 0.40898  0.42390  0.32540  Biso   1.000  C
  C118     1.0000 0.84102  0.67390  0.57540  Biso   1.000  C
  C119     1.0000 0.65898  0.82610  0.57540  Biso   1.000  C
  C120     1.0000 0.09102  0.57610  0.82540  Biso   1.000  C
  C121     1.0000 0.90898  0.92390  0.32540  Biso   1.000  C
  C122     1.0000 0.34102  0.17390  0.57540  Biso   1.000  C
  C123     1.0000 0.15898  0.32610  0.57540  Biso   1.000  C
  C124     1.0000 0.59102  0.07610  0.82540  Biso   1.000  C
  C125     1.0000 0.90898  0.42390  0.82540  Biso   1.000  C
  C126     1.0000 0.34102  0.67390  0.07540  Biso   1.000  C
  C127     1.0000 0.15898  0.82610  0.07540  Biso   1.000  C
  C128     1.0000 0.59102  0.57610  0.32540  Biso   1.000  C
  C129     1.0000 0.45083  0.91371  0.93510  Biso   1.000  C
  C130     1.0000 0.79917  0.16371  0.18510  Biso   1.000  C
  C131     1.0000 0.70083  0.33629  0.18510  Biso   1.000  C
  C132     1.0000 0.04917  0.08629  0.43510  Biso   1.000  C
  C133     1.0000 0.45083  0.41371  0.43510  Biso   1.000  C
  C134     1.0000 0.79917  0.66371  0.68510  Biso   1.000  C
  C135     1.0000 0.70083  0.83629  0.68510  Biso   1.000  C
  C136     1.0000 0.04917  0.58629  0.93510  Biso   1.000  C
  C137     1.0000 0.95083  0.91371  0.43510  Biso   1.000  C
  C138     1.0000 0.29917  0.16371  0.68510  Biso   1.000  C
  C139     1.0000 0.20083  0.33629  0.68510  Biso   1.000  C
  C140     1.0000 0.54917  0.08629  0.93510  Biso   1.000  C
  C141     1.0000 0.95083  0.41371  0.93510  Biso   1.000  C
  C142     1.0000 0.29917  0.66371  0.18510  Biso   1.000  C
  C143     1.0000 0.20083  0.83629  0.18510  Biso   1.000  C
  C144     1.0000 0.54917  0.58629  0.43510  Biso   1.000  C
  C145     1.0000 0.47781  0.93652  0.02650  Biso   1.000  C
  C146     1.0000 0.77219  0.18652  0.27650  Biso   1.000  C
  C147     1.0000 0.72781  0.31348  0.27650  Biso   1.000  C
  C148     1.0000 0.02219  0.06348  0.52650  Biso   1.000  C
  C149     1.0000 0.47781  0.43652  0.52650  Biso   1.000  C
  C150     1.0000 0.77219  0.68652  0.77650  Biso   1.000  C
  C151     1.0000 0.72781  0.81348  0.77650  Biso   1.000  C
  C152     1.0000 0.02219  0.56348  0.02650  Biso   1.000  C
  C153     1.0000 0.97781  0.93652  0.52650  Biso   1.000  C
  C154     1.0000 0.27219  0.18652  0.77650  Biso   1.000  C
  C155     1.0000 0.22781  0.31348  0.77650  Biso   1.000  C
  C156     1.0000 0.52219  0.06348  0.02650  Biso   1.000  C
  C157     1.0000 0.97781  0.43652  0.02650  Biso   1.000  C
  C158     1.0000 0.27219  0.68652  0.27650  Biso   1.000  C
  C159     1.0000 0.22781  0.81348  0.27650  Biso   1.000  C
  C160     1.0000 0.52219  0.56348  0.52650  Biso   1.000  C
  C161     1.0000 0.42310  0.88982  0.60420  Biso   1.000  C
  C162     1.0000 0.82690  0.13982  0.85420  Biso   1.000  C
  C163     1.0000 0.67310  0.36018  0.85420  Biso   1.000  C
  C164     1.0000 0.07690  0.11018  0.10420  Biso   1.000  C
  C165     1.0000 0.42310  0.38982  0.10420  Biso   1.000  C
  C166     1.0000 0.82690  0.63982  0.35420  Biso   1.000  C
  C167     1.0000 0.67310  0.86018  0.35420  Biso   1.000  C
  C168     1.0000 0.07690  0.61018  0.60420  Biso   1.000  C
  C169     1.0000 0.92310  0.88982  0.10420  Biso   1.000  C
  C170     1.0000 0.32690  0.13982  0.35420  Biso   1.000  C
  C171     1.0000 0.17310  0.36018  0.35420  Biso   1.000  C
  C172     1.0000 0.57690  0.11018  0.60420  Biso   1.000  C
  C173     1.0000 0.92310  0.38982  0.60420  Biso   1.000  C
  C174     1.0000 0.32690  0.63982  0.85420  Biso   1.000  C
  C175     1.0000 0.17310  0.86018  0.85420  Biso   1.000  C
  C176     1.0000 0.57690  0.61018  0.10420  Biso   1.000  C
  C177     1.0000 0.37730  0.89942  0.72800  Biso   1.000  C
  C178     1.0000 0.87270  0.14942  0.97800  Biso   1.000  C
  C179     1.0000 0.62730  0.35058  0.97800  Biso   1.000  C
  C180     1.0000 0.12270  0.10058  0.22800  Biso   1.000  C
  C181     1.0000 0.37730  0.39942  0.22800  Biso   1.000  C
  C182     1.0000 0.87270  0.64942  0.47800  Biso   1.000  C
  C183     1.0000 0.62730  0.85058  0.47800  Biso   1.000  C
  C184     1.0000 0.12270  0.60058  0.72800  Biso   1.000  C
  C185     1.0000 0.87730  0.89942  0.22800  Biso   1.000  C
  C186     1.0000 0.37270  0.14942  0.47800  Biso   1.000  C
  C187     1.0000 0.12730  0.35058  0.47800  Biso   1.000  C
  C188     1.0000 0.62270  0.10058  0.72800  Biso   1.000  C
  C189     1.0000 0.87730  0.39942  0.72800  Biso   1.000  C
  C190     1.0000 0.37270  0.64942  0.97800  Biso   1.000  C
  C191     1.0000 0.12730  0.85058  0.97800  Biso   1.000  C
  C192     1.0000 0.62270  0.60058  0.22800  Biso   1.000  C
  C193     1.0000 0.33697  0.03234  0.16000  Biso   1.000  C
  C194     1.0000 0.91303  0.28234  0.41000  Biso   1.000  C
  C195     1.0000 0.58697  0.21766  0.41000  Biso   1.000  C
  C196     1.0000 0.16303  0.96766  0.66000  Biso   1.000  C
  C197     1.0000 0.33697  0.53234  0.66000  Biso   1.000  C
  C198     1.0000 0.91303  0.78234  0.91000  Biso   1.000  C
  C199     1.0000 0.58697  0.71766  0.91000  Biso   1.000  C
  C200     1.0000 0.16303  0.46766  0.16000  Biso   1.000  C
  C201     1.0000 0.83697  0.03234  0.66000  Biso   1.000  C
  C202     1.0000 0.41303  0.28234  0.91000  Biso   1.000  C
  C203     1.0000 0.08697  0.21766  0.91000  Biso   1.000  C
  C204     1.0000 0.66303  0.96766  0.16000  Biso   1.000  C
  C205     1.0000 0.83697  0.53234  0.16000  Biso   1.000  C
  C206     1.0000 0.41303  0.78234  0.41000  Biso   1.000  C
  C207     1.0000 0.08697  0.71766  0.41000  Biso   1.000  C
  C208     1.0000 0.66303  0.46766  0.66000  Biso   1.000  C
  C209     1.0000 0.26607  0.03910  0.16820  Biso   1.000  C
  C210     1.0000 0.98393  0.28910  0.41820  Biso   1.000  C
  C211     1.0000 0.51607  0.21090  0.41820  Biso   1.000  C
  C212     1.0000 0.23393  0.96090  0.66820  Biso   1.000  C
  C213     1.0000 0.26607  0.53910  0.66820  Biso   1.000  C
  C214     1.0000 0.98393  0.78910  0.91820  Biso   1.000  C
  C215     1.0000 0.51607  0.71090  0.91820  Biso   1.000  C
  C216     1.0000 0.23393  0.46090  0.16820  Biso   1.000  C
  C217     1.0000 0.76607  0.03910  0.66820  Biso   1.000  C
  C218     1.0000 0.48393  0.28910  0.91820  Biso   1.000  C
  C219     1.0000 0.01607  0.21090  0.91820  Biso   1.000  C
  C220     1.0000 0.73393  0.96090  0.16820  Biso   1.000  C
  C221     1.0000 0.76607  0.53910  0.16820  Biso   1.000  C
  C222     1.0000 0.48393  0.78910  0.41820  Biso   1.000  C
  C223     1.0000 0.01607  0.71090  0.41820  Biso   1.000  C
  C224     1.0000 0.73393  0.46090  0.66820  Biso   1.000  C
  C225     1.0000 0.19518  0.88498  0.47800  Biso   1.000  C
  C226     1.0000 0.05482  0.13498  0.72800  Biso   1.000  C
  C227     1.0000 0.44518  0.36502  0.72800  Biso   1.000  C
  C228     1.0000 0.30482  0.11502  0.97800  Biso   1.000  C
  C229     1.0000 0.19518  0.38498  0.97800  Biso   1.000  C
  C230     1.0000 0.05482  0.63498  0.22800  Biso   1.000  C
  C231     1.0000 0.44518  0.86502  0.22800  Biso   1.000  C
  C232     1.0000 0.30482  0.61502  0.47800  Biso   1.000  C
  C233     1.0000 0.69518  0.88498  0.97800  Biso   1.000  C
  C234     1.0000 0.55482  0.13498  0.22800  Biso   1.000  C
  C235     1.0000 0.94518  0.36502  0.22800  Biso   1.000  C
  C236     1.0000 0.80482  0.11502  0.47800  Biso   1.000  C
  C237     1.0000 0.69518  0.38498  0.47800  Biso   1.000  C
  C238     1.0000 0.55482  0.63498  0.72800  Biso   1.000  C
  C239     1.0000 0.94518  0.86502  0.72800  Biso   1.000  C
  C240     1.0000 0.80482  0.61502  0.97800  Biso   1.000  C
  C241     1.0000 0.12380  0.88972  0.46260  Biso   1.000  C
  C242     1.0000 0.12620  0.13972  0.71260  Biso   1.000  C
  C243     1.0000 0.37380  0.36028  0.71260  Biso   1.000  C
  C244     1.0000 0.37620  0.11028  0.96260  Biso   1.000  C
  C245     1.0000 0.12380  0.38972  0.96260  Biso   1.000  C
  C246     1.0000 0.12620  0.63972  0.21260  Biso   1.000  C
  C247     1.0000 0.37380  0.86028  0.21260  Biso   1.000  C
  C248     1.0000 0.37620  0.61028  0.46260  Biso   1.000  C
  C249     1.0000 0.62380  0.88972  0.96260  Biso   1.000  C
  C250     1.0000 0.62620  0.13972  0.21260  Biso   1.000  C
  C251     1.0000 0.87380  0.36028  0.21260  Biso   1.000  C
  C252     1.0000 0.87620  0.11028  0.46260  Biso   1.000  C
  C253     1.0000 0.62380  0.38972  0.46260  Biso   1.000  C
  C254     1.0000 0.62620  0.63972  0.71260  Biso   1.000  C
  C255     1.0000 0.87380  0.86028  0.71260  Biso   1.000  C
  C256     1.0000 0.87620  0.61028  0.96260  Biso   1.000  C
  H1       1.0000 0.55780  0.96760  0.41600  Biso   1.000  H
  H2       1.0000 0.69220  0.21760  0.66600  Biso   1.000  H
  H3       1.0000 0.80780  0.28240  0.66600  Biso   1.000  H
  H4       1.0000 0.94220  0.03240  0.91600  Biso   1.000  H
  H5       1.0000 0.55780  0.46760  0.91600  Biso   1.000  H
  H6       1.0000 0.69220  0.71760  0.16600  Biso   1.000  H
  H7       1.0000 0.80780  0.78240  0.16600  Biso   1.000  H
  H8       1.0000 0.94220  0.53240  0.41600  Biso   1.000  H
  H9       1.0000 0.05780  0.96760  0.91600  Biso   1.000  H
  H10      1.0000 0.19220  0.21760  0.16600  Biso   1.000  H
  H11      1.0000 0.30780  0.28240  0.16600  Biso   1.000  H
  H12      1.0000 0.44220  0.03240  0.41600  Biso   1.000  H
  H13      1.0000 0.05780  0.46760  0.41600  Biso   1.000  H
  H14      1.0000 0.19220  0.71760  0.66600  Biso   1.000  H
  H15      1.0000 0.30780  0.78240  0.66600  Biso   1.000  H
  H16      1.0000 0.44220  0.53240  0.91600  Biso   1.000  H
  H17      1.0000 0.53470  0.92530  0.57260  Biso   1.000  H
  H18      1.0000 0.71530  0.17530  0.82260  Biso   1.000  H
  H19      1.0000 0.78470  0.32470  0.82260  Biso   1.000  H
  H20      1.0000 0.96530  0.07470  0.07260  Biso   1.000  H
  H21      1.0000 0.53470  0.42530  0.07260  Biso   1.000  H
  H22      1.0000 0.71530  0.67530  0.32260  Biso   1.000  H
  H23      1.0000 0.78470  0.82470  0.32260  Biso   1.000  H
  H24      1.0000 0.96530  0.57470  0.57260  Biso   1.000  H
  H25      1.0000 0.03470  0.92530  0.07260  Biso   1.000  H
  H26      1.0000 0.21530  0.17530  0.32260  Biso   1.000  H
  H27      1.0000 0.28470  0.32470  0.32260  Biso   1.000  H
  H28      1.0000 0.46530  0.07470  0.57260  Biso   1.000  H
  H29      1.0000 0.03470  0.42530  0.57260  Biso   1.000  H
  H30      1.0000 0.21530  0.67530  0.82260  Biso   1.000  H
  H31      1.0000 0.28470  0.82470  0.82260  Biso   1.000  H
  H32      1.0000 0.46530  0.57470  0.07260  Biso   1.000  H
  H33      1.0000 0.34710  0.92240  0.41810  Biso   1.000  H
  H34      1.0000 0.90290  0.17240  0.66810  Biso   1.000  H
  H35      1.0000 0.59710  0.32760  0.66810  Biso   1.000  H
  H36      1.0000 0.15290  0.07760  0.91810  Biso   1.000  H
  H37      1.0000 0.34710  0.42240  0.91810  Biso   1.000  H
  H38      1.0000 0.90290  0.67240  0.16810  Biso   1.000  H
  H39      1.0000 0.59710  0.82760  0.16810  Biso   1.000  H
  H40      1.0000 0.15290  0.57760  0.41810  Biso   1.000  H
  H41      1.0000 0.84710  0.92240  0.91810  Biso   1.000  H
  H42      1.0000 0.40290  0.17240  0.16810  Biso   1.000  H
  H43      1.0000 0.09710  0.32760  0.16810  Biso   1.000  H
  H44      1.0000 0.65290  0.07760  0.41810  Biso   1.000  H
  H45      1.0000 0.84710  0.42240  0.41810  Biso   1.000  H
  H46      1.0000 0.40290  0.67240  0.66810  Biso   1.000  H
  H47      1.0000 0.09710  0.82760  0.66810  Biso   1.000  H
  H48      1.0000 0.65290  0.57760  0.91810  Biso   1.000  H
  H49      1.0000 0.37570  0.96340  0.25850  Biso   1.000  H
  H50      1.0000 0.87430  0.21340  0.50850  Biso   1.000  H
  H51      1.0000 0.62570  0.28660  0.50850  Biso   1.000  H
  H52      1.0000 0.12430  0.03660  0.75850  Biso   1.000  H
  H53      1.0000 0.37570  0.46340  0.75850  Biso   1.000  H
  H54      1.0000 0.87430  0.71340  0.00850  Biso   1.000  H
  H55      1.0000 0.62570  0.78660  0.00850  Biso   1.000  H
  H56      1.0000 0.12430  0.53660  0.25850  Biso   1.000  H
  H57      1.0000 0.87570  0.96340  0.75850  Biso   1.000  H
  H58      1.0000 0.37430  0.21340  0.00850  Biso   1.000  H
  H59      1.0000 0.12570  0.28660  0.00850  Biso   1.000  H
  H60      1.0000 0.62430  0.03660  0.25850  Biso   1.000  H
  H61      1.0000 0.87570  0.46340  0.25850  Biso   1.000  H
  H62      1.0000 0.37430  0.71340  0.50850  Biso   1.000  H
  H63      1.0000 0.12570  0.78660  0.50850  Biso   1.000  H
  H64      1.0000 0.62430  0.53660  0.75850  Biso   1.000  H
  H65      1.0000 0.41990  0.00150  0.89410  Biso   1.000  H
  H66      1.0000 0.83010  0.25150  0.14410  Biso   1.000  H
  H67      1.0000 0.66990  0.24850  0.14410  Biso   1.000  H
  H68      1.0000 0.08010  0.99850  0.39410  Biso   1.000  H
  H69      1.0000 0.41990  0.50150  0.39410  Biso   1.000  H
  H70      1.0000 0.83010  0.75150  0.64410  Biso   1.000  H
  H71      1.0000 0.66990  0.74850  0.64410  Biso   1.000  H
  H72      1.0000 0.08010  0.49850  0.89410  Biso   1.000  H
  H73      1.0000 0.91990  0.00150  0.39410  Biso   1.000  H
  H74      1.0000 0.33010  0.25150  0.64410  Biso   1.000  H
  H75      1.0000 0.16990  0.24850  0.64410  Biso   1.000  H
  H76      1.0000 0.58010  0.99850  0.89410  Biso   1.000  H
  H77      1.0000 0.91990  0.50150  0.89410  Biso   1.000  H
  H78      1.0000 0.33010  0.75150  0.14410  Biso   1.000  H
  H79      1.0000 0.16990  0.74850  0.14410  Biso   1.000  H
  H80      1.0000 0.58010  0.49850  0.39410  Biso   1.000  H
  H81      1.0000 0.37300  0.96540  0.73290  Biso   1.000  H
  H82      1.0000 0.87700  0.21540  0.98290  Biso   1.000  H
  H83      1.0000 0.62300  0.28460  0.98290  Biso   1.000  H
  H84      1.0000 0.12700  0.03460  0.23290  Biso   1.000  H
  H85      1.0000 0.37300  0.46540  0.23290  Biso   1.000  H
  H86      1.0000 0.87700  0.71540  0.48290  Biso   1.000  H
  H87      1.0000 0.62300  0.78460  0.48290  Biso   1.000  H
  H88      1.0000 0.12700  0.53460  0.73290  Biso   1.000  H
  H89      1.0000 0.87300  0.96540  0.23290  Biso   1.000  H
  H90      1.0000 0.37700  0.21540  0.48290  Biso   1.000  H
  H91      1.0000 0.12300  0.28460  0.48290  Biso   1.000  H
  H92      1.0000 0.62700  0.03460  0.73290  Biso   1.000  H
  H93      1.0000 0.87300  0.46540  0.73290  Biso   1.000  H
  H94      1.0000 0.37700  0.71540  0.98290  Biso   1.000  H
  H95      1.0000 0.12300  0.78460  0.98290  Biso   1.000  H
  H96      1.0000 0.62700  0.53460  0.23290  Biso   1.000  H
  H97      1.0000 0.46050  0.89120  0.94730  Biso   1.000  H
  H98      1.0000 0.78950  0.14120  0.19730  Biso   1.000  H
  H99      1.0000 0.71050  0.35880  0.19730  Biso   1.000  H
  H100     1.0000 0.03950  0.10880  0.44730  Biso   1.000  H
  H101     1.0000 0.46050  0.39120  0.44730  Biso   1.000  H
  H102     1.0000 0.78950  0.64120  0.69730  Biso   1.000  H
  H103     1.0000 0.71050  0.85880  0.69730  Biso   1.000  H
  H104     1.0000 0.03950  0.60880  0.94730  Biso   1.000  H
  H105     1.0000 0.96050  0.89120  0.44730  Biso   1.000  H
  H106     1.0000 0.28950  0.14120  0.69730  Biso   1.000  H
  H107     1.0000 0.21050  0.35880  0.69730  Biso   1.000  H
  H108     1.0000 0.53950  0.10880  0.94730  Biso   1.000  H
  H109     1.0000 0.96050  0.39120  0.94730  Biso   1.000  H
  H110     1.0000 0.28950  0.64120  0.19730  Biso   1.000  H
  H111     1.0000 0.21050  0.85880  0.19730  Biso   1.000  H
  H112     1.0000 0.53950  0.60880  0.44730  Biso   1.000  H
  H113     1.0000 0.50630  0.92920  0.10060  Biso   1.000  H
  H114     1.0000 0.74370  0.17920  0.35060  Biso   1.000  H
  H115     1.0000 0.75630  0.32080  0.35060  Biso   1.000  H
  H116     1.0000 0.99370  0.07080  0.60060  Biso   1.000  H
  H117     1.0000 0.50630  0.42920  0.60060  Biso   1.000  H
  H118     1.0000 0.74370  0.67920  0.85060  Biso   1.000  H
  H119     1.0000 0.75630  0.82080  0.85060  Biso   1.000  H
  H120     1.0000 0.99370  0.57080  0.10060  Biso   1.000  H
  H121     1.0000 0.00630  0.92920  0.60060  Biso   1.000  H
  H122     1.0000 0.24370  0.17920  0.85060  Biso   1.000  H
  H123     1.0000 0.25630  0.32080  0.85060  Biso   1.000  H
  H124     1.0000 0.49370  0.07080  0.10060  Biso   1.000  H
  H125     1.0000 0.00630  0.42920  0.10060  Biso   1.000  H
  H126     1.0000 0.24370  0.67920  0.35060  Biso   1.000  H
  H127     1.0000 0.25630  0.82080  0.35060  Biso   1.000  H
  H128     1.0000 0.49370  0.57080  0.60060  Biso   1.000  H
  H129     1.0000 0.40190  0.87330  0.54990  Biso   1.000  H
  H130     1.0000 0.84810  0.12330  0.79990  Biso   1.000  H
  H131     1.0000 0.65190  0.37670  0.79990  Biso   1.000  H
  H132     1.0000 0.09810  0.12670  0.04990  Biso   1.000  H
  H133     1.0000 0.40190  0.37330  0.04990  Biso   1.000  H
  H134     1.0000 0.84810  0.62330  0.29990  Biso   1.000  H
  H135     1.0000 0.65190  0.87670  0.29990  Biso   1.000  H
  H136     1.0000 0.09810  0.62670  0.54990  Biso   1.000  H
  H137     1.0000 0.90190  0.87330  0.04990  Biso   1.000  H
  H138     1.0000 0.34810  0.12330  0.29990  Biso   1.000  H
  H139     1.0000 0.15190  0.37670  0.29990  Biso   1.000  H
  H140     1.0000 0.59810  0.12670  0.54990  Biso   1.000  H
  H141     1.0000 0.90190  0.37330  0.54990  Biso   1.000  H
  H142     1.0000 0.34810  0.62330  0.79990  Biso   1.000  H
  H143     1.0000 0.15190  0.87670  0.79990  Biso   1.000  H
  H144     1.0000 0.59810  0.62670  0.04990  Biso   1.000  H
  H145     1.0000 0.46360  0.88160  0.64240  Biso   1.000  H
  H146     1.0000 0.78640  0.13160  0.89240  Biso   1.000  H
  H147     1.0000 0.71360  0.36840  0.89240  Biso   1.000  H
  H148     1.0000 0.03640  0.11840  0.14240  Biso   1.000  H
  H149     1.0000 0.46360  0.38160  0.14240  Biso   1.000  H
  H150     1.0000 0.78640  0.63160  0.39240  Biso   1.000  H
  H151     1.0000 0.71360  0.86840  0.39240  Biso   1.000  H
  H152     1.0000 0.03640  0.61840  0.64240  Biso   1.000  H
  H153     1.0000 0.96360  0.88160  0.14240  Biso   1.000  H
  H154     1.0000 0.28640  0.13160  0.39240  Biso   1.000  H
  H155     1.0000 0.21360  0.36840  0.39240  Biso   1.000  H
  H156     1.0000 0.53640  0.11840  0.64240  Biso   1.000  H
  H157     1.0000 0.96360  0.38160  0.64240  Biso   1.000  H
  H158     1.0000 0.28640  0.63160  0.89240  Biso   1.000  H
  H159     1.0000 0.21360  0.86840  0.89240  Biso   1.000  H
  H160     1.0000 0.53640  0.61840  0.14240  Biso   1.000  H
  H161     1.0000 0.36660  0.88050  0.78140  Biso   1.000  H
  H162     1.0000 0.88340  0.13050  0.03140  Biso   1.000  H
  H163     1.0000 0.61660  0.36950  0.03140  Biso   1.000  H
  H164     1.0000 0.13340  0.11950  0.28140  Biso   1.000  H
  H165     1.0000 0.36660  0.38050  0.28140  Biso   1.000  H
  H166     1.0000 0.88340  0.63050  0.53140  Biso   1.000  H
  H167     1.0000 0.61660  0.86950  0.53140  Biso   1.000  H
  H168     1.0000 0.13340  0.61950  0.78140  Biso   1.000  H
  H169     1.0000 0.86660  0.88050  0.28140  Biso   1.000  H
  H170     1.0000 0.38340  0.13050  0.53140  Biso   1.000  H
  H171     1.0000 0.11660  0.36950  0.53140  Biso   1.000  H
  H172     1.0000 0.63340  0.11950  0.78140  Biso   1.000  H
  H173     1.0000 0.86660  0.38050  0.78140  Biso   1.000  H
  H174     1.0000 0.38340  0.63050  0.03140  Biso   1.000  H
  H175     1.0000 0.11660  0.86950  0.03140  Biso   1.000  H
  H176     1.0000 0.63340  0.61950  0.28140  Biso   1.000  H
  H177     1.0000 0.33770  0.90860  0.68990  Biso   1.000  H
  H178     1.0000 0.91230  0.15860  0.93990  Biso   1.000  H
  H179     1.0000 0.58770  0.34140  0.93990  Biso   1.000  H
  H180     1.0000 0.16230  0.09140  0.18990  Biso   1.000  H
  H181     1.0000 0.33770  0.40860  0.18990  Biso   1.000  H
  H182     1.0000 0.91230  0.65860  0.43990  Biso   1.000  H
  H183     1.0000 0.58770  0.84140  0.43990  Biso   1.000  H
  H184     1.0000 0.16230  0.59140  0.68990  Biso   1.000  H
  H185     1.0000 0.83770  0.90860  0.18990  Biso   1.000  H
  H186     1.0000 0.41230  0.15860  0.43990  Biso   1.000  H
  H187     1.0000 0.08770  0.34140  0.43990  Biso   1.000  H
  H188     1.0000 0.66230  0.09140  0.68990  Biso   1.000  H
  H189     1.0000 0.83770  0.40860  0.68990  Biso   1.000  H
  H190     1.0000 0.41230  0.65860  0.93990  Biso   1.000  H
  H191     1.0000 0.08770  0.84140  0.93990  Biso   1.000  H
  H192     1.0000 0.66230  0.59140  0.18990  Biso   1.000  H
  H193     1.0000 0.25080  0.03470  0.26190  Biso   1.000  H
  H194     1.0000 0.99920  0.28470  0.51190  Biso   1.000  H
  H195     1.0000 0.50080  0.21530  0.51190  Biso   1.000  H
  H196     1.0000 0.24920  0.96530  0.76190  Biso   1.000  H
  H197     1.0000 0.25080  0.53470  0.76190  Biso   1.000  H
  H198     1.0000 0.99920  0.78470  0.01190  Biso   1.000  H
  H199     1.0000 0.50080  0.71530  0.01190  Biso   1.000  H
  H200     1.0000 0.24920  0.46530  0.26190  Biso   1.000  H
  H201     1.0000 0.75080  0.03470  0.76190  Biso   1.000  H
  H202     1.0000 0.49920  0.28470  0.01190  Biso   1.000  H
  H203     1.0000 0.00080  0.21530  0.01190  Biso   1.000  H
  H204     1.0000 0.74920  0.96530  0.26190  Biso   1.000  H
  H205     1.0000 0.75080  0.53470  0.26190  Biso   1.000  H
  H206     1.0000 0.49920  0.78470  0.51190  Biso   1.000  H
  H207     1.0000 0.00080  0.71530  0.51190  Biso   1.000  H
  H208     1.0000 0.74920  0.46530  0.76190  Biso   1.000  H
  H209     1.0000 0.24290  0.02570  0.10250  Biso   1.000  H
  H210     1.0000 0.00710  0.27570  0.35250  Biso   1.000  H
  H211     1.0000 0.49290  0.22430  0.35250  Biso   1.000  H
  H212     1.0000 0.25710  0.97430  0.60250  Biso   1.000  H
  H213     1.0000 0.24290  0.52570  0.60250  Biso   1.000  H
  H214     1.0000 0.00710  0.77570  0.85250  Biso   1.000  H
  H215     1.0000 0.49290  0.72430  0.85250  Biso   1.000  H
  H216     1.0000 0.25710  0.47430  0.10250  Biso   1.000  H
  H217     1.0000 0.74290  0.02570  0.60250  Biso   1.000  H
  H218     1.0000 0.50710  0.27570  0.85250  Biso   1.000  H
  H219     1.0000 0.99290  0.22430  0.85250  Biso   1.000  H
  H220     1.0000 0.75710  0.97430  0.10250  Biso   1.000  H
  H221     1.0000 0.74290  0.52570  0.10250  Biso   1.000  H
  H222     1.0000 0.50710  0.77570  0.35250  Biso   1.000  H
  H223     1.0000 0.99290  0.72430  0.35250  Biso   1.000  H
  H224     1.0000 0.75710  0.47430  0.60250  Biso   1.000  H
  H225     1.0000 0.25830  0.06140  0.14600  Biso   1.000  H
  H226     1.0000 0.99170  0.31140  0.39600  Biso   1.000  H
  H227     1.0000 0.50830  0.18860  0.39600  Biso   1.000  H
  H228     1.0000 0.24170  0.93860  0.64600  Biso   1.000  H
  H229     1.0000 0.25830  0.56140  0.64600  Biso   1.000  H
  H230     1.0000 0.99170  0.81140  0.89600  Biso   1.000  H
  H231     1.0000 0.50830  0.68860  0.89600  Biso   1.000  H
  H232     1.0000 0.24170  0.43860  0.14600  Biso   1.000  H
  H233     1.0000 0.75830  0.06140  0.64600  Biso   1.000  H
  H234     1.0000 0.49170  0.31140  0.89600  Biso   1.000  H
  H235     1.0000 0.00830  0.18860  0.89600  Biso   1.000  H
  H236     1.0000 0.74170  0.93860  0.14600  Biso   1.000  H
  H237     1.0000 0.75830  0.56140  0.14600  Biso   1.000  H
  H238     1.0000 0.49170  0.81140  0.39600  Biso   1.000  H
  H239     1.0000 0.00830  0.68860  0.39600  Biso   1.000  H
  H240     1.0000 0.74170  0.43860  0.64600  Biso   1.000  H
  H241     1.0000 0.11500  0.91230  0.45160  Biso   1.000  H
  H242     1.0000 0.13500  0.16230  0.70160  Biso   1.000  H
  H243     1.0000 0.36500  0.33770  0.70160  Biso   1.000  H
  H244     1.0000 0.38500  0.08770  0.95160  Biso   1.000  H
  H245     1.0000 0.11500  0.41230  0.95160  Biso   1.000  H
  H246     1.0000 0.13500  0.66230  0.20160  Biso   1.000  H
  H247     1.0000 0.36500  0.83770  0.20160  Biso   1.000  H
  H248     1.0000 0.38500  0.58770  0.45160  Biso   1.000  H
  H249     1.0000 0.61500  0.91230  0.95160  Biso   1.000  H
  H250     1.0000 0.63500  0.16230  0.20160  Biso   1.000  H
  H251     1.0000 0.86500  0.33770  0.20160  Biso   1.000  H
  H252     1.0000 0.88500  0.08770  0.45160  Biso   1.000  H
  H253     1.0000 0.61500  0.41230  0.45160  Biso   1.000  H
  H254     1.0000 0.63500  0.66230  0.70160  Biso   1.000  H
  H255     1.0000 0.86500  0.83770  0.70160  Biso   1.000  H
  H256     1.0000 0.88500  0.58770  0.95160  Biso   1.000  H
  H257     1.0000 0.10140  0.88180  0.54470  Biso   1.000  H
  H258     1.0000 0.14860  0.13180  0.79470  Biso   1.000  H
  H259     1.0000 0.35140  0.36820  0.79470  Biso   1.000  H
  H260     1.0000 0.39860  0.11820  0.04470  Biso   1.000  H
  H261     1.0000 0.10140  0.38180  0.04470  Biso   1.000  H
  H262     1.0000 0.14860  0.63180  0.29470  Biso   1.000  H
  H263     1.0000 0.35140  0.86820  0.29470  Biso   1.000  H
  H264     1.0000 0.39860  0.61820  0.54470  Biso   1.000  H
  H265     1.0000 0.60140  0.88180  0.04470  Biso   1.000  H
  H266     1.0000 0.64860  0.13180  0.29470  Biso   1.000  H
  H267     1.0000 0.85140  0.36820  0.29470  Biso   1.000  H
  H268     1.0000 0.89860  0.11820  0.54470  Biso   1.000  H
  H269     1.0000 0.60140  0.38180  0.54470  Biso   1.000  H
  H270     1.0000 0.64860  0.63180  0.79470  Biso   1.000  H
  H271     1.0000 0.85140  0.86820  0.79470  Biso   1.000  H
  H272     1.0000 0.89860  0.61820  0.04470  Biso   1.000  H
  H273     1.0000 0.10850  0.87830  0.38110  Biso   1.000  H
  H274     1.0000 0.14150  0.12830  0.63110  Biso   1.000  H
  H275     1.0000 0.35850  0.37170  0.63110  Biso   1.000  H
  H276     1.0000 0.39150  0.12170  0.88110  Biso   1.000  H
  H277     1.0000 0.10850  0.37830  0.88110  Biso   1.000  H
  H278     1.0000 0.14150  0.62830  0.13110  Biso   1.000  H
  H279     1.0000 0.35850  0.87170  0.13110  Biso   1.000  H
  H280     1.0000 0.39150  0.62170  0.38110  Biso   1.000  H
  H281     1.0000 0.60850  0.87830  0.88110  Biso   1.000  H
  H282     1.0000 0.64150  0.12830  0.13110  Biso   1.000  H
  H283     1.0000 0.85850  0.37170  0.13110  Biso   1.000  H
  H284     1.0000 0.89150  0.12170  0.38110  Biso   1.000  H
  H285     1.0000 0.60850  0.37830  0.38110  Biso   1.000  H
  H286     1.0000 0.64150  0.62830  0.63110  Biso   1.000  H
  H287     1.0000 0.85850  0.87170  0.63110  Biso   1.000  H
  H288     1.0000 0.89150  0.62170  0.88110  Biso   1.000  H
