data_image0
_cell_length_a       30.926
_cell_length_b       30.926
_cell_length_c       45.103
_cell_angle_alpha    90
_cell_angle_beta     90
_cell_angle_gamma    90

_symmetry_space_group_name_H-M    "P 1"
_symmetry_int_tables_number       1

loop_
  _symmetry_equiv_pos_as_xyz
  'x, y, z'

loop_
  _atom_site_label
  _atom_site_occupancy
  _atom_site_fract_x
  _atom_site_fract_y
  _atom_site_fract_z
  _atom_site_thermal_displace_type
  _atom_site_B_iso_or_equiv
  _atom_site_type_symbol
  Cu1      1.0000 0.63784  0.30107  0.83108  Biso   1.000  Cu
  Cu2      1.0000 0.69893  0.63784  0.83108  Biso   1.000  Cu
  Cu3      1.0000 0.36216  0.69893  0.83108  Biso   1.000  Cu
  Cu4      1.0000 0.30107  0.36216  0.83108  Biso   1.000  Cu
  Cu5      1.0000 0.13784  0.80107  0.33108  Biso   1.000  Cu
  Cu6      1.0000 0.19893  0.13784  0.33108  Biso   1.000  Cu
  Cu7      1.0000 0.86216  0.19893  0.33108  Biso   1.000  Cu
  Cu8      1.0000 0.80107  0.86216  0.33108  Biso   1.000  Cu
  Cu9      1.0000 0.36216  0.69893  0.16892  Biso   1.000  Cu
  Cu10     1.0000 0.30107  0.36216  0.16892  Biso   1.000  Cu
  Cu11     1.0000 0.63784  0.30107  0.16892  Biso   1.000  Cu
  Cu12     1.0000 0.69893  0.63784  0.16892  Biso   1.000  Cu
  Cu13     1.0000 0.86216  0.19893  0.66892  Biso   1.000  Cu
  Cu14     1.0000 0.80107  0.86216  0.66892  Biso   1.000  Cu
  Cu15     1.0000 0.13784  0.80107  0.66892  Biso   1.000  Cu
  Cu16     1.0000 0.19893  0.13784  0.66892  Biso   1.000  Cu
  Cu17     1.0000 0.60196  0.35228  0.87196  Biso   1.000  Cu
  Cu18     1.0000 0.64772  0.60196  0.87196  Biso   1.000  Cu
  Cu19     1.0000 0.39804  0.64772  0.87196  Biso   1.000  Cu
  Cu20     1.0000 0.35228  0.39804  0.87196  Biso   1.000  Cu
  Cu21     1.0000 0.10196  0.85228  0.37196  Biso   1.000  Cu
  Cu22     1.0000 0.14772  0.10196  0.37196  Biso   1.000  Cu
  Cu23     1.0000 0.89805  0.14772  0.37196  Biso   1.000  Cu
  Cu24     1.0000 0.85228  0.89805  0.37196  Biso   1.000  Cu
  Cu25     1.0000 0.39804  0.64772  0.12804  Biso   1.000  Cu
  Cu26     1.0000 0.35228  0.39804  0.12804  Biso   1.000  Cu
  Cu27     1.0000 0.60196  0.35228  0.12804  Biso   1.000  Cu
  Cu28     1.0000 0.64772  0.60196  0.12804  Biso   1.000  Cu
  Cu29     1.0000 0.89805  0.14772  0.62804  Biso   1.000  Cu
  Cu30     1.0000 0.85228  0.89805  0.62804  Biso   1.000  Cu
  Cu31     1.0000 0.10196  0.85228  0.62804  Biso   1.000  Cu
  Cu32     1.0000 0.14772  0.10196  0.62804  Biso   1.000  Cu
  Cu33     1.0000 0.75058  0.04306  0.50000  Biso   1.000  Cu
  Cu34     1.0000 0.95694  0.75058  0.50000  Biso   1.000  Cu
  Cu35     1.0000 0.24942  0.95694  0.50000  Biso   1.000  Cu
  Cu36     1.0000 0.04306  0.24942  0.50000  Biso   1.000  Cu
  Cu37     1.0000 0.25058  0.54306  0.00000  Biso   1.000  Cu
  Cu38     1.0000 0.45694  0.25058  0.00000  Biso   1.000  Cu
  Cu39     1.0000 0.74942  0.45694  0.00000  Biso   1.000  Cu
  Cu40     1.0000 0.54306  0.74942  0.00000  Biso   1.000  Cu
  Cu41     1.0000 0.66541  0.05754  0.50000  Biso   1.000  Cu
  Cu42     1.0000 0.94246  0.66541  0.50000  Biso   1.000  Cu
  Cu43     1.0000 0.33459  0.94246  0.50000  Biso   1.000  Cu
  Cu44     1.0000 0.05754  0.33459  0.50000  Biso   1.000  Cu
  Cu45     1.0000 0.16541  0.55754  0.00000  Biso   1.000  Cu
  Cu46     1.0000 0.44246  0.16541  0.00000  Biso   1.000  Cu
  Cu47     1.0000 0.83459  0.44246  0.00000  Biso   1.000  Cu
  Cu48     1.0000 0.55754  0.83459  0.00000  Biso   1.000  Cu
  O1       1.0000 0.58044  0.30183  0.81251  Biso   1.000  O
  O2       1.0000 0.69817  0.58044  0.81251  Biso   1.000  O
  O3       1.0000 0.41956  0.69817  0.81251  Biso   1.000  O
  O4       1.0000 0.30183  0.41956  0.81251  Biso   1.000  O
  O5       1.0000 0.08044  0.80183  0.31251  Biso   1.000  O
  O6       1.0000 0.19817  0.08044  0.31251  Biso   1.000  O
  O7       1.0000 0.91956  0.19817  0.31251  Biso   1.000  O
  O8       1.0000 0.80183  0.91956  0.31251  Biso   1.000  O
  O9       1.0000 0.41956  0.69817  0.18749  Biso   1.000  O
  O10      1.0000 0.30183  0.41956  0.18749  Biso   1.000  O
  O11      1.0000 0.58044  0.30183  0.18749  Biso   1.000  O
  O12      1.0000 0.69817  0.58044  0.18749  Biso   1.000  O
  O13      1.0000 0.91956  0.19817  0.68749  Biso   1.000  O
  O14      1.0000 0.80183  0.91956  0.68749  Biso   1.000  O
  O15      1.0000 0.08044  0.80183  0.68749  Biso   1.000  O
  O16      1.0000 0.19817  0.08044  0.68749  Biso   1.000  O
  O17      1.0000 0.55298  0.34936  0.84463  Biso   1.000  O
  O18      1.0000 0.65064  0.55298  0.84463  Biso   1.000  O
  O19      1.0000 0.44702  0.65064  0.84463  Biso   1.000  O
  O20      1.0000 0.34936  0.44702  0.84463  Biso   1.000  O
  O21      1.0000 0.05298  0.84936  0.34463  Biso   1.000  O
  O22      1.0000 0.15064  0.05298  0.34463  Biso   1.000  O
  O23      1.0000 0.94702  0.15064  0.34463  Biso   1.000  O
  O24      1.0000 0.84936  0.94702  0.34463  Biso   1.000  O
  O25      1.0000 0.44702  0.65064  0.15537  Biso   1.000  O
  O26      1.0000 0.34936  0.44702  0.15537  Biso   1.000  O
  O27      1.0000 0.55298  0.34936  0.15537  Biso   1.000  O
  O28      1.0000 0.65064  0.55298  0.15537  Biso   1.000  O
  O29      1.0000 0.94702  0.15064  0.65537  Biso   1.000  O
  O30      1.0000 0.84936  0.94702  0.65537  Biso   1.000  O
  O31      1.0000 0.05298  0.84936  0.65537  Biso   1.000  O
  O32      1.0000 0.15064  0.05298  0.65537  Biso   1.000  O
  O33      1.0000 0.39857  0.37287  0.84802  Biso   1.000  O
  O34      1.0000 0.62713  0.39857  0.84802  Biso   1.000  O
  O35      1.0000 0.60143  0.62713  0.84802  Biso   1.000  O
  O36      1.0000 0.37287  0.60143  0.84802  Biso   1.000  O
  O37      1.0000 0.89857  0.87287  0.34802  Biso   1.000  O
  O38      1.0000 0.12713  0.89857  0.34802  Biso   1.000  O
  O39      1.0000 0.10143  0.12713  0.34802  Biso   1.000  O
  O40      1.0000 0.87287  0.10143  0.34802  Biso   1.000  O
  O41      1.0000 0.60143  0.62713  0.15198  Biso   1.000  O
  O42      1.0000 0.37287  0.60143  0.15198  Biso   1.000  O
  O43      1.0000 0.39857  0.37287  0.15198  Biso   1.000  O
  O44      1.0000 0.62713  0.39857  0.15198  Biso   1.000  O
  O45      1.0000 0.10143  0.12713  0.65198  Biso   1.000  O
  O46      1.0000 0.87287  0.10143  0.65198  Biso   1.000  O
  O47      1.0000 0.89857  0.87287  0.65198  Biso   1.000  O
  O48      1.0000 0.12713  0.89857  0.65198  Biso   1.000  O
  O49      1.0000 0.35572  0.34832  0.81152  Biso   1.000  O
  O50      1.0000 0.65168  0.35572  0.81152  Biso   1.000  O
  O51      1.0000 0.64428  0.65168  0.81152  Biso   1.000  O
  O52      1.0000 0.34832  0.64428  0.81152  Biso   1.000  O
  O53      1.0000 0.85572  0.84832  0.31152  Biso   1.000  O
  O54      1.0000 0.15168  0.85572  0.31152  Biso   1.000  O
  O55      1.0000 0.14428  0.15168  0.31152  Biso   1.000  O
  O56      1.0000 0.84832  0.14428  0.31152  Biso   1.000  O
  O57      1.0000 0.64428  0.65168  0.18848  Biso   1.000  O
  O58      1.0000 0.34832  0.64428  0.18848  Biso   1.000  O
  O59      1.0000 0.35572  0.34832  0.18848  Biso   1.000  O
  O60      1.0000 0.65168  0.35572  0.18848  Biso   1.000  O
  O61      1.0000 0.14428  0.15168  0.68848  Biso   1.000  O
  O62      1.0000 0.84832  0.14428  0.68848  Biso   1.000  O
  O63      1.0000 0.85572  0.84832  0.68848  Biso   1.000  O
  O64      1.0000 0.15168  0.85572  0.68848  Biso   1.000  O
  O65      1.0000 0.81056  0.19121  0.64381  Biso   1.000  O
  O66      1.0000 0.80879  0.81056  0.64381  Biso   1.000  O
  O67      1.0000 0.18944  0.80879  0.64381  Biso   1.000  O
  O68      1.0000 0.19121  0.18944  0.64381  Biso   1.000  O
  O69      1.0000 0.31056  0.69121  0.14381  Biso   1.000  O
  O70      1.0000 0.30879  0.31056  0.14381  Biso   1.000  O
  O71      1.0000 0.68944  0.30879  0.14381  Biso   1.000  O
  O72      1.0000 0.69121  0.68944  0.14381  Biso   1.000  O
  O73      1.0000 0.18944  0.80879  0.35619  Biso   1.000  O
  O74      1.0000 0.19121  0.18944  0.35619  Biso   1.000  O
  O75      1.0000 0.81056  0.19121  0.35619  Biso   1.000  O
  O76      1.0000 0.80879  0.81056  0.35619  Biso   1.000  O
  O77      1.0000 0.68944  0.30879  0.85619  Biso   1.000  O
  O78      1.0000 0.69121  0.68944  0.85619  Biso   1.000  O
  O79      1.0000 0.31056  0.69121  0.85619  Biso   1.000  O
  O80      1.0000 0.30879  0.31056  0.85619  Biso   1.000  O
  O81      1.0000 0.84251  0.15353  0.60754  Biso   1.000  O
  O82      1.0000 0.84647  0.84251  0.60754  Biso   1.000  O
  O83      1.0000 0.15749  0.84647  0.60754  Biso   1.000  O
  O84      1.0000 0.15353  0.15749  0.60754  Biso   1.000  O
  O85      1.0000 0.34251  0.65353  0.10754  Biso   1.000  O
  O86      1.0000 0.34647  0.34251  0.10754  Biso   1.000  O
  O87      1.0000 0.65749  0.34647  0.10754  Biso   1.000  O
  O88      1.0000 0.65353  0.65749  0.10754  Biso   1.000  O
  O89      1.0000 0.15749  0.84647  0.39246  Biso   1.000  O
  O90      1.0000 0.15353  0.15749  0.39246  Biso   1.000  O
  O91      1.0000 0.84251  0.15353  0.39246  Biso   1.000  O
  O92      1.0000 0.84647  0.84251  0.39246  Biso   1.000  O
  O93      1.0000 0.65749  0.34647  0.89246  Biso   1.000  O
  O94      1.0000 0.65353  0.65749  0.89246  Biso   1.000  O
  O95      1.0000 0.34251  0.65353  0.89246  Biso   1.000  O
  O96      1.0000 0.34647  0.34251  0.89246  Biso   1.000  O
  O97      1.0000 0.67111  0.25940  0.80086  Biso   1.000  O
  O98      1.0000 0.74060  0.67111  0.80086  Biso   1.000  O
  O99      1.0000 0.32889  0.74060  0.80086  Biso   1.000  O
  O100     1.0000 0.25940  0.32889  0.80086  Biso   1.000  O
  O101     1.0000 0.17111  0.75940  0.30086  Biso   1.000  O
  O102     1.0000 0.24060  0.17111  0.30086  Biso   1.000  O
  O103     1.0000 0.82889  0.24060  0.30086  Biso   1.000  O
  O104     1.0000 0.75940  0.82889  0.30086  Biso   1.000  O
  O105     1.0000 0.32889  0.74060  0.19914  Biso   1.000  O
  O106     1.0000 0.25940  0.32889  0.19914  Biso   1.000  O
  O107     1.0000 0.67111  0.25940  0.19914  Biso   1.000  O
  O108     1.0000 0.74060  0.67111  0.19914  Biso   1.000  O
  O109     1.0000 0.82889  0.24060  0.69914  Biso   1.000  O
  O110     1.0000 0.75940  0.82889  0.69914  Biso   1.000  O
  O111     1.0000 0.17111  0.75940  0.69914  Biso   1.000  O
  O112     1.0000 0.24060  0.17111  0.69914  Biso   1.000  O
  O113     1.0000 0.56662  0.38952  0.90514  Biso   1.000  O
  O114     1.0000 0.61048  0.56662  0.90514  Biso   1.000  O
  O115     1.0000 0.43338  0.61048  0.90514  Biso   1.000  O
  O116     1.0000 0.38952  0.43338  0.90514  Biso   1.000  O
  O117     1.0000 0.06662  0.88952  0.40514  Biso   1.000  O
  O118     1.0000 0.11048  0.06662  0.40514  Biso   1.000  O
  O119     1.0000 0.93338  0.11048  0.40514  Biso   1.000  O
  O120     1.0000 0.88952  0.93338  0.40514  Biso   1.000  O
  O121     1.0000 0.43338  0.61048  0.09486  Biso   1.000  O
  O122     1.0000 0.38952  0.43338  0.09486  Biso   1.000  O
  O123     1.0000 0.56662  0.38952  0.09486  Biso   1.000  O
  O124     1.0000 0.61048  0.56662  0.09486  Biso   1.000  O
  O125     1.0000 0.93338  0.11048  0.59486  Biso   1.000  O
  O126     1.0000 0.88952  0.93338  0.59486  Biso   1.000  O
  O127     1.0000 0.06662  0.88952  0.59486  Biso   1.000  O
  O128     1.0000 0.11048  0.06662  0.59486  Biso   1.000  O
  O129     1.0000 0.68120  0.09916  0.53078  Biso   1.000  O
  O130     1.0000 0.90084  0.68120  0.53078  Biso   1.000  O
  O131     1.0000 0.31880  0.90084  0.53078  Biso   1.000  O
  O132     1.0000 0.09916  0.31880  0.53078  Biso   1.000  O
  O133     1.0000 0.18120  0.59916  0.03078  Biso   1.000  O
  O134     1.0000 0.40084  0.18120  0.03078  Biso   1.000  O
  O135     1.0000 0.81880  0.40084  0.03078  Biso   1.000  O
  O136     1.0000 0.59916  0.81880  0.03078  Biso   1.000  O
  O137     1.0000 0.31880  0.90084  0.46922  Biso   1.000  O
  O138     1.0000 0.09916  0.31880  0.46922  Biso   1.000  O
  O139     1.0000 0.68120  0.09916  0.46922  Biso   1.000  O
  O140     1.0000 0.90084  0.68120  0.46922  Biso   1.000  O
  O141     1.0000 0.81880  0.40084  0.96922  Biso   1.000  O
  O142     1.0000 0.59916  0.81880  0.96922  Biso   1.000  O
  O143     1.0000 0.18120  0.59916  0.96922  Biso   1.000  O
  O144     1.0000 0.40084  0.18120  0.96922  Biso   1.000  O
  O145     1.0000 0.75305  0.08784  0.53039  Biso   1.000  O
  O146     1.0000 0.91216  0.75305  0.53039  Biso   1.000  O
  O147     1.0000 0.24695  0.91216  0.53039  Biso   1.000  O
  O148     1.0000 0.08784  0.24695  0.53039  Biso   1.000  O
  O149     1.0000 0.25305  0.58784  0.03039  Biso   1.000  O
  O150     1.0000 0.41216  0.25305  0.03039  Biso   1.000  O
  O151     1.0000 0.74695  0.41216  0.03039  Biso   1.000  O
  O152     1.0000 0.58784  0.74695  0.03039  Biso   1.000  O
  O153     1.0000 0.24695  0.91216  0.46961  Biso   1.000  O
  O154     1.0000 0.08784  0.24695  0.46961  Biso   1.000  O
  O155     1.0000 0.75305  0.08784  0.46961  Biso   1.000  O
  O156     1.0000 0.91216  0.75305  0.46961  Biso   1.000  O
  O157     1.0000 0.74695  0.41216  0.96961  Biso   1.000  O
  O158     1.0000 0.58784  0.74695  0.96961  Biso   1.000  O
  O159     1.0000 0.25305  0.58784  0.96961  Biso   1.000  O
  O160     1.0000 0.41216  0.25305  0.96961  Biso   1.000  O
  O161     1.0000 0.33757  0.98811  0.53024  Biso   1.000  O
  O162     1.0000 0.01189  0.33757  0.53024  Biso   1.000  O
  O163     1.0000 0.66243  0.01189  0.53024  Biso   1.000  O
  O164     1.0000 0.98811  0.66243  0.53024  Biso   1.000  O
  O165     1.0000 0.83757  0.48811  0.03024  Biso   1.000  O
  O166     1.0000 0.51189  0.83757  0.03024  Biso   1.000  O
  O167     1.0000 0.16243  0.51189  0.03024  Biso   1.000  O
  O168     1.0000 0.48811  0.16243  0.03024  Biso   1.000  O
  O169     1.0000 0.66243  0.01189  0.46976  Biso   1.000  O
  O170     1.0000 0.98811  0.66243  0.46976  Biso   1.000  O
  O171     1.0000 0.33757  0.98811  0.46976  Biso   1.000  O
  O172     1.0000 0.01189  0.33757  0.46976  Biso   1.000  O
  O173     1.0000 0.16243  0.51189  0.96976  Biso   1.000  O
  O174     1.0000 0.48811  0.16243  0.96976  Biso   1.000  O
  O175     1.0000 0.83757  0.48811  0.96976  Biso   1.000  O
  O176     1.0000 0.51189  0.83757  0.96976  Biso   1.000  O
  O177     1.0000 0.26575  0.99871  0.53066  Biso   1.000  O
  O178     1.0000 0.00129  0.26575  0.53066  Biso   1.000  O
  O179     1.0000 0.73425  0.00129  0.53066  Biso   1.000  O
  O180     1.0000 0.99871  0.73425  0.53066  Biso   1.000  O
  O181     1.0000 0.76575  0.49871  0.03066  Biso   1.000  O
  O182     1.0000 0.50129  0.76575  0.03066  Biso   1.000  O
  O183     1.0000 0.23425  0.50129  0.03066  Biso   1.000  O
  O184     1.0000 0.49871  0.23425  0.03066  Biso   1.000  O
  O185     1.0000 0.73425  0.00129  0.46934  Biso   1.000  O
  O186     1.0000 0.99871  0.73425  0.46934  Biso   1.000  O
  O187     1.0000 0.26575  0.99871  0.46934  Biso   1.000  O
  O188     1.0000 0.00129  0.26575  0.46934  Biso   1.000  O
  O189     1.0000 0.23425  0.50129  0.96934  Biso   1.000  O
  O190     1.0000 0.49871  0.23425  0.96934  Biso   1.000  O
  O191     1.0000 0.76575  0.49871  0.96934  Biso   1.000  O
  O192     1.0000 0.50129  0.76575  0.96934  Biso   1.000  O
  O193     1.0000 0.59809  0.07310  0.50000  Biso   1.000  O
  O194     1.0000 0.92690  0.59809  0.50000  Biso   1.000  O
  O195     1.0000 0.40191  0.92690  0.50000  Biso   1.000  O
  O196     1.0000 0.07310  0.40191  0.50000  Biso   1.000  O
  O197     1.0000 0.09809  0.57310  0.00000  Biso   1.000  O
  O198     1.0000 0.42690  0.09809  0.00000  Biso   1.000  O
  O199     1.0000 0.90191  0.42690  0.00000  Biso   1.000  O
  O200     1.0000 0.57310  0.90191  0.00000  Biso   1.000  O
  O201     1.0000 0.81964  0.02969  0.50000  Biso   1.000  O
  O202     1.0000 0.97031  0.81964  0.50000  Biso   1.000  O
  O203     1.0000 0.18036  0.97031  0.50000  Biso   1.000  O
  O204     1.0000 0.02969  0.18036  0.50000  Biso   1.000  O
  O205     1.0000 0.31964  0.52969  0.00000  Biso   1.000  O
  O206     1.0000 0.47031  0.31964  0.00000  Biso   1.000  O
  O207     1.0000 0.68036  0.47031  0.00000  Biso   1.000  O
  O208     1.0000 0.52969  0.68036  0.00000  Biso   1.000  O
  O209     1.0000 0.24553  0.11865  0.64253  Biso   1.000  O
  O210     1.0000 0.88135  0.24553  0.64253  Biso   1.000  O
  O211     1.0000 0.75447  0.88135  0.64253  Biso   1.000  O
  O212     1.0000 0.11865  0.75447  0.64253  Biso   1.000  O
  O213     1.0000 0.74553  0.61865  0.14253  Biso   1.000  O
  O214     1.0000 0.38135  0.74553  0.14253  Biso   1.000  O
  O215     1.0000 0.25447  0.38135  0.14253  Biso   1.000  O
  O216     1.0000 0.61865  0.25447  0.14253  Biso   1.000  O
  O217     1.0000 0.75447  0.88135  0.35747  Biso   1.000  O
  O218     1.0000 0.11865  0.75447  0.35747  Biso   1.000  O
  O219     1.0000 0.24553  0.11865  0.35747  Biso   1.000  O
  O220     1.0000 0.88135  0.24553  0.35747  Biso   1.000  O
  O221     1.0000 0.25447  0.38135  0.85747  Biso   1.000  O
  O222     1.0000 0.61865  0.25447  0.85747  Biso   1.000  O
  O223     1.0000 0.74553  0.61865  0.85747  Biso   1.000  O
  O224     1.0000 0.38135  0.74553  0.85747  Biso   1.000  O
  O225     1.0000 0.20268  0.08299  0.61062  Biso   1.000  O
  O226     1.0000 0.91701  0.20268  0.61062  Biso   1.000  O
  O227     1.0000 0.79732  0.91701  0.61062  Biso   1.000  O
  O228     1.0000 0.08299  0.79732  0.61062  Biso   1.000  O
  O229     1.0000 0.70268  0.58299  0.11062  Biso   1.000  O
  O230     1.0000 0.41701  0.70268  0.11062  Biso   1.000  O
  O231     1.0000 0.29732  0.41701  0.11062  Biso   1.000  O
  O232     1.0000 0.58299  0.29732  0.11062  Biso   1.000  O
  O233     1.0000 0.79732  0.91701  0.38938  Biso   1.000  O
  O234     1.0000 0.08299  0.79732  0.38938  Biso   1.000  O
  O235     1.0000 0.20268  0.08299  0.38938  Biso   1.000  O
  O236     1.0000 0.91701  0.20268  0.38938  Biso   1.000  O
  O237     1.0000 0.29732  0.41701  0.88938  Biso   1.000  O
  O238     1.0000 0.58299  0.29732  0.88938  Biso   1.000  O
  O239     1.0000 0.70268  0.58299  0.88938  Biso   1.000  O
  O240     1.0000 0.41701  0.70268  0.88938  Biso   1.000  O
  C1       1.0000 0.55082  0.32475  0.82270  Biso   1.000  C
  C2       1.0000 0.67525  0.55082  0.82270  Biso   1.000  C
  C3       1.0000 0.44918  0.67525  0.82270  Biso   1.000  C
  C4       1.0000 0.32475  0.44918  0.82270  Biso   1.000  C
  C5       1.0000 0.05082  0.82475  0.32270  Biso   1.000  C
  C6       1.0000 0.17525  0.05082  0.32270  Biso   1.000  C
  C7       1.0000 0.94918  0.17525  0.32270  Biso   1.000  C
  C8       1.0000 0.82475  0.94918  0.32270  Biso   1.000  C
  C9       1.0000 0.44918  0.67525  0.17730  Biso   1.000  C
  C10      1.0000 0.32475  0.44918  0.17730  Biso   1.000  C
  C11      1.0000 0.55082  0.32475  0.17730  Biso   1.000  C
  C12      1.0000 0.67525  0.55082  0.17730  Biso   1.000  C
  C13      1.0000 0.94918  0.17525  0.67730  Biso   1.000  C
  C14      1.0000 0.82475  0.94918  0.67730  Biso   1.000  C
  C15      1.0000 0.05082  0.82475  0.67730  Biso   1.000  C
  C16      1.0000 0.17525  0.05082  0.67730  Biso   1.000  C
  C17      1.0000 0.50758  0.32311  0.80715  Biso   1.000  C
  C18      1.0000 0.67689  0.50758  0.80715  Biso   1.000  C
  C19      1.0000 0.49242  0.67689  0.80715  Biso   1.000  C
  C20      1.0000 0.32311  0.49242  0.80715  Biso   1.000  C
  C21      1.0000 0.00758  0.82311  0.30715  Biso   1.000  C
  C22      1.0000 0.17689  0.00758  0.30715  Biso   1.000  C
  C23      1.0000 0.99242  0.17689  0.30715  Biso   1.000  C
  C24      1.0000 0.82311  0.99242  0.30715  Biso   1.000  C
  C25      1.0000 0.49242  0.67689  0.19285  Biso   1.000  C
  C26      1.0000 0.32311  0.49242  0.19285  Biso   1.000  C
  C27      1.0000 0.50758  0.32311  0.19285  Biso   1.000  C
  C28      1.0000 0.67689  0.50758  0.19285  Biso   1.000  C
  C29      1.0000 0.99242  0.17689  0.69285  Biso   1.000  C
  C30      1.0000 0.82311  0.99242  0.69285  Biso   1.000  C
  C31      1.0000 0.00758  0.82311  0.69285  Biso   1.000  C
  C32      1.0000 0.17689  0.00758  0.69285  Biso   1.000  C
  C33      1.0000 0.50360  0.30246  0.77991  Biso   1.000  C
  C34      1.0000 0.69754  0.50360  0.77991  Biso   1.000  C
  C35      1.0000 0.49640  0.69754  0.77991  Biso   1.000  C
  C36      1.0000 0.30246  0.49640  0.77991  Biso   1.000  C
  C37      1.0000 0.00360  0.80246  0.27991  Biso   1.000  C
  C38      1.0000 0.19754  0.00360  0.27991  Biso   1.000  C
  C39      1.0000 0.99640  0.19754  0.27991  Biso   1.000  C
  C40      1.0000 0.80246  0.99640  0.27991  Biso   1.000  C
  C41      1.0000 0.49640  0.69754  0.22009  Biso   1.000  C
  C42      1.0000 0.30246  0.49640  0.22009  Biso   1.000  C
  C43      1.0000 0.50360  0.30246  0.22009  Biso   1.000  C
  C44      1.0000 0.69754  0.50360  0.22009  Biso   1.000  C
  C45      1.0000 0.99640  0.19754  0.72009  Biso   1.000  C
  C46      1.0000 0.80246  0.99640  0.72009  Biso   1.000  C
  C47      1.0000 0.00360  0.80246  0.72009  Biso   1.000  C
  C48      1.0000 0.19754  0.00360  0.72009  Biso   1.000  C
  H1       1.0000 0.52820  0.29030  0.77040  Biso   1.000  H
  H2       1.0000 0.70970  0.52820  0.77040  Biso   1.000  H
  H3       1.0000 0.47180  0.70970  0.77040  Biso   1.000  H
  H4       1.0000 0.29030  0.47180  0.77040  Biso   1.000  H
  H5       1.0000 0.02820  0.79030  0.27040  Biso   1.000  H
  H6       1.0000 0.20970  0.02820  0.27040  Biso   1.000  H
  H7       1.0000 0.97180  0.20970  0.27040  Biso   1.000  H
  H8       1.0000 0.79030  0.97180  0.27040  Biso   1.000  H
  H9       1.0000 0.47180  0.70970  0.22960  Biso   1.000  H
  H10      1.0000 0.29030  0.47180  0.22960  Biso   1.000  H
  H11      1.0000 0.52820  0.29030  0.22960  Biso   1.000  H
  H12      1.0000 0.70970  0.52820  0.22960  Biso   1.000  H
  H13      1.0000 0.97180  0.20970  0.72960  Biso   1.000  H
  H14      1.0000 0.79030  0.97180  0.72960  Biso   1.000  H
  H15      1.0000 0.02820  0.79030  0.72960  Biso   1.000  H
  H16      1.0000 0.20970  0.02820  0.72960  Biso   1.000  H
  C49      1.0000 0.46323  0.29989  0.76697  Biso   1.000  C
  C50      1.0000 0.70011  0.46323  0.76697  Biso   1.000  C
  C51      1.0000 0.53677  0.70011  0.76697  Biso   1.000  C
  C52      1.0000 0.29989  0.53677  0.76697  Biso   1.000  C
  C53      1.0000 0.96323  0.79989  0.26697  Biso   1.000  C
  C54      1.0000 0.20011  0.96323  0.26697  Biso   1.000  C
  C55      1.0000 0.03677  0.20011  0.26697  Biso   1.000  C
  C56      1.0000 0.79989  0.03677  0.26697  Biso   1.000  C
  C57      1.0000 0.53677  0.70011  0.23303  Biso   1.000  C
  C58      1.0000 0.29989  0.53677  0.23303  Biso   1.000  C
  C59      1.0000 0.46323  0.29989  0.23303  Biso   1.000  C
  C60      1.0000 0.70011  0.46323  0.23303  Biso   1.000  C
  C61      1.0000 0.03677  0.20011  0.73303  Biso   1.000  C
  C62      1.0000 0.79989  0.03677  0.73303  Biso   1.000  C
  C63      1.0000 0.96323  0.79989  0.73303  Biso   1.000  C
  C64      1.0000 0.20011  0.96323  0.73303  Biso   1.000  C
  C65      1.0000 0.42668  0.31728  0.78082  Biso   1.000  C
  C66      1.0000 0.68272  0.42668  0.78082  Biso   1.000  C
  C67      1.0000 0.57332  0.68272  0.78082  Biso   1.000  C
  C68      1.0000 0.31728  0.57332  0.78082  Biso   1.000  C
  C69      1.0000 0.92668  0.81728  0.28082  Biso   1.000  C
  C70      1.0000 0.18272  0.92668  0.28082  Biso   1.000  C
  C71      1.0000 0.07332  0.18272  0.28082  Biso   1.000  C
  C72      1.0000 0.81728  0.07332  0.28082  Biso   1.000  C
  C73      1.0000 0.57332  0.68272  0.21918  Biso   1.000  C
  C74      1.0000 0.31728  0.57332  0.21918  Biso   1.000  C
  C75      1.0000 0.42668  0.31728  0.21918  Biso   1.000  C
  C76      1.0000 0.68272  0.42668  0.21918  Biso   1.000  C
  C77      1.0000 0.07332  0.18272  0.71918  Biso   1.000  C
  C78      1.0000 0.81728  0.07332  0.71918  Biso   1.000  C
  C79      1.0000 0.92668  0.81728  0.71918  Biso   1.000  C
  C80      1.0000 0.18272  0.92668  0.71918  Biso   1.000  C
  H17      1.0000 0.39910  0.31530  0.77170  Biso   1.000  H
  H18      1.0000 0.68470  0.39910  0.77170  Biso   1.000  H
  H19      1.0000 0.60090  0.68470  0.77170  Biso   1.000  H
  H20      1.0000 0.31530  0.60090  0.77170  Biso   1.000  H
  H21      1.0000 0.89910  0.81530  0.27170  Biso   1.000  H
  H22      1.0000 0.18470  0.89910  0.27170  Biso   1.000  H
  H23      1.0000 0.10090  0.18470  0.27170  Biso   1.000  H
  H24      1.0000 0.81530  0.10090  0.27170  Biso   1.000  H
  H25      1.0000 0.60090  0.68470  0.22830  Biso   1.000  H
  H26      1.0000 0.31530  0.60090  0.22830  Biso   1.000  H
  H27      1.0000 0.39910  0.31530  0.22830  Biso   1.000  H
  H28      1.0000 0.68470  0.39910  0.22830  Biso   1.000  H
  H29      1.0000 0.10090  0.18470  0.72830  Biso   1.000  H
  H30      1.0000 0.81530  0.10090  0.72830  Biso   1.000  H
  H31      1.0000 0.89910  0.81530  0.72830  Biso   1.000  H
  H32      1.0000 0.18470  0.89910  0.72830  Biso   1.000  H
  C81      1.0000 0.43124  0.33736  0.80791  Biso   1.000  C
  C82      1.0000 0.66264  0.43124  0.80791  Biso   1.000  C
  C83      1.0000 0.56876  0.66264  0.80791  Biso   1.000  C
  C84      1.0000 0.33736  0.56876  0.80791  Biso   1.000  C
  C85      1.0000 0.93124  0.83736  0.30791  Biso   1.000  C
  C86      1.0000 0.16264  0.93124  0.30791  Biso   1.000  C
  C87      1.0000 0.06876  0.16264  0.30791  Biso   1.000  C
  C88      1.0000 0.83736  0.06876  0.30791  Biso   1.000  C
  C89      1.0000 0.56876  0.66264  0.19209  Biso   1.000  C
  C90      1.0000 0.33736  0.56876  0.19209  Biso   1.000  C
  C91      1.0000 0.43124  0.33736  0.19209  Biso   1.000  C
  C92      1.0000 0.66264  0.43124  0.19209  Biso   1.000  C
  C93      1.0000 0.06876  0.16264  0.69209  Biso   1.000  C
  C94      1.0000 0.83736  0.06876  0.69209  Biso   1.000  C
  C95      1.0000 0.93124  0.83736  0.69209  Biso   1.000  C
  C96      1.0000 0.16264  0.93124  0.69209  Biso   1.000  C
  C97      1.0000 0.47179  0.34085  0.82069  Biso   1.000  C
  C98      1.0000 0.65915  0.47179  0.82069  Biso   1.000  C
  C99      1.0000 0.52821  0.65915  0.82069  Biso   1.000  C
  C100     1.0000 0.34085  0.52821  0.82069  Biso   1.000  C
  C101     1.0000 0.97179  0.84085  0.32069  Biso   1.000  C
  C102     1.0000 0.15915  0.97179  0.32069  Biso   1.000  C
  C103     1.0000 0.02821  0.15915  0.32069  Biso   1.000  C
  C104     1.0000 0.84085  0.02821  0.32069  Biso   1.000  C
  C105     1.0000 0.52821  0.65915  0.17931  Biso   1.000  C
  C106     1.0000 0.34085  0.52821  0.17931  Biso   1.000  C
  C107     1.0000 0.47179  0.34085  0.17931  Biso   1.000  C
  C108     1.0000 0.65915  0.47179  0.17931  Biso   1.000  C
  C109     1.0000 0.02821  0.15915  0.67931  Biso   1.000  C
  C110     1.0000 0.84085  0.02821  0.67931  Biso   1.000  C
  C111     1.0000 0.97179  0.84085  0.67931  Biso   1.000  C
  C112     1.0000 0.15915  0.97179  0.67931  Biso   1.000  C
  H33      1.0000 0.47500  0.35570  0.83900  Biso   1.000  H
  H34      1.0000 0.64430  0.47500  0.83900  Biso   1.000  H
  H35      1.0000 0.52500  0.64430  0.83900  Biso   1.000  H
  H36      1.0000 0.35570  0.52500  0.83900  Biso   1.000  H
  H37      1.0000 0.97500  0.85570  0.33900  Biso   1.000  H
  H38      1.0000 0.14430  0.97500  0.33900  Biso   1.000  H
  H39      1.0000 0.02500  0.14430  0.33900  Biso   1.000  H
  H40      1.0000 0.85570  0.02500  0.33900  Biso   1.000  H
  H41      1.0000 0.52500  0.64430  0.16100  Biso   1.000  H
  H42      1.0000 0.35570  0.52500  0.16100  Biso   1.000  H
  H43      1.0000 0.47500  0.35570  0.16100  Biso   1.000  H
  H44      1.0000 0.64430  0.47500  0.16100  Biso   1.000  H
  H45      1.0000 0.02500  0.14430  0.66100  Biso   1.000  H
  H46      1.0000 0.85570  0.02500  0.66100  Biso   1.000  H
  H47      1.0000 0.97500  0.85570  0.66100  Biso   1.000  H
  H48      1.0000 0.14430  0.97500  0.66100  Biso   1.000  H
  C113     1.0000 0.48290  0.23700  0.66529  Biso   1.000  C
  C114     1.0000 0.76300  0.48290  0.66529  Biso   1.000  C
  C115     1.0000 0.51710  0.76300  0.66529  Biso   1.000  C
  C116     1.0000 0.23700  0.51710  0.66529  Biso   1.000  C
  C117     1.0000 0.98290  0.73700  0.16529  Biso   1.000  C
  C118     1.0000 0.26300  0.98290  0.16529  Biso   1.000  C
  C119     1.0000 0.01710  0.26300  0.16529  Biso   1.000  C
  C120     1.0000 0.73700  0.01710  0.16529  Biso   1.000  C
  C121     1.0000 0.51710  0.76300  0.33471  Biso   1.000  C
  C122     1.0000 0.23700  0.51710  0.33471  Biso   1.000  C
  C123     1.0000 0.48290  0.23700  0.33471  Biso   1.000  C
  C124     1.0000 0.76300  0.48290  0.33471  Biso   1.000  C
  C125     1.0000 0.01710  0.26300  0.83471  Biso   1.000  C
  C126     1.0000 0.73700  0.01710  0.83471  Biso   1.000  C
  C127     1.0000 0.98290  0.73700  0.83471  Biso   1.000  C
  C128     1.0000 0.26300  0.98290  0.83471  Biso   1.000  C
  C129     1.0000 0.52660  0.24200  0.65761  Biso   1.000  C
  C130     1.0000 0.75800  0.52660  0.65761  Biso   1.000  C
  C131     1.0000 0.47340  0.75800  0.65761  Biso   1.000  C
  C132     1.0000 0.24200  0.47340  0.65761  Biso   1.000  C
  C133     1.0000 0.02660  0.74200  0.15761  Biso   1.000  C
  C134     1.0000 0.25800  0.02660  0.15761  Biso   1.000  C
  C135     1.0000 0.97340  0.25800  0.15761  Biso   1.000  C
  C136     1.0000 0.74200  0.97340  0.15761  Biso   1.000  C
  C137     1.0000 0.47340  0.75800  0.34239  Biso   1.000  C
  C138     1.0000 0.24200  0.47340  0.34239  Biso   1.000  C
  C139     1.0000 0.52660  0.24200  0.34239  Biso   1.000  C
  C140     1.0000 0.75800  0.52660  0.34239  Biso   1.000  C
  C141     1.0000 0.97340  0.25800  0.84239  Biso   1.000  C
  C142     1.0000 0.74200  0.97340  0.84239  Biso   1.000  C
  C143     1.0000 0.02660  0.74200  0.84239  Biso   1.000  C
  C144     1.0000 0.25800  0.02660  0.84239  Biso   1.000  C
  H49      1.0000 0.54470  0.26090  0.66870  Biso   1.000  H
  H50      1.0000 0.73910  0.54470  0.66870  Biso   1.000  H
  H51      1.0000 0.45530  0.73910  0.66870  Biso   1.000  H
  H52      1.0000 0.26090  0.45530  0.66870  Biso   1.000  H
  H53      1.0000 0.04470  0.76090  0.16870  Biso   1.000  H
  H54      1.0000 0.23910  0.04470  0.16870  Biso   1.000  H
  H55      1.0000 0.95530  0.23910  0.16870  Biso   1.000  H
  H56      1.0000 0.76090  0.95530  0.16870  Biso   1.000  H
  H57      1.0000 0.45530  0.73910  0.33130  Biso   1.000  H
  H58      1.0000 0.26090  0.45530  0.33130  Biso   1.000  H
  H59      1.0000 0.54470  0.26090  0.33130  Biso   1.000  H
  H60      1.0000 0.73910  0.54470  0.33130  Biso   1.000  H
  H61      1.0000 0.95530  0.23910  0.83130  Biso   1.000  H
  H62      1.0000 0.76090  0.95530  0.83130  Biso   1.000  H
  H63      1.0000 0.04470  0.76090  0.83130  Biso   1.000  H
  H64      1.0000 0.23910  0.04470  0.83130  Biso   1.000  H
  C145     1.0000 0.54330  0.21880  0.63338  Biso   1.000  C
  C146     1.0000 0.78120  0.54330  0.63338  Biso   1.000  C
  C147     1.0000 0.45670  0.78120  0.63338  Biso   1.000  C
  C148     1.0000 0.21880  0.45670  0.63338  Biso   1.000  C
  C149     1.0000 0.04330  0.71880  0.13338  Biso   1.000  C
  C150     1.0000 0.28120  0.04330  0.13338  Biso   1.000  C
  C151     1.0000 0.95670  0.28120  0.13338  Biso   1.000  C
  C152     1.0000 0.71880  0.95670  0.13338  Biso   1.000  C
  C153     1.0000 0.45670  0.78120  0.36662  Biso   1.000  C
  C154     1.0000 0.21880  0.45670  0.36662  Biso   1.000  C
  C155     1.0000 0.54330  0.21880  0.36662  Biso   1.000  C
  C156     1.0000 0.78120  0.54330  0.36662  Biso   1.000  C
  C157     1.0000 0.95670  0.28120  0.86662  Biso   1.000  C
  C158     1.0000 0.71880  0.95670  0.86662  Biso   1.000  C
  C159     1.0000 0.04330  0.71880  0.86662  Biso   1.000  C
  C160     1.0000 0.28120  0.04330  0.86662  Biso   1.000  C
  C161     1.0000 0.51570  0.19050  0.61695  Biso   1.000  C
  C162     1.0000 0.80950  0.51570  0.61695  Biso   1.000  C
  C163     1.0000 0.48430  0.80950  0.61695  Biso   1.000  C
  C164     1.0000 0.19050  0.48430  0.61695  Biso   1.000  C
  C165     1.0000 0.01570  0.69050  0.11695  Biso   1.000  C
  C166     1.0000 0.30950  0.01570  0.11695  Biso   1.000  C
  C167     1.0000 0.98430  0.30950  0.11695  Biso   1.000  C
  C168     1.0000 0.69050  0.98430  0.11695  Biso   1.000  C
  C169     1.0000 0.48430  0.80950  0.38305  Biso   1.000  C
  C170     1.0000 0.19050  0.48430  0.38305  Biso   1.000  C
  C171     1.0000 0.51570  0.19050  0.38305  Biso   1.000  C
  C172     1.0000 0.80950  0.51570  0.38305  Biso   1.000  C
  C173     1.0000 0.98430  0.30950  0.88305  Biso   1.000  C
  C174     1.0000 0.69050  0.98430  0.88305  Biso   1.000  C
  C175     1.0000 0.01570  0.69050  0.88305  Biso   1.000  C
  C176     1.0000 0.30950  0.01570  0.88305  Biso   1.000  C
  H65      1.0000 0.52690  0.17470  0.60060  Biso   1.000  H
  H66      1.0000 0.82530  0.52690  0.60060  Biso   1.000  H
  H67      1.0000 0.47310  0.82530  0.60060  Biso   1.000  H
  H68      1.0000 0.17470  0.47310  0.60060  Biso   1.000  H
  H69      1.0000 0.02690  0.67470  0.10060  Biso   1.000  H
  H70      1.0000 0.32530  0.02690  0.10060  Biso   1.000  H
  H71      1.0000 0.97310  0.32530  0.10060  Biso   1.000  H
  H72      1.0000 0.67470  0.97310  0.10060  Biso   1.000  H
  H73      1.0000 0.47310  0.82530  0.39940  Biso   1.000  H
  H74      1.0000 0.17470  0.47310  0.39940  Biso   1.000  H
  H75      1.0000 0.52690  0.17470  0.39940  Biso   1.000  H
  H76      1.0000 0.82530  0.52690  0.39940  Biso   1.000  H
  H77      1.0000 0.97310  0.32530  0.89940  Biso   1.000  H
  H78      1.0000 0.67470  0.97310  0.89940  Biso   1.000  H
  H79      1.0000 0.02690  0.67470  0.89940  Biso   1.000  H
  H80      1.0000 0.32530  0.02690  0.89940  Biso   1.000  H
  C177     1.0000 0.47250  0.18600  0.62485  Biso   1.000  C
  C178     1.0000 0.81400  0.47250  0.62485  Biso   1.000  C
  C179     1.0000 0.52750  0.81400  0.62485  Biso   1.000  C
  C180     1.0000 0.18600  0.52750  0.62485  Biso   1.000  C
  C181     1.0000 0.97250  0.68600  0.12485  Biso   1.000  C
  C182     1.0000 0.31400  0.97250  0.12485  Biso   1.000  C
  C183     1.0000 0.02750  0.31400  0.12485  Biso   1.000  C
  C184     1.0000 0.68600  0.02750  0.12485  Biso   1.000  C
  C185     1.0000 0.52750  0.81400  0.37515  Biso   1.000  C
  C186     1.0000 0.18600  0.52750  0.37515  Biso   1.000  C
  C187     1.0000 0.47250  0.18600  0.37515  Biso   1.000  C
  C188     1.0000 0.81400  0.47250  0.37515  Biso   1.000  C
  C189     1.0000 0.02750  0.31400  0.87515  Biso   1.000  C
  C190     1.0000 0.68600  0.02750  0.87515  Biso   1.000  C
  C191     1.0000 0.97250  0.68600  0.87515  Biso   1.000  C
  C192     1.0000 0.31400  0.97250  0.87515  Biso   1.000  C
  C193     1.0000 0.45650  0.21000  0.64956  Biso   1.000  C
  C194     1.0000 0.79000  0.45650  0.64956  Biso   1.000  C
  C195     1.0000 0.54350  0.79000  0.64956  Biso   1.000  C
  C196     1.0000 0.21000  0.54350  0.64956  Biso   1.000  C
  C197     1.0000 0.95650  0.71000  0.14956  Biso   1.000  C
  C198     1.0000 0.29000  0.95650  0.14956  Biso   1.000  C
  C199     1.0000 0.04350  0.29000  0.14956  Biso   1.000  C
  C200     1.0000 0.71000  0.04350  0.14956  Biso   1.000  C
  C201     1.0000 0.54350  0.79000  0.35044  Biso   1.000  C
  C202     1.0000 0.21000  0.54350  0.35044  Biso   1.000  C
  C203     1.0000 0.45650  0.21000  0.35044  Biso   1.000  C
  C204     1.0000 0.79000  0.45650  0.35044  Biso   1.000  C
  C205     1.0000 0.04350  0.29000  0.85044  Biso   1.000  C
  C206     1.0000 0.71000  0.04350  0.85044  Biso   1.000  C
  C207     1.0000 0.95650  0.71000  0.85044  Biso   1.000  C
  C208     1.0000 0.29000  0.95650  0.85044  Biso   1.000  C
  H81      1.0000 0.42700  0.20720  0.65510  Biso   1.000  H
  H82      1.0000 0.79280  0.42700  0.65510  Biso   1.000  H
  H83      1.0000 0.57300  0.79280  0.65510  Biso   1.000  H
  H84      1.0000 0.20720  0.57300  0.65510  Biso   1.000  H
  H85      1.0000 0.92700  0.70720  0.15510  Biso   1.000  H
  H86      1.0000 0.29280  0.92700  0.15510  Biso   1.000  H
  H87      1.0000 0.07300  0.29280  0.15510  Biso   1.000  H
  H88      1.0000 0.70720  0.07300  0.15510  Biso   1.000  H
  H89      1.0000 0.57300  0.79280  0.34490  Biso   1.000  H
  H90      1.0000 0.20720  0.57300  0.34490  Biso   1.000  H
  H91      1.0000 0.42700  0.20720  0.34490  Biso   1.000  H
  H92      1.0000 0.79280  0.42700  0.34490  Biso   1.000  H
  H93      1.0000 0.07300  0.29280  0.84490  Biso   1.000  H
  H94      1.0000 0.70720  0.07300  0.84490  Biso   1.000  H
  H95      1.0000 0.92700  0.70720  0.84490  Biso   1.000  H
  H96      1.0000 0.29280  0.92700  0.84490  Biso   1.000  H
  C209     1.0000 0.44310  0.16000  0.60750  Biso   1.000  C
  C210     1.0000 0.84000  0.44310  0.60750  Biso   1.000  C
  C211     1.0000 0.55690  0.84000  0.60750  Biso   1.000  C
  C212     1.0000 0.16000  0.55690  0.60750  Biso   1.000  C
  C213     1.0000 0.94310  0.66000  0.10750  Biso   1.000  C
  C214     1.0000 0.34000  0.94310  0.10750  Biso   1.000  C
  C215     1.0000 0.05690  0.34000  0.10750  Biso   1.000  C
  C216     1.0000 0.66000  0.05690  0.10750  Biso   1.000  C
  C217     1.0000 0.55690  0.84000  0.39250  Biso   1.000  C
  C218     1.0000 0.16000  0.55690  0.39250  Biso   1.000  C
  C219     1.0000 0.44310  0.16000  0.39250  Biso   1.000  C
  C220     1.0000 0.84000  0.44310  0.39250  Biso   1.000  C
  C221     1.0000 0.05690  0.34000  0.89250  Biso   1.000  C
  C222     1.0000 0.66000  0.05690  0.89250  Biso   1.000  C
  C223     1.0000 0.94310  0.66000  0.89250  Biso   1.000  C
  C224     1.0000 0.34000  0.94310  0.89250  Biso   1.000  C
  C225     1.0000 0.40350  0.14510  0.61390  Biso   1.000  C
  C226     1.0000 0.85490  0.40350  0.61390  Biso   1.000  C
  C227     1.0000 0.59650  0.85490  0.61390  Biso   1.000  C
  C228     1.0000 0.14510  0.59650  0.61390  Biso   1.000  C
  C229     1.0000 0.90350  0.64510  0.11390  Biso   1.000  C
  C230     1.0000 0.35490  0.90350  0.11390  Biso   1.000  C
  C231     1.0000 0.09650  0.35490  0.11390  Biso   1.000  C
  C232     1.0000 0.64510  0.09650  0.11390  Biso   1.000  C
  C233     1.0000 0.59650  0.85490  0.38610  Biso   1.000  C
  C234     1.0000 0.14510  0.59650  0.38610  Biso   1.000  C
  C235     1.0000 0.40350  0.14510  0.38610  Biso   1.000  C
  C236     1.0000 0.85490  0.40350  0.38610  Biso   1.000  C
  C237     1.0000 0.09650  0.35490  0.88610  Biso   1.000  C
  C238     1.0000 0.64510  0.09650  0.88610  Biso   1.000  C
  C239     1.0000 0.90350  0.64510  0.88610  Biso   1.000  C
  C240     1.0000 0.35490  0.90350  0.88610  Biso   1.000  C
  H97      1.0000 0.38700  0.15220  0.63100  Biso   1.000  H
  H98      1.0000 0.84780  0.38700  0.63100  Biso   1.000  H
  H99      1.0000 0.61300  0.84780  0.63100  Biso   1.000  H
  H100     1.0000 0.15220  0.61300  0.63100  Biso   1.000  H
  H101     1.0000 0.88700  0.65220  0.13100  Biso   1.000  H
  H102     1.0000 0.34780  0.88700  0.13100  Biso   1.000  H
  H103     1.0000 0.11300  0.34780  0.13100  Biso   1.000  H
  H104     1.0000 0.65220  0.11300  0.13100  Biso   1.000  H
  H105     1.0000 0.61300  0.84780  0.36900  Biso   1.000  H
  H106     1.0000 0.15220  0.61300  0.36900  Biso   1.000  H
  H107     1.0000 0.38700  0.15220  0.36900  Biso   1.000  H
  H108     1.0000 0.84780  0.38700  0.36900  Biso   1.000  H
  H109     1.0000 0.11300  0.34780  0.86900  Biso   1.000  H
  H110     1.0000 0.65220  0.11300  0.86900  Biso   1.000  H
  H111     1.0000 0.88700  0.65220  0.86900  Biso   1.000  H
  H112     1.0000 0.34780  0.88700  0.86900  Biso   1.000  H
  N1       1.0000 0.45440  0.14190  0.58100  Biso   1.000  N
  N2       1.0000 0.85810  0.45440  0.58100  Biso   1.000  N
  N3       1.0000 0.54560  0.85810  0.58100  Biso   1.000  N
  N4       1.0000 0.14190  0.54560  0.58100  Biso   1.000  N
  N5       1.0000 0.95440  0.64190  0.08100  Biso   1.000  N
  N6       1.0000 0.35810  0.95440  0.08100  Biso   1.000  N
  N7       1.0000 0.04560  0.35810  0.08100  Biso   1.000  N
  N8       1.0000 0.64190  0.04560  0.08100  Biso   1.000  N
  N9       1.0000 0.54560  0.85810  0.41900  Biso   1.000  N
  N10      1.0000 0.14190  0.54560  0.41900  Biso   1.000  N
  N11      1.0000 0.45440  0.14190  0.41900  Biso   1.000  N
  N12      1.0000 0.85810  0.45440  0.41900  Biso   1.000  N
  N13      1.0000 0.04560  0.35810  0.91900  Biso   1.000  N
  N14      1.0000 0.64190  0.04560  0.91900  Biso   1.000  N
  N15      1.0000 0.95440  0.64190  0.91900  Biso   1.000  N
  N16      1.0000 0.35810  0.95440  0.91900  Biso   1.000  N
  N17      1.0000 0.42240  0.11650  0.57110  Biso   1.000  N
  N18      1.0000 0.88350  0.42240  0.57110  Biso   1.000  N
  N19      1.0000 0.57760  0.88350  0.57110  Biso   1.000  N
  N20      1.0000 0.11650  0.57760  0.57110  Biso   1.000  N
  N21      1.0000 0.92240  0.61650  0.07110  Biso   1.000  N
  N22      1.0000 0.38350  0.92240  0.07110  Biso   1.000  N
  N23      1.0000 0.07760  0.38350  0.07110  Biso   1.000  N
  N24      1.0000 0.61650  0.07760  0.07110  Biso   1.000  N
  N25      1.0000 0.57760  0.88350  0.42890  Biso   1.000  N
  N26      1.0000 0.11650  0.57760  0.42890  Biso   1.000  N
  N27      1.0000 0.42240  0.11650  0.42890  Biso   1.000  N
  N28      1.0000 0.88350  0.42240  0.42890  Biso   1.000  N
  N29      1.0000 0.07760  0.38350  0.92890  Biso   1.000  N
  N30      1.0000 0.61650  0.07760  0.92890  Biso   1.000  N
  N31      1.0000 0.92240  0.61650  0.92890  Biso   1.000  N
  N32      1.0000 0.38350  0.92240  0.92890  Biso   1.000  N
  N33      1.0000 0.39100  0.11810  0.59180  Biso   1.000  N
  N34      1.0000 0.88190  0.39100  0.59180  Biso   1.000  N
  N35      1.0000 0.60900  0.88190  0.59180  Biso   1.000  N
  N36      1.0000 0.11810  0.60900  0.59180  Biso   1.000  N
  N37      1.0000 0.89100  0.61810  0.09180  Biso   1.000  N
  N38      1.0000 0.38190  0.89100  0.09180  Biso   1.000  N
  N39      1.0000 0.10900  0.38190  0.09180  Biso   1.000  N
  N40      1.0000 0.61810  0.10900  0.09180  Biso   1.000  N
  N41      1.0000 0.60900  0.88190  0.40820  Biso   1.000  N
  N42      1.0000 0.11810  0.60900  0.40820  Biso   1.000  N
  N43      1.0000 0.39100  0.11810  0.40820  Biso   1.000  N
  N44      1.0000 0.88190  0.39100  0.40820  Biso   1.000  N
  N45      1.0000 0.10900  0.38190  0.90820  Biso   1.000  N
  N46      1.0000 0.61810  0.10900  0.90820  Biso   1.000  N
  N47      1.0000 0.89100  0.61810  0.90820  Biso   1.000  N
  N48      1.0000 0.38190  0.89100  0.90820  Biso   1.000  N
  C241     1.0000 0.48820  0.27560  0.71495  Biso   1.000  C
  C242     1.0000 0.72440  0.48820  0.71495  Biso   1.000  C
  C243     1.0000 0.51180  0.72440  0.71495  Biso   1.000  C
  C244     1.0000 0.27560  0.51180  0.71495  Biso   1.000  C
  C245     1.0000 0.98820  0.77560  0.21495  Biso   1.000  C
  C246     1.0000 0.22440  0.98820  0.21495  Biso   1.000  C
  C247     1.0000 0.01180  0.22440  0.21495  Biso   1.000  C
  C248     1.0000 0.77560  0.01180  0.21495  Biso   1.000  C
  C249     1.0000 0.51180  0.72440  0.28505  Biso   1.000  C
  C250     1.0000 0.27560  0.51180  0.28505  Biso   1.000  C
  C251     1.0000 0.48820  0.27560  0.28505  Biso   1.000  C
  C252     1.0000 0.72440  0.48820  0.28505  Biso   1.000  C
  C253     1.0000 0.01180  0.22440  0.78505  Biso   1.000  C
  C254     1.0000 0.77560  0.01180  0.78505  Biso   1.000  C
  C255     1.0000 0.98820  0.77560  0.78505  Biso   1.000  C
  C256     1.0000 0.22440  0.98820  0.78505  Biso   1.000  C
  H113     1.0000 0.51860  0.27660  0.71750  Biso   1.000  H
  H114     1.0000 0.72340  0.51860  0.71750  Biso   1.000  H
  H115     1.0000 0.48140  0.72340  0.71750  Biso   1.000  H
  H116     1.0000 0.27660  0.48140  0.71750  Biso   1.000  H
  H117     1.0000 0.01860  0.77660  0.21750  Biso   1.000  H
  H118     1.0000 0.22340  0.01860  0.21750  Biso   1.000  H
  H119     1.0000 0.98140  0.22340  0.21750  Biso   1.000  H
  H120     1.0000 0.77660  0.98140  0.21750  Biso   1.000  H
  H121     1.0000 0.48140  0.72340  0.28250  Biso   1.000  H
  H122     1.0000 0.27660  0.48140  0.28250  Biso   1.000  H
  H123     1.0000 0.51860  0.27660  0.28250  Biso   1.000  H
  H124     1.0000 0.72340  0.51860  0.28250  Biso   1.000  H
  H125     1.0000 0.98140  0.22340  0.78250  Biso   1.000  H
  H126     1.0000 0.77660  0.98140  0.78250  Biso   1.000  H
  H127     1.0000 0.01860  0.77660  0.78250  Biso   1.000  H
  H128     1.0000 0.22340  0.01860  0.78250  Biso   1.000  H
  C257     1.0000 0.46670  0.25920  0.69145  Biso   1.000  C
  C258     1.0000 0.74080  0.46670  0.69145  Biso   1.000  C
  C259     1.0000 0.53330  0.74080  0.69145  Biso   1.000  C
  C260     1.0000 0.25920  0.53330  0.69145  Biso   1.000  C
  C261     1.0000 0.96670  0.75920  0.19145  Biso   1.000  C
  C262     1.0000 0.24080  0.96670  0.19145  Biso   1.000  C
  C263     1.0000 0.03330  0.24080  0.19145  Biso   1.000  C
  C264     1.0000 0.75920  0.03330  0.19145  Biso   1.000  C
  C265     1.0000 0.53330  0.74080  0.30855  Biso   1.000  C
  C266     1.0000 0.25920  0.53330  0.30855  Biso   1.000  C
  C267     1.0000 0.46670  0.25920  0.30855  Biso   1.000  C
  C268     1.0000 0.74080  0.46670  0.30855  Biso   1.000  C
  C269     1.0000 0.03330  0.24080  0.80855  Biso   1.000  C
  C270     1.0000 0.75920  0.03330  0.80855  Biso   1.000  C
  C271     1.0000 0.96670  0.75920  0.80855  Biso   1.000  C
  C272     1.0000 0.24080  0.96670  0.80855  Biso   1.000  C
  N49      1.0000 0.42400  0.26430  0.69660  Biso   1.000  N
  N50      1.0000 0.73570  0.42400  0.69660  Biso   1.000  N
  N51      1.0000 0.57600  0.73570  0.69660  Biso   1.000  N
  N52      1.0000 0.26430  0.57600  0.69660  Biso   1.000  N
  N53      1.0000 0.92400  0.76430  0.19660  Biso   1.000  N
  N54      1.0000 0.23570  0.92400  0.19660  Biso   1.000  N
  N55      1.0000 0.07600  0.23570  0.19660  Biso   1.000  N
  N56      1.0000 0.76430  0.07600  0.19660  Biso   1.000  N
  N57      1.0000 0.57600  0.73570  0.30340  Biso   1.000  N
  N58      1.0000 0.26430  0.57600  0.30340  Biso   1.000  N
  N59      1.0000 0.42400  0.26430  0.30340  Biso   1.000  N
  N60      1.0000 0.73570  0.42400  0.30340  Biso   1.000  N
  N61      1.0000 0.07600  0.23570  0.80340  Biso   1.000  N
  N62      1.0000 0.76430  0.07600  0.80340  Biso   1.000  N
  N63      1.0000 0.92400  0.76430  0.80340  Biso   1.000  N
  N64      1.0000 0.23570  0.92400  0.80340  Biso   1.000  N
  N65      1.0000 0.41820  0.28400  0.72316  Biso   1.000  N
  N66      1.0000 0.71600  0.41820  0.72316  Biso   1.000  N
  N67      1.0000 0.58180  0.71600  0.72316  Biso   1.000  N
  N68      1.0000 0.28400  0.58180  0.72316  Biso   1.000  N
  N69      1.0000 0.91820  0.78400  0.22316  Biso   1.000  N
  N70      1.0000 0.21600  0.91820  0.22316  Biso   1.000  N
  N71      1.0000 0.08180  0.21600  0.22316  Biso   1.000  N
  N72      1.0000 0.78400  0.08180  0.22316  Biso   1.000  N
  N73      1.0000 0.58180  0.71600  0.27684  Biso   1.000  N
  N74      1.0000 0.28400  0.58180  0.27684  Biso   1.000  N
  N75      1.0000 0.41820  0.28400  0.27684  Biso   1.000  N
  N76      1.0000 0.71600  0.41820  0.27684  Biso   1.000  N
  N77      1.0000 0.08180  0.21600  0.77684  Biso   1.000  N
  N78      1.0000 0.78400  0.08180  0.77684  Biso   1.000  N
  N79      1.0000 0.91820  0.78400  0.77684  Biso   1.000  N
  N80      1.0000 0.21600  0.91820  0.77684  Biso   1.000  N
  N81      1.0000 0.45810  0.29050  0.73415  Biso   1.000  N
  N82      1.0000 0.70950  0.45810  0.73415  Biso   1.000  N
  N83      1.0000 0.54190  0.70950  0.73415  Biso   1.000  N
  N84      1.0000 0.29050  0.54190  0.73415  Biso   1.000  N
  N85      1.0000 0.95810  0.79050  0.23415  Biso   1.000  N
  N86      1.0000 0.20950  0.95810  0.23415  Biso   1.000  N
  N87      1.0000 0.04190  0.20950  0.23415  Biso   1.000  N
  N88      1.0000 0.79050  0.04190  0.23415  Biso   1.000  N
  N89      1.0000 0.54190  0.70950  0.26585  Biso   1.000  N
  N90      1.0000 0.29050  0.54190  0.26585  Biso   1.000  N
  N91      1.0000 0.45810  0.29050  0.26585  Biso   1.000  N
  N92      1.0000 0.70950  0.45810  0.26585  Biso   1.000  N
  N93      1.0000 0.04190  0.20950  0.76585  Biso   1.000  N
  N94      1.0000 0.79050  0.04190  0.76585  Biso   1.000  N
  N95      1.0000 0.95810  0.79050  0.76585  Biso   1.000  N
  N96      1.0000 0.20950  0.95810  0.76585  Biso   1.000  N
  C273     1.0000 0.61310  0.19160  0.60928  Biso   1.000  C
  C274     1.0000 0.80840  0.61310  0.60928  Biso   1.000  C
  C275     1.0000 0.38690  0.80840  0.60928  Biso   1.000  C
  C276     1.0000 0.19160  0.38690  0.60928  Biso   1.000  C
  C277     1.0000 0.11310  0.69160  0.10928  Biso   1.000  C
  C278     1.0000 0.30840  0.11310  0.10928  Biso   1.000  C
  C279     1.0000 0.88690  0.30840  0.10928  Biso   1.000  C
  C280     1.0000 0.69160  0.88690  0.10928  Biso   1.000  C
  C281     1.0000 0.38690  0.80840  0.39072  Biso   1.000  C
  C282     1.0000 0.19160  0.38690  0.39072  Biso   1.000  C
  C283     1.0000 0.61310  0.19160  0.39072  Biso   1.000  C
  C284     1.0000 0.80840  0.61310  0.39072  Biso   1.000  C
  C285     1.0000 0.88690  0.30840  0.89072  Biso   1.000  C
  C286     1.0000 0.69160  0.88690  0.89072  Biso   1.000  C
  C287     1.0000 0.11310  0.69160  0.89072  Biso   1.000  C
  C288     1.0000 0.30840  0.11310  0.89072  Biso   1.000  C
  H129     1.0000 0.60320  0.16620  0.59960  Biso   1.000  H
  H130     1.0000 0.83380  0.60320  0.59960  Biso   1.000  H
  H131     1.0000 0.39680  0.83380  0.59960  Biso   1.000  H
  H132     1.0000 0.16620  0.39680  0.59960  Biso   1.000  H
  H133     1.0000 0.10320  0.66620  0.09960  Biso   1.000  H
  H134     1.0000 0.33380  0.10320  0.09960  Biso   1.000  H
  H135     1.0000 0.89680  0.33380  0.09960  Biso   1.000  H
  H136     1.0000 0.66620  0.89680  0.09960  Biso   1.000  H
  H137     1.0000 0.39680  0.83380  0.40040  Biso   1.000  H
  H138     1.0000 0.16620  0.39680  0.40040  Biso   1.000  H
  H139     1.0000 0.60320  0.16620  0.40040  Biso   1.000  H
  H140     1.0000 0.83380  0.60320  0.40040  Biso   1.000  H
  H141     1.0000 0.89680  0.33380  0.90040  Biso   1.000  H
  H142     1.0000 0.66620  0.89680  0.90040  Biso   1.000  H
  H143     1.0000 0.10320  0.66620  0.90040  Biso   1.000  H
  H144     1.0000 0.33380  0.10320  0.90040  Biso   1.000  H
  C289     1.0000 0.58880  0.22080  0.62557  Biso   1.000  C
  C290     1.0000 0.77920  0.58880  0.62557  Biso   1.000  C
  C291     1.0000 0.41120  0.77920  0.62557  Biso   1.000  C
  C292     1.0000 0.22080  0.41120  0.62557  Biso   1.000  C
  C293     1.0000 0.08880  0.72080  0.12557  Biso   1.000  C
  C294     1.0000 0.27920  0.08880  0.12557  Biso   1.000  C
  C295     1.0000 0.91120  0.27920  0.12557  Biso   1.000  C
  C296     1.0000 0.72080  0.91120  0.12557  Biso   1.000  C
  C297     1.0000 0.41120  0.77920  0.37443  Biso   1.000  C
  C298     1.0000 0.22080  0.41120  0.37443  Biso   1.000  C
  C299     1.0000 0.58880  0.22080  0.37443  Biso   1.000  C
  C300     1.0000 0.77920  0.58880  0.37443  Biso   1.000  C
  C301     1.0000 0.91120  0.27920  0.87443  Biso   1.000  C
  C302     1.0000 0.72080  0.91120  0.87443  Biso   1.000  C
  C303     1.0000 0.08880  0.72080  0.87443  Biso   1.000  C
  C304     1.0000 0.27920  0.08880  0.87443  Biso   1.000  C
  N97      1.0000 0.65390  0.20730  0.61030  Biso   1.000  N
  N98      1.0000 0.79270  0.65390  0.61030  Biso   1.000  N
  N99      1.0000 0.34610  0.79270  0.61030  Biso   1.000  N
  N100     1.0000 0.20730  0.34610  0.61030  Biso   1.000  N
  N101     1.0000 0.15390  0.70730  0.11030  Biso   1.000  N
  N102     1.0000 0.29270  0.15390  0.11030  Biso   1.000  N
  N103     1.0000 0.84610  0.29270  0.11030  Biso   1.000  N
  N104     1.0000 0.70730  0.84610  0.11030  Biso   1.000  N
  N105     1.0000 0.34610  0.79270  0.38970  Biso   1.000  N
  N106     1.0000 0.20730  0.34610  0.38970  Biso   1.000  N
  N107     1.0000 0.65390  0.20730  0.38970  Biso   1.000  N
  N108     1.0000 0.79270  0.65390  0.38970  Biso   1.000  N
  N109     1.0000 0.84610  0.29270  0.88970  Biso   1.000  N
  N110     1.0000 0.70730  0.84610  0.88970  Biso   1.000  N
  N111     1.0000 0.15390  0.70730  0.88970  Biso   1.000  N
  N112     1.0000 0.29270  0.15390  0.88970  Biso   1.000  N
  N113     1.0000 0.65500  0.24410  0.62630  Biso   1.000  N
  N114     1.0000 0.75590  0.65500  0.62630  Biso   1.000  N
  N115     1.0000 0.34500  0.75590  0.62630  Biso   1.000  N
  N116     1.0000 0.24410  0.34500  0.62630  Biso   1.000  N
  N117     1.0000 0.15500  0.74410  0.12630  Biso   1.000  N
  N118     1.0000 0.25590  0.15500  0.12630  Biso   1.000  N
  N119     1.0000 0.84500  0.25590  0.12630  Biso   1.000  N
  N120     1.0000 0.74410  0.84500  0.12630  Biso   1.000  N
  N121     1.0000 0.34500  0.75590  0.37370  Biso   1.000  N
  N122     1.0000 0.24410  0.34500  0.37370  Biso   1.000  N
  N123     1.0000 0.65500  0.24410  0.37370  Biso   1.000  N
  N124     1.0000 0.75590  0.65500  0.37370  Biso   1.000  N
  N125     1.0000 0.84500  0.25590  0.87370  Biso   1.000  N
  N126     1.0000 0.74410  0.84500  0.87370  Biso   1.000  N
  N127     1.0000 0.15500  0.74410  0.87370  Biso   1.000  N
  N128     1.0000 0.25590  0.15500  0.87370  Biso   1.000  N
  N129     1.0000 0.61580  0.25200  0.63533  Biso   1.000  N
  N130     1.0000 0.74800  0.61580  0.63533  Biso   1.000  N
  N131     1.0000 0.38420  0.74800  0.63533  Biso   1.000  N
  N132     1.0000 0.25200  0.38420  0.63533  Biso   1.000  N
  N133     1.0000 0.11580  0.75200  0.13533  Biso   1.000  N
  N134     1.0000 0.24800  0.11580  0.13533  Biso   1.000  N
  N135     1.0000 0.88420  0.24800  0.13533  Biso   1.000  N
  N136     1.0000 0.75200  0.88420  0.13533  Biso   1.000  N
  N137     1.0000 0.38420  0.74800  0.36467  Biso   1.000  N
  N138     1.0000 0.25200  0.38420  0.36467  Biso   1.000  N
  N139     1.0000 0.61580  0.25200  0.36467  Biso   1.000  N
  N140     1.0000 0.74800  0.61580  0.36467  Biso   1.000  N
  N141     1.0000 0.88420  0.24800  0.86467  Biso   1.000  N
  N142     1.0000 0.75200  0.88420  0.86467  Biso   1.000  N
  N143     1.0000 0.11580  0.75200  0.86467  Biso   1.000  N
  N144     1.0000 0.24800  0.11580  0.86467  Biso   1.000  N
  C305     1.0000 0.35268  0.08770  0.59110  Biso   1.000  C
  C306     1.0000 0.91230  0.35268  0.59110  Biso   1.000  C
  C307     1.0000 0.64732  0.91230  0.59110  Biso   1.000  C
  C308     1.0000 0.08770  0.64732  0.59110  Biso   1.000  C
  C309     1.0000 0.85268  0.58770  0.09110  Biso   1.000  C
  C310     1.0000 0.41230  0.85268  0.09110  Biso   1.000  C
  C311     1.0000 0.14732  0.41230  0.09110  Biso   1.000  C
  C312     1.0000 0.58770  0.14732  0.09110  Biso   1.000  C
  C313     1.0000 0.64732  0.91230  0.40890  Biso   1.000  C
  C314     1.0000 0.08770  0.64732  0.40890  Biso   1.000  C
  C315     1.0000 0.35268  0.08770  0.40890  Biso   1.000  C
  C316     1.0000 0.91230  0.35268  0.40890  Biso   1.000  C
  C317     1.0000 0.14732  0.41230  0.90890  Biso   1.000  C
  C318     1.0000 0.58770  0.14732  0.90890  Biso   1.000  C
  C319     1.0000 0.85268  0.58770  0.90890  Biso   1.000  C
  C320     1.0000 0.41230  0.85268  0.90890  Biso   1.000  C
  C321     1.0000 0.31741  0.10058  0.60824  Biso   1.000  C
  C322     1.0000 0.89942  0.31741  0.60824  Biso   1.000  C
  C323     1.0000 0.68259  0.89942  0.60824  Biso   1.000  C
  C324     1.0000 0.10058  0.68259  0.60824  Biso   1.000  C
  C325     1.0000 0.81741  0.60058  0.10824  Biso   1.000  C
  C326     1.0000 0.39942  0.81741  0.10824  Biso   1.000  C
  C327     1.0000 0.18259  0.39942  0.10824  Biso   1.000  C
  C328     1.0000 0.60058  0.18259  0.10824  Biso   1.000  C
  C329     1.0000 0.68259  0.89942  0.39176  Biso   1.000  C
  C330     1.0000 0.10058  0.68259  0.39176  Biso   1.000  C
  C331     1.0000 0.31741  0.10058  0.39176  Biso   1.000  C
  C332     1.0000 0.89942  0.31741  0.39176  Biso   1.000  C
  C333     1.0000 0.18259  0.39942  0.89176  Biso   1.000  C
  C334     1.0000 0.60058  0.18259  0.89176  Biso   1.000  C
  C335     1.0000 0.81741  0.60058  0.89176  Biso   1.000  C
  C336     1.0000 0.39942  0.81741  0.89176  Biso   1.000  C
  H145     1.0000 0.32070  0.12140  0.62360  Biso   1.000  H
  H146     1.0000 0.87860  0.32070  0.62360  Biso   1.000  H
  H147     1.0000 0.67930  0.87860  0.62360  Biso   1.000  H
  H148     1.0000 0.12140  0.67930  0.62360  Biso   1.000  H
  H149     1.0000 0.82070  0.62140  0.12360  Biso   1.000  H
  H150     1.0000 0.37860  0.82070  0.12360  Biso   1.000  H
  H151     1.0000 0.17930  0.37860  0.12360  Biso   1.000  H
  H152     1.0000 0.62140  0.17930  0.12360  Biso   1.000  H
  H153     1.0000 0.67930  0.87860  0.37640  Biso   1.000  H
  H154     1.0000 0.12140  0.67930  0.37640  Biso   1.000  H
  H155     1.0000 0.32070  0.12140  0.37640  Biso   1.000  H
  H156     1.0000 0.87860  0.32070  0.37640  Biso   1.000  H
  H157     1.0000 0.17930  0.37860  0.87640  Biso   1.000  H
  H158     1.0000 0.62140  0.17930  0.87640  Biso   1.000  H
  H159     1.0000 0.82070  0.62140  0.87640  Biso   1.000  H
  H160     1.0000 0.37860  0.82070  0.87640  Biso   1.000  H
  C337     1.0000 0.27713  0.08219  0.60229  Biso   1.000  C
  C338     1.0000 0.91781  0.27713  0.60229  Biso   1.000  C
  C339     1.0000 0.72287  0.91781  0.60229  Biso   1.000  C
  C340     1.0000 0.08219  0.72287  0.60229  Biso   1.000  C
  C341     1.0000 0.77713  0.58219  0.10229  Biso   1.000  C
  C342     1.0000 0.41781  0.77713  0.10229  Biso   1.000  C
  C343     1.0000 0.22287  0.41781  0.10229  Biso   1.000  C
  C344     1.0000 0.58219  0.22287  0.10229  Biso   1.000  C
  C345     1.0000 0.72287  0.91781  0.39771  Biso   1.000  C
  C346     1.0000 0.08219  0.72287  0.39771  Biso   1.000  C
  C347     1.0000 0.27713  0.08219  0.39771  Biso   1.000  C
  C348     1.0000 0.91781  0.27713  0.39771  Biso   1.000  C
  C349     1.0000 0.22287  0.41781  0.89771  Biso   1.000  C
  C350     1.0000 0.58219  0.22287  0.89771  Biso   1.000  C
  C351     1.0000 0.77713  0.58219  0.89771  Biso   1.000  C
  C352     1.0000 0.41781  0.77713  0.89771  Biso   1.000  C
  C353     1.0000 0.27266  0.05254  0.57929  Biso   1.000  C
  C354     1.0000 0.94746  0.27266  0.57929  Biso   1.000  C
  C355     1.0000 0.72734  0.94746  0.57929  Biso   1.000  C
  C356     1.0000 0.05254  0.72734  0.57929  Biso   1.000  C
  C357     1.0000 0.77266  0.55254  0.07929  Biso   1.000  C
  C358     1.0000 0.44746  0.77266  0.07929  Biso   1.000  C
  C359     1.0000 0.22734  0.44746  0.07929  Biso   1.000  C
  C360     1.0000 0.55254  0.22734  0.07929  Biso   1.000  C
  C361     1.0000 0.72734  0.94746  0.42071  Biso   1.000  C
  C362     1.0000 0.05254  0.72734  0.42071  Biso   1.000  C
  C363     1.0000 0.27266  0.05254  0.42071  Biso   1.000  C
  C364     1.0000 0.94746  0.27266  0.42071  Biso   1.000  C
  C365     1.0000 0.22734  0.44746  0.92071  Biso   1.000  C
  C366     1.0000 0.55254  0.22734  0.92071  Biso   1.000  C
  C367     1.0000 0.77266  0.55254  0.92071  Biso   1.000  C
  C368     1.0000 0.44746  0.77266  0.92071  Biso   1.000  C
  H161     1.0000 0.24500  0.04110  0.57460  Biso   1.000  H
  H162     1.0000 0.95890  0.24500  0.57460  Biso   1.000  H
  H163     1.0000 0.75500  0.95890  0.57460  Biso   1.000  H
  H164     1.0000 0.04110  0.75500  0.57460  Biso   1.000  H
  H165     1.0000 0.74500  0.54110  0.07460  Biso   1.000  H
  H166     1.0000 0.45890  0.74500  0.07460  Biso   1.000  H
  H167     1.0000 0.25500  0.45890  0.07460  Biso   1.000  H
  H168     1.0000 0.54110  0.25500  0.07460  Biso   1.000  H
  H169     1.0000 0.75500  0.95890  0.42540  Biso   1.000  H
  H170     1.0000 0.04110  0.75500  0.42540  Biso   1.000  H
  H171     1.0000 0.24500  0.04110  0.42540  Biso   1.000  H
  H172     1.0000 0.95890  0.24500  0.42540  Biso   1.000  H
  H173     1.0000 0.25500  0.45890  0.92540  Biso   1.000  H
  H174     1.0000 0.54110  0.25500  0.92540  Biso   1.000  H
  H175     1.0000 0.74500  0.54110  0.92540  Biso   1.000  H
  H176     1.0000 0.45890  0.74500  0.92540  Biso   1.000  H
  C369     1.0000 0.30908  0.03951  0.56308  Biso   1.000  C
  C370     1.0000 0.96049  0.30908  0.56308  Biso   1.000  C
  C371     1.0000 0.69092  0.96049  0.56308  Biso   1.000  C
  C372     1.0000 0.03951  0.69092  0.56308  Biso   1.000  C
  C373     1.0000 0.80908  0.53951  0.06308  Biso   1.000  C
  C374     1.0000 0.46049  0.80908  0.06308  Biso   1.000  C
  C375     1.0000 0.19092  0.46049  0.06308  Biso   1.000  C
  C376     1.0000 0.53951  0.19092  0.06308  Biso   1.000  C
  C377     1.0000 0.69092  0.96049  0.43692  Biso   1.000  C
  C378     1.0000 0.03951  0.69092  0.43692  Biso   1.000  C
  C379     1.0000 0.30908  0.03951  0.43692  Biso   1.000  C
  C380     1.0000 0.96049  0.30908  0.43692  Biso   1.000  C
  C381     1.0000 0.19092  0.46049  0.93692  Biso   1.000  C
  C382     1.0000 0.53951  0.19092  0.93692  Biso   1.000  C
  C383     1.0000 0.80908  0.53951  0.93692  Biso   1.000  C
  C384     1.0000 0.46049  0.80908  0.93692  Biso   1.000  C
  C385     1.0000 0.34908  0.05779  0.56904  Biso   1.000  C
  C386     1.0000 0.94221  0.34908  0.56904  Biso   1.000  C
  C387     1.0000 0.65092  0.94221  0.56904  Biso   1.000  C
  C388     1.0000 0.05779  0.65092  0.56904  Biso   1.000  C
  C389     1.0000 0.84908  0.55779  0.06904  Biso   1.000  C
  C390     1.0000 0.44221  0.84908  0.06904  Biso   1.000  C
  C391     1.0000 0.15092  0.44221  0.06904  Biso   1.000  C
  C392     1.0000 0.55779  0.15092  0.06904  Biso   1.000  C
  C393     1.0000 0.65092  0.94221  0.43096  Biso   1.000  C
  C394     1.0000 0.05779  0.65092  0.43096  Biso   1.000  C
  C395     1.0000 0.34908  0.05779  0.43096  Biso   1.000  C
  C396     1.0000 0.94221  0.34908  0.43096  Biso   1.000  C
  C397     1.0000 0.15092  0.44221  0.93096  Biso   1.000  C
  C398     1.0000 0.55779  0.15092  0.93096  Biso   1.000  C
  C399     1.0000 0.84908  0.55779  0.93096  Biso   1.000  C
  C400     1.0000 0.44221  0.84908  0.93096  Biso   1.000  C
  H177     1.0000 0.37380  0.04950  0.55780  Biso   1.000  H
  H178     1.0000 0.95050  0.37380  0.55780  Biso   1.000  H
  H179     1.0000 0.62620  0.95050  0.55780  Biso   1.000  H
  H180     1.0000 0.04950  0.62620  0.55780  Biso   1.000  H
  H181     1.0000 0.87380  0.54950  0.05780  Biso   1.000  H
  H182     1.0000 0.45050  0.87380  0.05780  Biso   1.000  H
  H183     1.0000 0.12620  0.45050  0.05780  Biso   1.000  H
  H184     1.0000 0.54950  0.12620  0.05780  Biso   1.000  H
  H185     1.0000 0.62620  0.95050  0.44220  Biso   1.000  H
  H186     1.0000 0.04950  0.62620  0.44220  Biso   1.000  H
  H187     1.0000 0.37380  0.04950  0.44220  Biso   1.000  H
  H188     1.0000 0.95050  0.37380  0.44220  Biso   1.000  H
  H189     1.0000 0.12620  0.45050  0.94220  Biso   1.000  H
  H190     1.0000 0.54950  0.12620  0.94220  Biso   1.000  H
  H191     1.0000 0.87380  0.54950  0.94220  Biso   1.000  H
  H192     1.0000 0.45050  0.87380  0.94220  Biso   1.000  H
  C401     1.0000 0.23886  0.09557  0.61989  Biso   1.000  C
  C402     1.0000 0.90443  0.23886  0.61989  Biso   1.000  C
  C403     1.0000 0.76114  0.90443  0.61989  Biso   1.000  C
  C404     1.0000 0.09557  0.76114  0.61989  Biso   1.000  C
  C405     1.0000 0.73886  0.59557  0.11989  Biso   1.000  C
  C406     1.0000 0.40443  0.73886  0.11989  Biso   1.000  C
  C407     1.0000 0.26114  0.40443  0.11989  Biso   1.000  C
  C408     1.0000 0.59557  0.26114  0.11989  Biso   1.000  C
  C409     1.0000 0.76114  0.90443  0.38011  Biso   1.000  C
  C410     1.0000 0.09557  0.76114  0.38011  Biso   1.000  C
  C411     1.0000 0.23886  0.09557  0.38011  Biso   1.000  C
  C412     1.0000 0.90443  0.23886  0.38011  Biso   1.000  C
  C413     1.0000 0.26114  0.40443  0.88011  Biso   1.000  C
  C414     1.0000 0.59557  0.26114  0.88011  Biso   1.000  C
  C415     1.0000 0.73886  0.59557  0.88011  Biso   1.000  C
  C416     1.0000 0.40443  0.73886  0.88011  Biso   1.000  C
  C417     1.0000 0.76457  0.14188  0.57873  Biso   1.000  C
  C418     1.0000 0.85812  0.76457  0.57873  Biso   1.000  C
  C419     1.0000 0.23543  0.85812  0.57873  Biso   1.000  C
  C420     1.0000 0.14188  0.23543  0.57873  Biso   1.000  C
  C421     1.0000 0.26457  0.64188  0.07873  Biso   1.000  C
  C422     1.0000 0.35812  0.26457  0.07873  Biso   1.000  C
  C423     1.0000 0.73543  0.35812  0.07873  Biso   1.000  C
  C424     1.0000 0.64188  0.73543  0.07873  Biso   1.000  C
  C425     1.0000 0.23543  0.85812  0.42127  Biso   1.000  C
  C426     1.0000 0.14188  0.23543  0.42127  Biso   1.000  C
  C427     1.0000 0.76457  0.14188  0.42127  Biso   1.000  C
  C428     1.0000 0.85812  0.76457  0.42127  Biso   1.000  C
  C429     1.0000 0.73543  0.35812  0.92127  Biso   1.000  C
  C430     1.0000 0.64188  0.73543  0.92127  Biso   1.000  C
  C431     1.0000 0.26457  0.64188  0.92127  Biso   1.000  C
  C432     1.0000 0.35812  0.26457  0.92127  Biso   1.000  C
  H193     1.0000 0.78950  0.12850  0.57050  Biso   1.000  H
  H194     1.0000 0.87150  0.78950  0.57050  Biso   1.000  H
  H195     1.0000 0.21050  0.87150  0.57050  Biso   1.000  H
  H196     1.0000 0.12850  0.21050  0.57050  Biso   1.000  H
  H197     1.0000 0.28950  0.62850  0.07050  Biso   1.000  H
  H198     1.0000 0.37150  0.28950  0.07050  Biso   1.000  H
  H199     1.0000 0.71050  0.37150  0.07050  Biso   1.000  H
  H200     1.0000 0.62850  0.71050  0.07050  Biso   1.000  H
  H201     1.0000 0.21050  0.87150  0.42950  Biso   1.000  H
  H202     1.0000 0.12850  0.21050  0.42950  Biso   1.000  H
  H203     1.0000 0.78950  0.12850  0.42950  Biso   1.000  H
  H204     1.0000 0.87150  0.78950  0.42950  Biso   1.000  H
  H205     1.0000 0.71050  0.37150  0.92950  Biso   1.000  H
  H206     1.0000 0.62850  0.71050  0.92950  Biso   1.000  H
  H207     1.0000 0.28950  0.62850  0.92950  Biso   1.000  H
  H208     1.0000 0.37150  0.28950  0.92950  Biso   1.000  H
  C433     1.0000 0.76822  0.16764  0.60404  Biso   1.000  C
  C434     1.0000 0.83236  0.76822  0.60404  Biso   1.000  C
  C435     1.0000 0.23178  0.83236  0.60404  Biso   1.000  C
  C436     1.0000 0.16764  0.23178  0.60404  Biso   1.000  C
  C437     1.0000 0.26822  0.66764  0.10404  Biso   1.000  C
  C438     1.0000 0.33236  0.26822  0.10404  Biso   1.000  C
  C439     1.0000 0.73178  0.33236  0.10404  Biso   1.000  C
  C440     1.0000 0.66764  0.73178  0.10404  Biso   1.000  C
  C441     1.0000 0.23178  0.83236  0.39596  Biso   1.000  C
  C442     1.0000 0.16764  0.23178  0.39596  Biso   1.000  C
  C443     1.0000 0.76822  0.16764  0.39596  Biso   1.000  C
  C444     1.0000 0.83236  0.76822  0.39596  Biso   1.000  C
  C445     1.0000 0.73178  0.33236  0.89596  Biso   1.000  C
  C446     1.0000 0.66764  0.73178  0.89596  Biso   1.000  C
  C447     1.0000 0.26822  0.66764  0.89596  Biso   1.000  C
  C448     1.0000 0.33236  0.26822  0.89596  Biso   1.000  C
  C449     1.0000 0.73179  0.18814  0.61613  Biso   1.000  C
  C450     1.0000 0.81186  0.73179  0.61613  Biso   1.000  C
  C451     1.0000 0.26821  0.81186  0.61613  Biso   1.000  C
  C452     1.0000 0.18814  0.26821  0.61613  Biso   1.000  C
  C453     1.0000 0.23179  0.68814  0.11613  Biso   1.000  C
  C454     1.0000 0.31186  0.23179  0.11613  Biso   1.000  C
  C455     1.0000 0.76821  0.31186  0.11613  Biso   1.000  C
  C456     1.0000 0.68814  0.76821  0.11613  Biso   1.000  C
  C457     1.0000 0.26821  0.81186  0.38387  Biso   1.000  C
  C458     1.0000 0.18814  0.26821  0.38387  Biso   1.000  C
  C459     1.0000 0.73179  0.18814  0.38387  Biso   1.000  C
  C460     1.0000 0.81186  0.73179  0.38387  Biso   1.000  C
  C461     1.0000 0.76821  0.31186  0.88387  Biso   1.000  C
  C462     1.0000 0.68814  0.76821  0.88387  Biso   1.000  C
  C463     1.0000 0.23179  0.68814  0.88387  Biso   1.000  C
  C464     1.0000 0.31186  0.23179  0.88387  Biso   1.000  C
  H209     1.0000 0.73420  0.20550  0.63340  Biso   1.000  H
  H210     1.0000 0.79450  0.73420  0.63340  Biso   1.000  H
  H211     1.0000 0.26580  0.79450  0.63340  Biso   1.000  H
  H212     1.0000 0.20550  0.26580  0.63340  Biso   1.000  H
  H213     1.0000 0.23420  0.70550  0.13340  Biso   1.000  H
  H214     1.0000 0.29450  0.23420  0.13340  Biso   1.000  H
  H215     1.0000 0.76580  0.29450  0.13340  Biso   1.000  H
  H216     1.0000 0.70550  0.76580  0.13340  Biso   1.000  H
  H217     1.0000 0.26580  0.79450  0.36660  Biso   1.000  H
  H218     1.0000 0.20550  0.26580  0.36660  Biso   1.000  H
  H219     1.0000 0.73420  0.20550  0.36660  Biso   1.000  H
  H220     1.0000 0.79450  0.73420  0.36660  Biso   1.000  H
  H221     1.0000 0.76580  0.29450  0.86660  Biso   1.000  H
  H222     1.0000 0.70550  0.76580  0.86660  Biso   1.000  H
  H223     1.0000 0.23420  0.70550  0.86660  Biso   1.000  H
  H224     1.0000 0.29450  0.23420  0.86660  Biso   1.000  H
  C465     1.0000 0.69200  0.18247  0.60221  Biso   1.000  C
  C466     1.0000 0.81753  0.69200  0.60221  Biso   1.000  C
  C467     1.0000 0.30800  0.81753  0.60221  Biso   1.000  C
  C468     1.0000 0.18247  0.30800  0.60221  Biso   1.000  C
  C469     1.0000 0.19200  0.68247  0.10221  Biso   1.000  C
  C470     1.0000 0.31753  0.19200  0.10221  Biso   1.000  C
  C471     1.0000 0.80800  0.31753  0.10221  Biso   1.000  C
  C472     1.0000 0.68247  0.80800  0.10221  Biso   1.000  C
  C473     1.0000 0.30800  0.81753  0.39779  Biso   1.000  C
  C474     1.0000 0.18247  0.30800  0.39779  Biso   1.000  C
  C475     1.0000 0.69200  0.18247  0.39779  Biso   1.000  C
  C476     1.0000 0.81753  0.69200  0.39779  Biso   1.000  C
  C477     1.0000 0.80800  0.31753  0.89779  Biso   1.000  C
  C478     1.0000 0.68247  0.80800  0.89779  Biso   1.000  C
  C479     1.0000 0.19200  0.68247  0.89779  Biso   1.000  C
  C480     1.0000 0.31753  0.19200  0.89779  Biso   1.000  C
  C481     1.0000 0.68775  0.15606  0.57700  Biso   1.000  C
  C482     1.0000 0.84394  0.68775  0.57700  Biso   1.000  C
  C483     1.0000 0.31225  0.84394  0.57700  Biso   1.000  C
  C484     1.0000 0.15606  0.31225  0.57700  Biso   1.000  C
  C485     1.0000 0.18775  0.65606  0.07700  Biso   1.000  C
  C486     1.0000 0.34394  0.18775  0.07700  Biso   1.000  C
  C487     1.0000 0.81225  0.34394  0.07700  Biso   1.000  C
  C488     1.0000 0.65606  0.81225  0.07700  Biso   1.000  C
  C489     1.0000 0.31225  0.84394  0.42300  Biso   1.000  C
  C490     1.0000 0.15606  0.31225  0.42300  Biso   1.000  C
  C491     1.0000 0.68775  0.15606  0.42300  Biso   1.000  C
  C492     1.0000 0.84394  0.68775  0.42300  Biso   1.000  C
  C493     1.0000 0.81225  0.34394  0.92300  Biso   1.000  C
  C494     1.0000 0.65606  0.81225  0.92300  Biso   1.000  C
  C495     1.0000 0.18775  0.65606  0.92300  Biso   1.000  C
  C496     1.0000 0.34394  0.18775  0.92300  Biso   1.000  C
  H225     1.0000 0.66030  0.15210  0.56790  Biso   1.000  H
  H226     1.0000 0.84790  0.66030  0.56790  Biso   1.000  H
  H227     1.0000 0.33970  0.84790  0.56790  Biso   1.000  H
  H228     1.0000 0.15210  0.33970  0.56790  Biso   1.000  H
  H229     1.0000 0.16030  0.65210  0.06790  Biso   1.000  H
  H230     1.0000 0.34790  0.16030  0.06790  Biso   1.000  H
  H231     1.0000 0.83970  0.34790  0.06790  Biso   1.000  H
  H232     1.0000 0.65210  0.83970  0.06790  Biso   1.000  H
  H233     1.0000 0.33970  0.84790  0.43210  Biso   1.000  H
  H234     1.0000 0.15210  0.33970  0.43210  Biso   1.000  H
  H235     1.0000 0.66030  0.15210  0.43210  Biso   1.000  H
  H236     1.0000 0.84790  0.66030  0.43210  Biso   1.000  H
  H237     1.0000 0.83970  0.34790  0.93210  Biso   1.000  H
  H238     1.0000 0.65210  0.83970  0.93210  Biso   1.000  H
  H239     1.0000 0.16030  0.65210  0.93210  Biso   1.000  H
  H240     1.0000 0.34790  0.16030  0.93210  Biso   1.000  H
  C497     1.0000 0.72421  0.13584  0.56557  Biso   1.000  C
  C498     1.0000 0.86416  0.72421  0.56557  Biso   1.000  C
  C499     1.0000 0.27579  0.86416  0.56557  Biso   1.000  C
  C500     1.0000 0.13584  0.27579  0.56557  Biso   1.000  C
  C501     1.0000 0.22421  0.63584  0.06557  Biso   1.000  C
  C502     1.0000 0.36416  0.22421  0.06557  Biso   1.000  C
  C503     1.0000 0.77579  0.36416  0.06557  Biso   1.000  C
  C504     1.0000 0.63584  0.77579  0.06557  Biso   1.000  C
  C505     1.0000 0.27579  0.86416  0.43443  Biso   1.000  C
  C506     1.0000 0.13584  0.27579  0.43443  Biso   1.000  C
  C507     1.0000 0.72421  0.13584  0.43443  Biso   1.000  C
  C508     1.0000 0.86416  0.72421  0.43443  Biso   1.000  C
  C509     1.0000 0.77579  0.36416  0.93443  Biso   1.000  C
  C510     1.0000 0.63584  0.77579  0.93443  Biso   1.000  C
  C511     1.0000 0.22421  0.63584  0.93443  Biso   1.000  C
  C512     1.0000 0.36416  0.22421  0.93443  Biso   1.000  C
  C513     1.0000 0.81054  0.17154  0.61970  Biso   1.000  C
  C514     1.0000 0.82846  0.81054  0.61970  Biso   1.000  C
  C515     1.0000 0.18946  0.82846  0.61970  Biso   1.000  C
  C516     1.0000 0.17154  0.18946  0.61970  Biso   1.000  C
  C517     1.0000 0.31054  0.67154  0.11970  Biso   1.000  C
  C518     1.0000 0.32846  0.31054  0.11970  Biso   1.000  C
  C519     1.0000 0.68946  0.32846  0.11970  Biso   1.000  C
  C520     1.0000 0.67154  0.68946  0.11970  Biso   1.000  C
  C521     1.0000 0.18946  0.82846  0.38030  Biso   1.000  C
  C522     1.0000 0.17154  0.18946  0.38030  Biso   1.000  C
  C523     1.0000 0.81054  0.17154  0.38030  Biso   1.000  C
  C524     1.0000 0.82846  0.81054  0.38030  Biso   1.000  C
  C525     1.0000 0.68946  0.32846  0.88030  Biso   1.000  C
  C526     1.0000 0.67154  0.68946  0.88030  Biso   1.000  C
  C527     1.0000 0.31054  0.67154  0.88030  Biso   1.000  C
  C528     1.0000 0.32846  0.31054  0.88030  Biso   1.000  C
  C529     1.0000 0.71919  0.10550  0.54009  Biso   1.000  C
  C530     1.0000 0.89450  0.71919  0.54009  Biso   1.000  C
  C531     1.0000 0.28081  0.89450  0.54009  Biso   1.000  C
  C532     1.0000 0.10550  0.28081  0.54009  Biso   1.000  C
  C533     1.0000 0.21919  0.60550  0.04009  Biso   1.000  C
  C534     1.0000 0.39450  0.21919  0.04009  Biso   1.000  C
  C535     1.0000 0.78081  0.39450  0.04009  Biso   1.000  C
  C536     1.0000 0.60550  0.78081  0.04009  Biso   1.000  C
  C537     1.0000 0.28081  0.89450  0.45991  Biso   1.000  C
  C538     1.0000 0.10550  0.28081  0.45991  Biso   1.000  C
  C539     1.0000 0.71919  0.10550  0.45991  Biso   1.000  C
  C540     1.0000 0.89450  0.71919  0.45991  Biso   1.000  C
  C541     1.0000 0.78081  0.39450  0.95991  Biso   1.000  C
  C542     1.0000 0.60550  0.78081  0.95991  Biso   1.000  C
  C543     1.0000 0.21919  0.60550  0.95991  Biso   1.000  C
  C544     1.0000 0.39450  0.21919  0.95991  Biso   1.000  C
  C545     1.0000 0.30344  0.00557  0.53898  Biso   1.000  C
  C546     1.0000 0.99443  0.30344  0.53898  Biso   1.000  C
  C547     1.0000 0.69656  0.99443  0.53898  Biso   1.000  C
  C548     1.0000 0.00557  0.69656  0.53898  Biso   1.000  C
  C549     1.0000 0.80344  0.50557  0.03898  Biso   1.000  C
  C550     1.0000 0.49443  0.80344  0.03898  Biso   1.000  C
  C551     1.0000 0.19656  0.49443  0.03898  Biso   1.000  C
  C552     1.0000 0.50557  0.19656  0.03898  Biso   1.000  C
  C553     1.0000 0.69656  0.99443  0.46102  Biso   1.000  C
  C554     1.0000 0.00557  0.69656  0.46102  Biso   1.000  C
  C555     1.0000 0.30344  0.00557  0.46102  Biso   1.000  C
  C556     1.0000 0.99443  0.30344  0.46102  Biso   1.000  C
  C557     1.0000 0.19656  0.49443  0.96102  Biso   1.000  C
  C558     1.0000 0.50557  0.19656  0.96102  Biso   1.000  C
  C559     1.0000 0.80344  0.50557  0.96102  Biso   1.000  C
  C560     1.0000 0.49443  0.80344  0.96102  Biso   1.000  C
  C561     1.0000 0.39210  0.35443  0.82399  Biso   1.000  C
  C562     1.0000 0.64557  0.39210  0.82399  Biso   1.000  C
  C563     1.0000 0.60790  0.64557  0.82399  Biso   1.000  C
  C564     1.0000 0.35443  0.60790  0.82399  Biso   1.000  C
  C565     1.0000 0.89210  0.85443  0.32399  Biso   1.000  C
  C566     1.0000 0.14557  0.89210  0.32399  Biso   1.000  C
  C567     1.0000 0.10790  0.14557  0.32399  Biso   1.000  C
  C568     1.0000 0.85443  0.10790  0.32399  Biso   1.000  C
  C569     1.0000 0.60790  0.64557  0.17601  Biso   1.000  C
  C570     1.0000 0.35443  0.60790  0.17601  Biso   1.000  C
  C571     1.0000 0.39210  0.35443  0.17601  Biso   1.000  C
  C572     1.0000 0.64557  0.39210  0.17601  Biso   1.000  C
  C573     1.0000 0.10790  0.14557  0.67601  Biso   1.000  C
  C574     1.0000 0.85443  0.10790  0.67601  Biso   1.000  C
  C575     1.0000 0.89210  0.85443  0.67601  Biso   1.000  C
  C576     1.0000 0.14557  0.89210  0.67601  Biso   1.000  C
  C577     1.0000 0.48530  0.21570  0.67542  Biso   1.000  C
  C578     1.0000 0.78430  0.48530  0.67542  Biso   1.000  C
  C579     1.0000 0.51470  0.78430  0.67542  Biso   1.000  C
  C580     1.0000 0.21570  0.51470  0.67542  Biso   1.000  C
  C581     1.0000 0.98530  0.71570  0.17542  Biso   1.000  C
  C582     1.0000 0.28430  0.98530  0.17542  Biso   1.000  C
  C583     1.0000 0.01470  0.28430  0.17542  Biso   1.000  C
  C584     1.0000 0.71570  0.01470  0.17542  Biso   1.000  C
  C585     1.0000 0.51470  0.78430  0.32458  Biso   1.000  C
  C586     1.0000 0.21570  0.51470  0.32458  Biso   1.000  C
  C587     1.0000 0.48530  0.21570  0.32458  Biso   1.000  C
  C588     1.0000 0.78430  0.48530  0.32458  Biso   1.000  C
  C589     1.0000 0.01470  0.28430  0.82458  Biso   1.000  C
  C590     1.0000 0.71570  0.01470  0.82458  Biso   1.000  C
  C591     1.0000 0.98530  0.71570  0.82458  Biso   1.000  C
  C592     1.0000 0.28430  0.98530  0.82458  Biso   1.000  C
  C593     1.0000 0.52810  0.22140  0.66763  Biso   1.000  C
  C594     1.0000 0.77860  0.52810  0.66763  Biso   1.000  C
  C595     1.0000 0.47190  0.77860  0.66763  Biso   1.000  C
  C596     1.0000 0.22140  0.47190  0.66763  Biso   1.000  C
  C597     1.0000 0.02810  0.72140  0.16763  Biso   1.000  C
  C598     1.0000 0.27860  0.02810  0.16763  Biso   1.000  C
  C599     1.0000 0.97190  0.27860  0.16763  Biso   1.000  C
  C600     1.0000 0.72140  0.97190  0.16763  Biso   1.000  C
  C601     1.0000 0.47190  0.77860  0.33237  Biso   1.000  C
  C602     1.0000 0.22140  0.47190  0.33237  Biso   1.000  C
  C603     1.0000 0.52810  0.22140  0.33237  Biso   1.000  C
  C604     1.0000 0.77860  0.52810  0.33237  Biso   1.000  C
  C605     1.0000 0.97190  0.27860  0.83237  Biso   1.000  C
  C606     1.0000 0.72140  0.97190  0.83237  Biso   1.000  C
  C607     1.0000 0.02810  0.72140  0.83237  Biso   1.000  C
  C608     1.0000 0.27860  0.02810  0.83237  Biso   1.000  C
  H241     1.0000 0.54600  0.24080  0.67850  Biso   1.000  H
  H242     1.0000 0.75920  0.54600  0.67850  Biso   1.000  H
  H243     1.0000 0.45400  0.75920  0.67850  Biso   1.000  H
  H244     1.0000 0.24080  0.45400  0.67850  Biso   1.000  H
  H245     1.0000 0.04600  0.74080  0.17850  Biso   1.000  H
  H246     1.0000 0.25920  0.04600  0.17850  Biso   1.000  H
  H247     1.0000 0.95400  0.25920  0.17850  Biso   1.000  H
  H248     1.0000 0.74080  0.95400  0.17850  Biso   1.000  H
  H249     1.0000 0.45400  0.75920  0.32150  Biso   1.000  H
  H250     1.0000 0.24080  0.45400  0.32150  Biso   1.000  H
  H251     1.0000 0.54600  0.24080  0.32150  Biso   1.000  H
  H252     1.0000 0.75920  0.54600  0.32150  Biso   1.000  H
  H253     1.0000 0.95400  0.25920  0.82150  Biso   1.000  H
  H254     1.0000 0.74080  0.95400  0.82150  Biso   1.000  H
  H255     1.0000 0.04600  0.74080  0.82150  Biso   1.000  H
  H256     1.0000 0.25920  0.04600  0.82150  Biso   1.000  H
  C609     1.0000 0.54490  0.19820  0.64363  Biso   1.000  C
  C610     1.0000 0.80180  0.54490  0.64363  Biso   1.000  C
  C611     1.0000 0.45510  0.80180  0.64363  Biso   1.000  C
  C612     1.0000 0.19820  0.45510  0.64363  Biso   1.000  C
  C613     1.0000 0.04490  0.69820  0.14363  Biso   1.000  C
  C614     1.0000 0.30180  0.04490  0.14363  Biso   1.000  C
  C615     1.0000 0.95510  0.30180  0.14363  Biso   1.000  C
  C616     1.0000 0.69820  0.95510  0.14363  Biso   1.000  C
  C617     1.0000 0.45510  0.80180  0.35637  Biso   1.000  C
  C618     1.0000 0.19820  0.45510  0.35637  Biso   1.000  C
  C619     1.0000 0.54490  0.19820  0.35637  Biso   1.000  C
  C620     1.0000 0.80180  0.54490  0.35637  Biso   1.000  C
  C621     1.0000 0.95510  0.30180  0.85637  Biso   1.000  C
  C622     1.0000 0.69820  0.95510  0.85637  Biso   1.000  C
  C623     1.0000 0.04490  0.69820  0.85637  Biso   1.000  C
  C624     1.0000 0.30180  0.04490  0.85637  Biso   1.000  C
  C625     1.0000 0.51780  0.16960  0.62770  Biso   1.000  C
  C626     1.0000 0.83040  0.51780  0.62770  Biso   1.000  C
  C627     1.0000 0.48220  0.83040  0.62770  Biso   1.000  C
  C628     1.0000 0.16960  0.48220  0.62770  Biso   1.000  C
  C629     1.0000 0.01780  0.66960  0.12770  Biso   1.000  C
  C630     1.0000 0.33040  0.01780  0.12770  Biso   1.000  C
  C631     1.0000 0.98220  0.33040  0.12770  Biso   1.000  C
  C632     1.0000 0.66960  0.98220  0.12770  Biso   1.000  C
  C633     1.0000 0.48220  0.83040  0.37230  Biso   1.000  C
  C634     1.0000 0.16960  0.48220  0.37230  Biso   1.000  C
  C635     1.0000 0.51780  0.16960  0.37230  Biso   1.000  C
  C636     1.0000 0.83040  0.51780  0.37230  Biso   1.000  C
  C637     1.0000 0.98220  0.33040  0.87230  Biso   1.000  C
  C638     1.0000 0.66960  0.98220  0.87230  Biso   1.000  C
  C639     1.0000 0.01780  0.66960  0.87230  Biso   1.000  C
  C640     1.0000 0.33040  0.01780  0.87230  Biso   1.000  C
  H257     1.0000 0.52910  0.15420  0.61130  Biso   1.000  H
  H258     1.0000 0.84580  0.52910  0.61130  Biso   1.000  H
  H259     1.0000 0.47090  0.84580  0.61130  Biso   1.000  H
  H260     1.0000 0.15420  0.47090  0.61130  Biso   1.000  H
  H261     1.0000 0.02910  0.65420  0.11130  Biso   1.000  H
  H262     1.0000 0.34580  0.02910  0.11130  Biso   1.000  H
  H263     1.0000 0.97090  0.34580  0.11130  Biso   1.000  H
  H264     1.0000 0.65420  0.97090  0.11130  Biso   1.000  H
  H265     1.0000 0.47090  0.84580  0.38870  Biso   1.000  H
  H266     1.0000 0.15420  0.47090  0.38870  Biso   1.000  H
  H267     1.0000 0.52910  0.15420  0.38870  Biso   1.000  H
  H268     1.0000 0.84580  0.52910  0.38870  Biso   1.000  H
  H269     1.0000 0.97090  0.34580  0.88870  Biso   1.000  H
  H270     1.0000 0.65420  0.97090  0.88870  Biso   1.000  H
  H271     1.0000 0.02910  0.65420  0.88870  Biso   1.000  H
  H272     1.0000 0.34580  0.02910  0.88870  Biso   1.000  H
  C641     1.0000 0.47600  0.16410  0.63570  Biso   1.000  C
  C642     1.0000 0.83590  0.47600  0.63570  Biso   1.000  C
  C643     1.0000 0.52400  0.83590  0.63570  Biso   1.000  C
  C644     1.0000 0.16410  0.52400  0.63570  Biso   1.000  C
  C645     1.0000 0.97600  0.66410  0.13570  Biso   1.000  C
  C646     1.0000 0.33590  0.97600  0.13570  Biso   1.000  C
  C647     1.0000 0.02400  0.33590  0.13570  Biso   1.000  C
  C648     1.0000 0.66410  0.02400  0.13570  Biso   1.000  C
  C649     1.0000 0.52400  0.83590  0.36430  Biso   1.000  C
  C650     1.0000 0.16410  0.52400  0.36430  Biso   1.000  C
  C651     1.0000 0.47600  0.16410  0.36430  Biso   1.000  C
  C652     1.0000 0.83590  0.47600  0.36430  Biso   1.000  C
  C653     1.0000 0.02400  0.33590  0.86430  Biso   1.000  C
  C654     1.0000 0.66410  0.02400  0.86430  Biso   1.000  C
  C655     1.0000 0.97600  0.66410  0.86430  Biso   1.000  C
  C656     1.0000 0.33590  0.97600  0.86430  Biso   1.000  C
  C657     1.0000 0.45960  0.18730  0.65950  Biso   1.000  C
  C658     1.0000 0.81270  0.45960  0.65950  Biso   1.000  C
  C659     1.0000 0.54040  0.81270  0.65950  Biso   1.000  C
  C660     1.0000 0.18730  0.54040  0.65950  Biso   1.000  C
  C661     1.0000 0.95960  0.68730  0.15950  Biso   1.000  C
  C662     1.0000 0.31270  0.95960  0.15950  Biso   1.000  C
  C663     1.0000 0.04040  0.31270  0.15950  Biso   1.000  C
  C664     1.0000 0.68730  0.04040  0.15950  Biso   1.000  C
  C665     1.0000 0.54040  0.81270  0.34050  Biso   1.000  C
  C666     1.0000 0.18730  0.54040  0.34050  Biso   1.000  C
  C667     1.0000 0.45960  0.18730  0.34050  Biso   1.000  C
  C668     1.0000 0.81270  0.45960  0.34050  Biso   1.000  C
  C669     1.0000 0.04040  0.31270  0.84050  Biso   1.000  C
  C670     1.0000 0.68730  0.04040  0.84050  Biso   1.000  C
  C671     1.0000 0.95960  0.68730  0.84050  Biso   1.000  C
  C672     1.0000 0.31270  0.95960  0.84050  Biso   1.000  C
  H273     1.0000 0.43020  0.18370  0.66500  Biso   1.000  H
  H274     1.0000 0.81630  0.43020  0.66500  Biso   1.000  H
  H275     1.0000 0.56980  0.81630  0.66500  Biso   1.000  H
  H276     1.0000 0.18370  0.56980  0.66500  Biso   1.000  H
  H277     1.0000 0.93020  0.68370  0.16500  Biso   1.000  H
  H278     1.0000 0.31630  0.93020  0.16500  Biso   1.000  H
  H279     1.0000 0.06980  0.31630  0.16500  Biso   1.000  H
  H280     1.0000 0.68370  0.06980  0.16500  Biso   1.000  H
  H281     1.0000 0.56980  0.81630  0.33500  Biso   1.000  H
  H282     1.0000 0.18370  0.56980  0.33500  Biso   1.000  H
  H283     1.0000 0.43020  0.18370  0.33500  Biso   1.000  H
  H284     1.0000 0.81630  0.43020  0.33500  Biso   1.000  H
  H285     1.0000 0.06980  0.31630  0.83500  Biso   1.000  H
  H286     1.0000 0.68370  0.06980  0.83500  Biso   1.000  H
  H287     1.0000 0.93020  0.68370  0.83500  Biso   1.000  H
  H288     1.0000 0.31630  0.93020  0.83500  Biso   1.000  H
  C673     1.0000 0.44780  0.13830  0.61790  Biso   1.000  C
  C674     1.0000 0.86170  0.44780  0.61790  Biso   1.000  C
  C675     1.0000 0.55220  0.86170  0.61790  Biso   1.000  C
  C676     1.0000 0.13830  0.55220  0.61790  Biso   1.000  C
  C677     1.0000 0.94780  0.63830  0.11790  Biso   1.000  C
  C678     1.0000 0.36170  0.94780  0.11790  Biso   1.000  C
  C679     1.0000 0.05220  0.36170  0.11790  Biso   1.000  C
  C680     1.0000 0.63830  0.05220  0.11790  Biso   1.000  C
  C681     1.0000 0.55220  0.86170  0.38210  Biso   1.000  C
  C682     1.0000 0.13830  0.55220  0.38210  Biso   1.000  C
  C683     1.0000 0.44780  0.13830  0.38210  Biso   1.000  C
  C684     1.0000 0.86170  0.44780  0.38210  Biso   1.000  C
  C685     1.0000 0.05220  0.36170  0.88210  Biso   1.000  C
  C686     1.0000 0.63830  0.05220  0.88210  Biso   1.000  C
  C687     1.0000 0.94780  0.63830  0.88210  Biso   1.000  C
  C688     1.0000 0.36170  0.94780  0.88210  Biso   1.000  C
  C689     1.0000 0.40470  0.12710  0.62256  Biso   1.000  C
  C690     1.0000 0.87290  0.40470  0.62256  Biso   1.000  C
  C691     1.0000 0.59530  0.87290  0.62256  Biso   1.000  C
  C692     1.0000 0.12710  0.59530  0.62256  Biso   1.000  C
  C693     1.0000 0.90470  0.62710  0.12256  Biso   1.000  C
  C694     1.0000 0.37290  0.90470  0.12256  Biso   1.000  C
  C695     1.0000 0.09530  0.37290  0.12256  Biso   1.000  C
  C696     1.0000 0.62710  0.09530  0.12256  Biso   1.000  C
  C697     1.0000 0.59530  0.87290  0.37744  Biso   1.000  C
  C698     1.0000 0.12710  0.59530  0.37744  Biso   1.000  C
  C699     1.0000 0.40470  0.12710  0.37744  Biso   1.000  C
  C700     1.0000 0.87290  0.40470  0.37744  Biso   1.000  C
  C701     1.0000 0.09530  0.37290  0.87744  Biso   1.000  C
  C702     1.0000 0.62710  0.09530  0.87744  Biso   1.000  C
  C703     1.0000 0.90470  0.62710  0.87744  Biso   1.000  C
  C704     1.0000 0.37290  0.90470  0.87744  Biso   1.000  C
  H289     1.0000 0.38630  0.13820  0.63760  Biso   1.000  H
  H290     1.0000 0.86180  0.38630  0.63760  Biso   1.000  H
  H291     1.0000 0.61370  0.86180  0.63760  Biso   1.000  H
  H292     1.0000 0.13820  0.61370  0.63760  Biso   1.000  H
  H293     1.0000 0.88630  0.63820  0.13760  Biso   1.000  H
  H294     1.0000 0.36180  0.88630  0.13760  Biso   1.000  H
  H295     1.0000 0.11370  0.36180  0.13760  Biso   1.000  H
  H296     1.0000 0.63820  0.11370  0.13760  Biso   1.000  H
  H297     1.0000 0.61370  0.86180  0.36240  Biso   1.000  H
  H298     1.0000 0.13820  0.61370  0.36240  Biso   1.000  H
  H299     1.0000 0.38630  0.13820  0.36240  Biso   1.000  H
  H300     1.0000 0.86180  0.38630  0.36240  Biso   1.000  H
  H301     1.0000 0.11370  0.36180  0.86240  Biso   1.000  H
  H302     1.0000 0.63820  0.11370  0.86240  Biso   1.000  H
  H303     1.0000 0.88630  0.63820  0.86240  Biso   1.000  H
  H304     1.0000 0.36180  0.88630  0.86240  Biso   1.000  H
  N145     1.0000 0.46270  0.11550  0.59440  Biso   1.000  N
  N146     1.0000 0.88450  0.46270  0.59440  Biso   1.000  N
  N147     1.0000 0.53730  0.88450  0.59440  Biso   1.000  N
  N148     1.0000 0.11550  0.53730  0.59440  Biso   1.000  N
  N149     1.0000 0.96270  0.61550  0.09440  Biso   1.000  N
  N150     1.0000 0.38450  0.96270  0.09440  Biso   1.000  N
  N151     1.0000 0.03730  0.38450  0.09440  Biso   1.000  N
  N152     1.0000 0.61550  0.03730  0.09440  Biso   1.000  N
  N153     1.0000 0.53730  0.88450  0.40560  Biso   1.000  N
  N154     1.0000 0.11550  0.53730  0.40560  Biso   1.000  N
  N155     1.0000 0.46270  0.11550  0.40560  Biso   1.000  N
  N156     1.0000 0.88450  0.46270  0.40560  Biso   1.000  N
  N157     1.0000 0.03730  0.38450  0.90560  Biso   1.000  N
  N158     1.0000 0.61550  0.03730  0.90560  Biso   1.000  N
  N159     1.0000 0.96270  0.61550  0.90560  Biso   1.000  N
  N160     1.0000 0.38450  0.96270  0.90560  Biso   1.000  N
  N161     1.0000 0.43020  0.08990  0.58400  Biso   1.000  N
  N162     1.0000 0.91010  0.43020  0.58400  Biso   1.000  N
  N163     1.0000 0.56980  0.91010  0.58400  Biso   1.000  N
  N164     1.0000 0.08990  0.56980  0.58400  Biso   1.000  N
  N165     1.0000 0.93020  0.58990  0.08400  Biso   1.000  N
  N166     1.0000 0.41010  0.93020  0.08400  Biso   1.000  N
  N167     1.0000 0.06980  0.41010  0.08400  Biso   1.000  N
  N168     1.0000 0.58990  0.06980  0.08400  Biso   1.000  N
  N169     1.0000 0.56980  0.91010  0.41600  Biso   1.000  N
  N170     1.0000 0.08990  0.56980  0.41600  Biso   1.000  N
  N171     1.0000 0.43020  0.08990  0.41600  Biso   1.000  N
  N172     1.0000 0.91010  0.43020  0.41600  Biso   1.000  N
  N173     1.0000 0.06980  0.41010  0.91600  Biso   1.000  N
  N174     1.0000 0.58990  0.06980  0.91600  Biso   1.000  N
  N175     1.0000 0.93020  0.58990  0.91600  Biso   1.000  N
  N176     1.0000 0.41010  0.93020  0.91600  Biso   1.000  N
  N177     1.0000 0.39420  0.09790  0.60193  Biso   1.000  N
  N178     1.0000 0.90210  0.39420  0.60193  Biso   1.000  N
  N179     1.0000 0.60580  0.90210  0.60193  Biso   1.000  N
  N180     1.0000 0.09790  0.60580  0.60193  Biso   1.000  N
  N181     1.0000 0.89420  0.59790  0.10193  Biso   1.000  N
  N182     1.0000 0.40210  0.89420  0.10193  Biso   1.000  N
  N183     1.0000 0.10580  0.40210  0.10193  Biso   1.000  N
  N184     1.0000 0.59790  0.10580  0.10193  Biso   1.000  N
  N185     1.0000 0.60580  0.90210  0.39807  Biso   1.000  N
  N186     1.0000 0.09790  0.60580  0.39807  Biso   1.000  N
  N187     1.0000 0.39420  0.09790  0.39807  Biso   1.000  N
  N188     1.0000 0.90210  0.39420  0.39807  Biso   1.000  N
  N189     1.0000 0.10580  0.40210  0.89807  Biso   1.000  N
  N190     1.0000 0.59790  0.10580  0.89807  Biso   1.000  N
  N191     1.0000 0.89420  0.59790  0.89807  Biso   1.000  N
  N192     1.0000 0.40210  0.89420  0.89807  Biso   1.000  N
  C705     1.0000 0.49020  0.25920  0.72343  Biso   1.000  C
  C706     1.0000 0.74080  0.49020  0.72343  Biso   1.000  C
  C707     1.0000 0.50980  0.74080  0.72343  Biso   1.000  C
  C708     1.0000 0.25920  0.50980  0.72343  Biso   1.000  C
  C709     1.0000 0.99020  0.75920  0.22343  Biso   1.000  C
  C710     1.0000 0.24080  0.99020  0.22343  Biso   1.000  C
  C711     1.0000 0.00980  0.24080  0.22343  Biso   1.000  C
  C712     1.0000 0.75920  0.00980  0.22343  Biso   1.000  C
  C713     1.0000 0.50980  0.74080  0.27657  Biso   1.000  C
  C714     1.0000 0.25920  0.50980  0.27657  Biso   1.000  C
  C715     1.0000 0.49020  0.25920  0.27657  Biso   1.000  C
  C716     1.0000 0.74080  0.49020  0.27657  Biso   1.000  C
  C717     1.0000 0.00980  0.24080  0.77657  Biso   1.000  C
  C718     1.0000 0.75920  0.00980  0.77657  Biso   1.000  C
  C719     1.0000 0.99020  0.75920  0.77657  Biso   1.000  C
  C720     1.0000 0.24080  0.99020  0.77657  Biso   1.000  C
  H305     1.0000 0.52040  0.26480  0.72450  Biso   1.000  H
  H306     1.0000 0.73520  0.52040  0.72450  Biso   1.000  H
  H307     1.0000 0.47960  0.73520  0.72450  Biso   1.000  H
  H308     1.0000 0.26480  0.47960  0.72450  Biso   1.000  H
  H309     1.0000 0.02040  0.76480  0.22450  Biso   1.000  H
  H310     1.0000 0.23520  0.02040  0.22450  Biso   1.000  H
  H311     1.0000 0.97960  0.23520  0.22450  Biso   1.000  H
  H312     1.0000 0.76480  0.97960  0.22450  Biso   1.000  H
  H313     1.0000 0.47960  0.73520  0.27550  Biso   1.000  H
  H314     1.0000 0.26480  0.47960  0.27550  Biso   1.000  H
  H315     1.0000 0.52040  0.26480  0.27550  Biso   1.000  H
  H316     1.0000 0.73520  0.52040  0.27550  Biso   1.000  H
  H317     1.0000 0.97960  0.23520  0.77550  Biso   1.000  H
  H318     1.0000 0.76480  0.97960  0.77550  Biso   1.000  H
  H319     1.0000 0.02040  0.76480  0.77550  Biso   1.000  H
  H320     1.0000 0.23520  0.02040  0.77550  Biso   1.000  H
  C721     1.0000 0.46810  0.23800  0.70150  Biso   1.000  C
  C722     1.0000 0.76200  0.46810  0.70150  Biso   1.000  C
  C723     1.0000 0.53190  0.76200  0.70150  Biso   1.000  C
  C724     1.0000 0.23800  0.53190  0.70150  Biso   1.000  C
  C725     1.0000 0.96810  0.73800  0.20150  Biso   1.000  C
  C726     1.0000 0.26200  0.96810  0.20150  Biso   1.000  C
  C727     1.0000 0.03190  0.26200  0.20150  Biso   1.000  C
  C728     1.0000 0.73800  0.03190  0.20150  Biso   1.000  C
  C729     1.0000 0.53190  0.76200  0.29850  Biso   1.000  C
  C730     1.0000 0.23800  0.53190  0.29850  Biso   1.000  C
  C731     1.0000 0.46810  0.23800  0.29850  Biso   1.000  C
  C732     1.0000 0.76200  0.46810  0.29850  Biso   1.000  C
  C733     1.0000 0.03190  0.26200  0.79850  Biso   1.000  C
  C734     1.0000 0.73800  0.03190  0.79850  Biso   1.000  C
  C735     1.0000 0.96810  0.73800  0.79850  Biso   1.000  C
  C736     1.0000 0.26200  0.96810  0.79850  Biso   1.000  C
  N193     1.0000 0.42500  0.23620  0.70799  Biso   1.000  N
  N194     1.0000 0.76380  0.42500  0.70799  Biso   1.000  N
  N195     1.0000 0.57500  0.76380  0.70799  Biso   1.000  N
  N196     1.0000 0.23620  0.57500  0.70799  Biso   1.000  N
  N197     1.0000 0.92500  0.73620  0.20799  Biso   1.000  N
  N198     1.0000 0.26380  0.92500  0.20799  Biso   1.000  N
  N199     1.0000 0.07500  0.26380  0.20799  Biso   1.000  N
  N200     1.0000 0.73620  0.07500  0.20799  Biso   1.000  N
  N201     1.0000 0.57500  0.76380  0.29201  Biso   1.000  N
  N202     1.0000 0.23620  0.57500  0.29201  Biso   1.000  N
  N203     1.0000 0.42500  0.23620  0.29201  Biso   1.000  N
  N204     1.0000 0.76380  0.42500  0.29201  Biso   1.000  N
  N205     1.0000 0.07500  0.26380  0.79201  Biso   1.000  N
  N206     1.0000 0.73620  0.07500  0.79201  Biso   1.000  N
  N207     1.0000 0.92500  0.73620  0.79201  Biso   1.000  N
  N208     1.0000 0.26380  0.92500  0.79201  Biso   1.000  N
  N209     1.0000 0.41980  0.25670  0.73440  Biso   1.000  N
  N210     1.0000 0.74330  0.41980  0.73440  Biso   1.000  N
  N211     1.0000 0.58020  0.74330  0.73440  Biso   1.000  N
  N212     1.0000 0.25670  0.58020  0.73440  Biso   1.000  N
  N213     1.0000 0.91980  0.75670  0.23440  Biso   1.000  N
  N214     1.0000 0.24330  0.91980  0.23440  Biso   1.000  N
  N215     1.0000 0.08020  0.24330  0.23440  Biso   1.000  N
  N216     1.0000 0.75670  0.08020  0.23440  Biso   1.000  N
  N217     1.0000 0.58020  0.74330  0.26560  Biso   1.000  N
  N218     1.0000 0.25670  0.58020  0.26560  Biso   1.000  N
  N219     1.0000 0.41980  0.25670  0.26560  Biso   1.000  N
  N220     1.0000 0.74330  0.41980  0.26560  Biso   1.000  N
  N221     1.0000 0.08020  0.24330  0.76560  Biso   1.000  N
  N222     1.0000 0.75670  0.08020  0.76560  Biso   1.000  N
  N223     1.0000 0.91980  0.75670  0.76560  Biso   1.000  N
  N224     1.0000 0.24330  0.91980  0.76560  Biso   1.000  N
  N225     1.0000 0.45890  0.27050  0.74337  Biso   1.000  N
  N226     1.0000 0.72950  0.45890  0.74337  Biso   1.000  N
  N227     1.0000 0.54110  0.72950  0.74337  Biso   1.000  N
  N228     1.0000 0.27050  0.54110  0.74337  Biso   1.000  N
  N229     1.0000 0.95890  0.77050  0.24337  Biso   1.000  N
  N230     1.0000 0.22950  0.95890  0.24337  Biso   1.000  N
  N231     1.0000 0.04110  0.22950  0.24337  Biso   1.000  N
  N232     1.0000 0.77050  0.04110  0.24337  Biso   1.000  N
  N233     1.0000 0.54110  0.72950  0.25663  Biso   1.000  N
  N234     1.0000 0.27050  0.54110  0.25663  Biso   1.000  N
  N235     1.0000 0.45890  0.27050  0.25663  Biso   1.000  N
  N236     1.0000 0.72950  0.45890  0.25663  Biso   1.000  N
  N237     1.0000 0.04110  0.22950  0.75663  Biso   1.000  N
  N238     1.0000 0.77050  0.04110  0.75663  Biso   1.000  N
  N239     1.0000 0.95890  0.77050  0.75663  Biso   1.000  N
  N240     1.0000 0.22950  0.95890  0.75663  Biso   1.000  N
  C737     1.0000 0.61510  0.17540  0.61783  Biso   1.000  C
  C738     1.0000 0.82460  0.61510  0.61783  Biso   1.000  C
  C739     1.0000 0.38490  0.82460  0.61783  Biso   1.000  C
  C740     1.0000 0.17540  0.38490  0.61783  Biso   1.000  C
  C741     1.0000 0.11510  0.67540  0.11783  Biso   1.000  C
  C742     1.0000 0.32460  0.11510  0.11783  Biso   1.000  C
  C743     1.0000 0.88490  0.32460  0.11783  Biso   1.000  C
  C744     1.0000 0.67540  0.88490  0.11783  Biso   1.000  C
  C745     1.0000 0.38490  0.82460  0.38217  Biso   1.000  C
  C746     1.0000 0.17540  0.38490  0.38217  Biso   1.000  C
  C747     1.0000 0.61510  0.17540  0.38217  Biso   1.000  C
  C748     1.0000 0.82460  0.61510  0.38217  Biso   1.000  C
  C749     1.0000 0.88490  0.32460  0.88217  Biso   1.000  C
  C750     1.0000 0.67540  0.88490  0.88217  Biso   1.000  C
  C751     1.0000 0.11510  0.67540  0.88217  Biso   1.000  C
  C752     1.0000 0.32460  0.11510  0.88217  Biso   1.000  C
  H321     1.0000 0.60600  0.15070  0.60690  Biso   1.000  H
  H322     1.0000 0.84930  0.60600  0.60690  Biso   1.000  H
  H323     1.0000 0.39400  0.84930  0.60690  Biso   1.000  H
  H324     1.0000 0.15070  0.39400  0.60690  Biso   1.000  H
  H325     1.0000 0.10600  0.65070  0.10690  Biso   1.000  H
  H326     1.0000 0.34930  0.10600  0.10690  Biso   1.000  H
  H327     1.0000 0.89400  0.34930  0.10690  Biso   1.000  H
  H328     1.0000 0.65070  0.89400  0.10690  Biso   1.000  H
  H329     1.0000 0.39400  0.84930  0.39310  Biso   1.000  H
  H330     1.0000 0.15070  0.39400  0.39310  Biso   1.000  H
  H331     1.0000 0.60600  0.15070  0.39310  Biso   1.000  H
  H332     1.0000 0.84930  0.60600  0.39310  Biso   1.000  H
  H333     1.0000 0.89400  0.34930  0.89310  Biso   1.000  H
  H334     1.0000 0.65070  0.89400  0.89310  Biso   1.000  H
  H335     1.0000 0.10600  0.65070  0.89310  Biso   1.000  H
  H336     1.0000 0.34930  0.10600  0.89310  Biso   1.000  H
  C753     1.0000 0.58990  0.20200  0.63606  Biso   1.000  C
  C754     1.0000 0.79800  0.58990  0.63606  Biso   1.000  C
  C755     1.0000 0.41010  0.79800  0.63606  Biso   1.000  C
  C756     1.0000 0.20200  0.41010  0.63606  Biso   1.000  C
  C757     1.0000 0.08990  0.70200  0.13606  Biso   1.000  C
  C758     1.0000 0.29800  0.08990  0.13606  Biso   1.000  C
  C759     1.0000 0.91010  0.29800  0.13606  Biso   1.000  C
  C760     1.0000 0.70200  0.91010  0.13606  Biso   1.000  C
  C761     1.0000 0.41010  0.79800  0.36394  Biso   1.000  C
  C762     1.0000 0.20200  0.41010  0.36394  Biso   1.000  C
  C763     1.0000 0.58990  0.20200  0.36394  Biso   1.000  C
  C764     1.0000 0.79800  0.58990  0.36394  Biso   1.000  C
  C765     1.0000 0.91010  0.29800  0.86394  Biso   1.000  C
  C766     1.0000 0.70200  0.91010  0.86394  Biso   1.000  C
  C767     1.0000 0.08990  0.70200  0.86394  Biso   1.000  C
  C768     1.0000 0.29800  0.08990  0.86394  Biso   1.000  C
  N241     1.0000 0.65480  0.19240  0.61934  Biso   1.000  N
  N242     1.0000 0.80760  0.65480  0.61934  Biso   1.000  N
  N243     1.0000 0.34520  0.80760  0.61934  Biso   1.000  N
  N244     1.0000 0.19240  0.34520  0.61934  Biso   1.000  N
  N245     1.0000 0.15480  0.69240  0.11934  Biso   1.000  N
  N246     1.0000 0.30760  0.15480  0.11934  Biso   1.000  N
  N247     1.0000 0.84520  0.30760  0.11934  Biso   1.000  N
  N248     1.0000 0.69240  0.84520  0.11934  Biso   1.000  N
  N249     1.0000 0.34520  0.80760  0.38066  Biso   1.000  N
  N250     1.0000 0.19240  0.34520  0.38066  Biso   1.000  N
  N251     1.0000 0.65480  0.19240  0.38066  Biso   1.000  N
  N252     1.0000 0.80760  0.65480  0.38066  Biso   1.000  N
  N253     1.0000 0.84520  0.30760  0.88066  Biso   1.000  N
  N254     1.0000 0.69240  0.84520  0.88066  Biso   1.000  N
  N255     1.0000 0.15480  0.69240  0.88066  Biso   1.000  N
  N256     1.0000 0.30760  0.15480  0.88066  Biso   1.000  N
  N257     1.0000 0.65660  0.22810  0.63719  Biso   1.000  N
  N258     1.0000 0.77190  0.65660  0.63719  Biso   1.000  N
  N259     1.0000 0.34340  0.77190  0.63719  Biso   1.000  N
  N260     1.0000 0.22810  0.34340  0.63719  Biso   1.000  N
  N261     1.0000 0.15660  0.72810  0.13719  Biso   1.000  N
  N262     1.0000 0.27190  0.15660  0.13719  Biso   1.000  N
  N263     1.0000 0.84340  0.27190  0.13719  Biso   1.000  N
  N264     1.0000 0.72810  0.84340  0.13719  Biso   1.000  N
  N265     1.0000 0.34340  0.77190  0.36281  Biso   1.000  N
  N266     1.0000 0.22810  0.34340  0.36281  Biso   1.000  N
  N267     1.0000 0.65660  0.22810  0.36281  Biso   1.000  N
  N268     1.0000 0.77190  0.65660  0.36281  Biso   1.000  N
  N269     1.0000 0.84340  0.27190  0.86281  Biso   1.000  N
  N270     1.0000 0.72810  0.84340  0.86281  Biso   1.000  N
  N271     1.0000 0.15660  0.72810  0.86281  Biso   1.000  N
  N272     1.0000 0.27190  0.15660  0.86281  Biso   1.000  N
  N273     1.0000 0.61700  0.23390  0.64755  Biso   1.000  N
  N274     1.0000 0.76610  0.61700  0.64755  Biso   1.000  N
  N275     1.0000 0.38300  0.76610  0.64755  Biso   1.000  N
  N276     1.0000 0.23390  0.38300  0.64755  Biso   1.000  N
  N277     1.0000 0.11700  0.73390  0.14755  Biso   1.000  N
  N278     1.0000 0.26610  0.11700  0.14755  Biso   1.000  N
  N279     1.0000 0.88300  0.26610  0.14755  Biso   1.000  N
  N280     1.0000 0.73390  0.88300  0.14755  Biso   1.000  N
  N281     1.0000 0.38300  0.76610  0.35245  Biso   1.000  N
  N282     1.0000 0.23390  0.38300  0.35245  Biso   1.000  N
  N283     1.0000 0.61700  0.23390  0.35245  Biso   1.000  N
  N284     1.0000 0.76610  0.61700  0.35245  Biso   1.000  N
  N285     1.0000 0.88300  0.26610  0.85245  Biso   1.000  N
  N286     1.0000 0.73390  0.88300  0.85245  Biso   1.000  N
  N287     1.0000 0.11700  0.73390  0.85245  Biso   1.000  N
  N288     1.0000 0.26610  0.11700  0.85245  Biso   1.000  N
