data_image0
_cell_length_a       24.1547
_cell_length_b       24.1547
_cell_length_c       18.6783
_cell_angle_alpha    90
_cell_angle_beta     90
_cell_angle_gamma    90

_symmetry_space_group_name_H-M    "P 1"
_symmetry_int_tables_number       1

loop_
  _symmetry_equiv_pos_as_xyz
  'x, y, z'

loop_
  _atom_site_label
  _atom_site_occupancy
  _atom_site_fract_x
  _atom_site_fract_y
  _atom_site_fract_z
  _atom_site_thermal_displace_type
  _atom_site_B_iso_or_equiv
  _atom_site_type_symbol
  W1       1.0000 0.57467  0.59509  0.10860  Biso   1.000  W
  W2       1.0000 0.40491  0.07467  0.60860  Biso   1.000  W
  W3       1.0000 0.09509  0.42533  0.60860  Biso   1.000  W
  W4       1.0000 0.92533  0.90491  0.10860  Biso   1.000  W
  W5       1.0000 0.42533  0.40491  0.89140  Biso   1.000  W
  W6       1.0000 0.59509  0.92533  0.39140  Biso   1.000  W
  W7       1.0000 0.90491  0.57467  0.39140  Biso   1.000  W
  W8       1.0000 0.07467  0.09509  0.89140  Biso   1.000  W
  W9       1.0000 0.40007  0.54926  0.87574  Biso   1.000  W
  W10      1.0000 0.45074  0.90007  0.37574  Biso   1.000  W
  W11      1.0000 0.04926  0.59993  0.37574  Biso   1.000  W
  W12      1.0000 0.09993  0.95074  0.87574  Biso   1.000  W
  W13      1.0000 0.59993  0.45074  0.12426  Biso   1.000  W
  W14      1.0000 0.54926  0.09993  0.62426  Biso   1.000  W
  W15      1.0000 0.95074  0.40007  0.62426  Biso   1.000  W
  W16      1.0000 0.90007  0.04926  0.12426  Biso   1.000  W
  W17      1.0000 0.60001  0.58918  0.92068  Biso   1.000  W
  W18      1.0000 0.41082  0.10001  0.42068  Biso   1.000  W
  W19      1.0000 0.08918  0.39999  0.42068  Biso   1.000  W
  W20      1.0000 0.89999  0.91082  0.92068  Biso   1.000  W
  W21      1.0000 0.39999  0.41082  0.07932  Biso   1.000  W
  W22      1.0000 0.58918  0.89999  0.57932  Biso   1.000  W
  W23      1.0000 0.91082  0.60001  0.57932  Biso   1.000  W
  W24      1.0000 0.10001  0.08918  0.07932  Biso   1.000  W
  W25      1.0000 0.47307  0.64390  0.98682  Biso   1.000  W
  W26      1.0000 0.35610  0.97307  0.48682  Biso   1.000  W
  W27      1.0000 0.14390  0.52693  0.48682  Biso   1.000  W
  W28      1.0000 0.02693  0.85610  0.98682  Biso   1.000  W
  W29      1.0000 0.52693  0.35610  0.01318  Biso   1.000  W
  W30      1.0000 0.64390  0.02693  0.51318  Biso   1.000  W
  W31      1.0000 0.85610  0.47307  0.51318  Biso   1.000  W
  W32      1.0000 0.97307  0.14390  0.01318  Biso   1.000  W
  W33      1.0000 0.52669  0.49323  0.81234  Biso   1.000  W
  W34      1.0000 0.50677  0.02669  0.31234  Biso   1.000  W
  W35      1.0000 0.99323  0.47331  0.31234  Biso   1.000  W
  W36      1.0000 0.97331  0.00677  0.81234  Biso   1.000  W
  W37      1.0000 0.47331  0.50677  0.18766  Biso   1.000  W
  W38      1.0000 0.49323  0.97331  0.68766  Biso   1.000  W
  W39      1.0000 0.00677  0.52669  0.68766  Biso   1.000  W
  W40      1.0000 0.02669  0.99323  0.18766  Biso   1.000  W
  W41      1.0000 0.37207  0.55399  0.06369  Biso   1.000  W
  W42      1.0000 0.44601  0.87207  0.56369  Biso   1.000  W
  W43      1.0000 0.05399  0.62793  0.56369  Biso   1.000  W
  W44      1.0000 0.12793  0.94601  0.06369  Biso   1.000  W
  W45      1.0000 0.62793  0.44601  0.93631  Biso   1.000  W
  W46      1.0000 0.55399  0.12793  0.43631  Biso   1.000  W
  W47      1.0000 0.94601  0.37207  0.43631  Biso   1.000  W
  W48      1.0000 0.87207  0.05399  0.93631  Biso   1.000  W
  P1       1.0000 0.50000  0.50000  0.00000  Biso   1.000  P
  P2       1.0000 0.50000  0.00000  0.50000  Biso   1.000  P
  P3       1.0000 0.00000  0.50000  0.50000  Biso   1.000  P
  P4       1.0000 0.00000  0.00000  0.00000  Biso   1.000  P
  O1       1.0000 0.45530  0.54770  0.98030  Biso   1.000  O
  O2       1.0000 0.45230  0.95530  0.48030  Biso   1.000  O
  O3       1.0000 0.04770  0.54470  0.48030  Biso   1.000  O
  O4       1.0000 0.04470  0.95230  0.98030  Biso   1.000  O
  O5       1.0000 0.54470  0.45230  0.01970  Biso   1.000  O
  O6       1.0000 0.54770  0.04470  0.51970  Biso   1.000  O
  O7       1.0000 0.95230  0.45530  0.51970  Biso   1.000  O
  O8       1.0000 0.95530  0.04770  0.01970  Biso   1.000  O
  O9       1.0000 0.52560  0.51360  0.06440  Biso   1.000  O
  O10      1.0000 0.48640  0.02560  0.56440  Biso   1.000  O
  O11      1.0000 0.01360  0.47440  0.56440  Biso   1.000  O
  O12      1.0000 0.97440  0.98640  0.06440  Biso   1.000  O
  O13      1.0000 0.47440  0.48640  0.93560  Biso   1.000  O
  O14      1.0000 0.51360  0.97440  0.43560  Biso   1.000  O
  O15      1.0000 0.98640  0.52560  0.43560  Biso   1.000  O
  O16      1.0000 0.02560  0.01360  0.93560  Biso   1.000  O
  O17      1.0000 0.47370  0.44780  0.99120  Biso   1.000  O
  O18      1.0000 0.55220  0.97370  0.49120  Biso   1.000  O
  O19      1.0000 0.94780  0.52630  0.49120  Biso   1.000  O
  O20      1.0000 0.02630  0.05220  0.99120  Biso   1.000  O
  O21      1.0000 0.52630  0.55220  0.00880  Biso   1.000  O
  O22      1.0000 0.44780  0.02630  0.50880  Biso   1.000  O
  O23      1.0000 0.05220  0.47370  0.50880  Biso   1.000  O
  O24      1.0000 0.97370  0.94780  0.00880  Biso   1.000  O
  O25      1.0000 0.54320  0.51140  0.93660  Biso   1.000  O
  O26      1.0000 0.48860  0.04320  0.43660  Biso   1.000  O
  O27      1.0000 0.01140  0.45680  0.43660  Biso   1.000  O
  O28      1.0000 0.95680  0.98860  0.93660  Biso   1.000  O
  O29      1.0000 0.45680  0.48860  0.06340  Biso   1.000  O
  O30      1.0000 0.51140  0.95680  0.56340  Biso   1.000  O
  O31      1.0000 0.98860  0.54320  0.56340  Biso   1.000  O
  O32      1.0000 0.04320  0.01140  0.06340  Biso   1.000  O
  O33      1.0000 0.31200  0.57950  0.09280  Biso   1.000  O
  O34      1.0000 0.42050  0.81200  0.59280  Biso   1.000  O
  O35      1.0000 0.07950  0.68800  0.59280  Biso   1.000  O
  O36      1.0000 0.18800  0.92050  0.09280  Biso   1.000  O
  O37      1.0000 0.68800  0.42050  0.90720  Biso   1.000  O
  O38      1.0000 0.57950  0.18800  0.40720  Biso   1.000  O
  O39      1.0000 0.92050  0.31200  0.40720  Biso   1.000  O
  O40      1.0000 0.81200  0.07950  0.90720  Biso   1.000  O
  O41      1.0000 0.51850  0.64190  0.06750  Biso   1.000  O
  O42      1.0000 0.35810  0.01850  0.56750  Biso   1.000  O
  O43      1.0000 0.14190  0.48150  0.56750  Biso   1.000  O
  O44      1.0000 0.98150  0.85810  0.06750  Biso   1.000  O
  O45      1.0000 0.48150  0.35810  0.93250  Biso   1.000  O
  O46      1.0000 0.64190  0.98150  0.43250  Biso   1.000  O
  O47      1.0000 0.85810  0.51850  0.43250  Biso   1.000  O
  O48      1.0000 0.01850  0.14190  0.93250  Biso   1.000  O
  O49      1.0000 0.61280  0.59930  0.02170  Biso   1.000  O
  O50      1.0000 0.40070  0.11280  0.52170  Biso   1.000  O
  O51      1.0000 0.09930  0.38720  0.52170  Biso   1.000  O
  O52      1.0000 0.88720  0.90070  0.02170  Biso   1.000  O
  O53      1.0000 0.38720  0.40070  0.97830  Biso   1.000  O
  O54      1.0000 0.59930  0.88720  0.47830  Biso   1.000  O
  O55      1.0000 0.90070  0.61280  0.47830  Biso   1.000  O
  O56      1.0000 0.11280  0.09930  0.97830  Biso   1.000  O
  O57      1.0000 0.46050  0.71040  0.97870  Biso   1.000  O
  O58      1.0000 0.28960  0.96050  0.47870  Biso   1.000  O
  O59      1.0000 0.21040  0.53950  0.47870  Biso   1.000  O
  O60      1.0000 0.03950  0.78960  0.97870  Biso   1.000  O
  O61      1.0000 0.53950  0.28960  0.02130  Biso   1.000  O
  O62      1.0000 0.71040  0.03950  0.52130  Biso   1.000  O
  O63      1.0000 0.78960  0.46050  0.52130  Biso   1.000  O
  O64      1.0000 0.96050  0.21040  0.02130  Biso   1.000  O
  O65      1.0000 0.53760  0.63600  0.93150  Biso   1.000  O
  O66      1.0000 0.36400  0.03760  0.43150  Biso   1.000  O
  O67      1.0000 0.13600  0.46240  0.43150  Biso   1.000  O
  O68      1.0000 0.96240  0.86400  0.93150  Biso   1.000  O
  O69      1.0000 0.46240  0.36400  0.06850  Biso   1.000  O
  O70      1.0000 0.63600  0.96240  0.56850  Biso   1.000  O
  O71      1.0000 0.86400  0.53760  0.56850  Biso   1.000  O
  O72      1.0000 0.03760  0.13600  0.06850  Biso   1.000  O
  O73      1.0000 0.61170  0.52830  0.12660  Biso   1.000  O
  O74      1.0000 0.47170  0.11170  0.62660  Biso   1.000  O
  O75      1.0000 0.02830  0.38830  0.62660  Biso   1.000  O
  O76      1.0000 0.88830  0.97170  0.12660  Biso   1.000  O
  O77      1.0000 0.38830  0.47170  0.87340  Biso   1.000  O
  O78      1.0000 0.52830  0.88830  0.37340  Biso   1.000  O
  O79      1.0000 0.97170  0.61170  0.37340  Biso   1.000  O
  O80      1.0000 0.11170  0.02830  0.87340  Biso   1.000  O
  O81      1.0000 0.46140  0.53680  0.81810  Biso   1.000  O
  O82      1.0000 0.46320  0.96140  0.31810  Biso   1.000  O
  O83      1.0000 0.03680  0.53860  0.31810  Biso   1.000  O
  O84      1.0000 0.03860  0.96320  0.81810  Biso   1.000  O
  O85      1.0000 0.53860  0.46320  0.18190  Biso   1.000  O
  O86      1.0000 0.53680  0.03860  0.68190  Biso   1.000  O
  O87      1.0000 0.96320  0.46140  0.68190  Biso   1.000  O
  O88      1.0000 0.96140  0.03680  0.18190  Biso   1.000  O
  O89      1.0000 0.35370  0.57140  0.81590  Biso   1.000  O
  O90      1.0000 0.42860  0.85370  0.31590  Biso   1.000  O
  O91      1.0000 0.07140  0.64630  0.31590  Biso   1.000  O
  O92      1.0000 0.14630  0.92860  0.81590  Biso   1.000  O
  O93      1.0000 0.64630  0.42860  0.18410  Biso   1.000  O
  O94      1.0000 0.57140  0.14630  0.68410  Biso   1.000  O
  O95      1.0000 0.92860  0.35370  0.68410  Biso   1.000  O
  O96      1.0000 0.85370  0.07140  0.18410  Biso   1.000  O
  O97      1.0000 0.52000  0.56780  0.17310  Biso   1.000  O
  O98      1.0000 0.43220  0.02000  0.67310  Biso   1.000  O
  O99      1.0000 0.06780  0.48000  0.67310  Biso   1.000  O
  O100     1.0000 0.98000  0.93220  0.17310  Biso   1.000  O
  O101     1.0000 0.48000  0.43220  0.82690  Biso   1.000  O
  O102     1.0000 0.56780  0.98000  0.32690  Biso   1.000  O
  O103     1.0000 0.93220  0.52000  0.32690  Biso   1.000  O
  O104     1.0000 0.02000  0.06780  0.82690  Biso   1.000  O
  O105     1.0000 0.64560  0.63250  0.88420  Biso   1.000  O
  O106     1.0000 0.36750  0.14560  0.38420  Biso   1.000  O
  O107     1.0000 0.13250  0.35440  0.38420  Biso   1.000  O
  O108     1.0000 0.85440  0.86750  0.88420  Biso   1.000  O
  O109     1.0000 0.35440  0.36750  0.11580  Biso   1.000  O
  O110     1.0000 0.63250  0.85440  0.61580  Biso   1.000  O
  O111     1.0000 0.86750  0.64560  0.61580  Biso   1.000  O
  O112     1.0000 0.14560  0.13250  0.11580  Biso   1.000  O
  O113     1.0000 0.53730  0.48790  0.72400  Biso   1.000  O
  O114     1.0000 0.51210  0.03730  0.22400  Biso   1.000  O
  O115     1.0000 0.98790  0.46270  0.22400  Biso   1.000  O
  O116     1.0000 0.96270  0.01210  0.72400  Biso   1.000  O
  O117     1.0000 0.46270  0.51210  0.27600  Biso   1.000  O
  O118     1.0000 0.48790  0.96270  0.77600  Biso   1.000  O
  O119     1.0000 0.01210  0.53730  0.77600  Biso   1.000  O
  O120     1.0000 0.03730  0.98790  0.27600  Biso   1.000  O
  O121     1.0000 0.56580  0.55800  0.83940  Biso   1.000  O
  O122     1.0000 0.44200  0.06580  0.33940  Biso   1.000  O
  O123     1.0000 0.05800  0.43420  0.33940  Biso   1.000  O
  O124     1.0000 0.93420  0.94200  0.83940  Biso   1.000  O
  O125     1.0000 0.43420  0.44200  0.16060  Biso   1.000  O
  O126     1.0000 0.55800  0.93420  0.66060  Biso   1.000  O
  O127     1.0000 0.94200  0.56580  0.66060  Biso   1.000  O
  O128     1.0000 0.06580  0.05800  0.16060  Biso   1.000  O
  O129     1.0000 0.60840  0.63770  0.16180  Biso   1.000  O
  O130     1.0000 0.36230  0.10840  0.66180  Biso   1.000  O
  O131     1.0000 0.13770  0.39160  0.66180  Biso   1.000  O
  O132     1.0000 0.89160  0.86230  0.16180  Biso   1.000  O
  O133     1.0000 0.39160  0.36230  0.83820  Biso   1.000  O
  O134     1.0000 0.63770  0.89160  0.33820  Biso   1.000  O
  O135     1.0000 0.86230  0.60840  0.33820  Biso   1.000  O
  O136     1.0000 0.10840  0.13770  0.83820  Biso   1.000  O
  O137     1.0000 0.36110  0.55020  0.96350  Biso   1.000  O
  O138     1.0000 0.44980  0.86110  0.46350  Biso   1.000  O
  O139     1.0000 0.05020  0.63890  0.46350  Biso   1.000  O
  O140     1.0000 0.13890  0.94980  0.96350  Biso   1.000  O
  O141     1.0000 0.63890  0.44980  0.03650  Biso   1.000  O
  O142     1.0000 0.55020  0.13890  0.53650  Biso   1.000  O
  O143     1.0000 0.94980  0.36110  0.53650  Biso   1.000  O
  O144     1.0000 0.86110  0.05020  0.03650  Biso   1.000  O
  O145     1.0000 0.64020  0.52340  0.93320  Biso   1.000  O
  O146     1.0000 0.47660  0.14020  0.43320  Biso   1.000  O
  O147     1.0000 0.02340  0.35980  0.43320  Biso   1.000  O
  O148     1.0000 0.85980  0.97660  0.93320  Biso   1.000  O
  O149     1.0000 0.35980  0.47660  0.06680  Biso   1.000  O
  O150     1.0000 0.52340  0.85980  0.56680  Biso   1.000  O
  O151     1.0000 0.97660  0.64020  0.56680  Biso   1.000  O
  O152     1.0000 0.14020  0.02340  0.06680  Biso   1.000  O
  O153     1.0000 0.43430  0.61530  0.90790  Biso   1.000  O
  O154     1.0000 0.38470  0.93430  0.40790  Biso   1.000  O
  O155     1.0000 0.11530  0.56570  0.40790  Biso   1.000  O
  O156     1.0000 0.06570  0.88470  0.90790  Biso   1.000  O
  O157     1.0000 0.56570  0.38470  0.09210  Biso   1.000  O
  O158     1.0000 0.61530  0.06570  0.59210  Biso   1.000  O
  O159     1.0000 0.88470  0.43430  0.59210  Biso   1.000  O
  O160     1.0000 0.93430  0.11530  0.09210  Biso   1.000  O
  O161     1.0000 0.41340  0.61760  0.04460  Biso   1.000  O
  O162     1.0000 0.38240  0.91340  0.54460  Biso   1.000  O
  O163     1.0000 0.11760  0.58660  0.54460  Biso   1.000  O
  O164     1.0000 0.08660  0.88240  0.04460  Biso   1.000  O
  O165     1.0000 0.58660  0.38240  0.95540  Biso   1.000  O
  O166     1.0000 0.61760  0.08660  0.45540  Biso   1.000  O
  O167     1.0000 0.88240  0.41340  0.45540  Biso   1.000  O
  O168     1.0000 0.91340  0.11760  0.95540  Biso   1.000  O
  O169     1.0000 0.58600  0.45150  0.85170  Biso   1.000  O
  O170     1.0000 0.54850  0.08600  0.35170  Biso   1.000  O
  O171     1.0000 0.95150  0.41400  0.35170  Biso   1.000  O
  O172     1.0000 0.91400  0.04850  0.85170  Biso   1.000  O
  O173     1.0000 0.41400  0.54850  0.14830  Biso   1.000  O
  O174     1.0000 0.45150  0.91400  0.64830  Biso   1.000  O
  O175     1.0000 0.04850  0.58600  0.64830  Biso   1.000  O
  O176     1.0000 0.08600  0.95150  0.14830  Biso   1.000  O
  Cl1      1.0000 0.50000  0.00000  0.00000  Biso   1.000  Cl
  Cl2      1.0000 0.00000  0.00000  0.50000  Biso   1.000  Cl
  Cl3      1.0000 0.50000  0.50000  0.50000  Biso   1.000  Cl
  Cl4      1.0000 0.00000  0.50000  0.00000  Biso   1.000  Cl
  Cu1      1.0000 0.57346  0.08455  0.98719  Biso   1.000  Cu
  Cu2      1.0000 0.91545  0.07346  0.48719  Biso   1.000  Cu
  Cu3      1.0000 0.58455  0.42654  0.48719  Biso   1.000  Cu
  Cu4      1.0000 0.92654  0.41545  0.98719  Biso   1.000  Cu
  Cu5      1.0000 0.42654  0.91545  0.01281  Biso   1.000  Cu
  Cu6      1.0000 0.08455  0.92654  0.51281  Biso   1.000  Cu
  Cu7      1.0000 0.41545  0.57346  0.51281  Biso   1.000  Cu
  Cu8      1.0000 0.07346  0.58455  0.01281  Biso   1.000  Cu
  N1       1.0000 0.52250  0.12680  0.91970  Biso   1.000  N
  N2       1.0000 0.87320  0.02250  0.41970  Biso   1.000  N
  N3       1.0000 0.62680  0.47750  0.41970  Biso   1.000  N
  N4       1.0000 0.97750  0.37320  0.91970  Biso   1.000  N
  N5       1.0000 0.47750  0.87320  0.08030  Biso   1.000  N
  N6       1.0000 0.12680  0.97750  0.58030  Biso   1.000  N
  N7       1.0000 0.37320  0.52250  0.58030  Biso   1.000  N
  N8       1.0000 0.02250  0.62680  0.08030  Biso   1.000  N
  N9       1.0000 0.54740  0.37090  0.55200  Biso   1.000  N
  N10      1.0000 0.62910  0.04740  0.05200  Biso   1.000  N
  N11      1.0000 0.87090  0.45260  0.05200  Biso   1.000  N
  N12      1.0000 0.95260  0.12910  0.55200  Biso   1.000  N
  N13      1.0000 0.45260  0.62910  0.44800  Biso   1.000  N
  N14      1.0000 0.37090  0.95260  0.94800  Biso   1.000  N
  N15      1.0000 0.12910  0.54740  0.94800  Biso   1.000  N
  N16      1.0000 0.04740  0.87090  0.44800  Biso   1.000  N
  N17      1.0000 0.61400  0.05280  0.90200  Biso   1.000  N
  N18      1.0000 0.94720  0.11400  0.40200  Biso   1.000  N
  N19      1.0000 0.55280  0.38600  0.40200  Biso   1.000  N
  N20      1.0000 0.88600  0.44720  0.90200  Biso   1.000  N
  N21      1.0000 0.38600  0.94720  0.09800  Biso   1.000  N
  N22      1.0000 0.05280  0.88600  0.59800  Biso   1.000  N
  N23      1.0000 0.44720  0.61400  0.59800  Biso   1.000  N
  N24      1.0000 0.11400  0.55280  0.09800  Biso   1.000  N
  N25      1.0000 0.87670  0.04020  0.57010  Biso   1.000  N
  N26      1.0000 0.95980  0.37670  0.07010  Biso   1.000  N
  N27      1.0000 0.54020  0.12330  0.07010  Biso   1.000  N
  N28      1.0000 0.62330  0.45980  0.57010  Biso   1.000  N
  N29      1.0000 0.12330  0.95980  0.42990  Biso   1.000  N
  N30      1.0000 0.04020  0.62330  0.92990  Biso   1.000  N
  N31      1.0000 0.45980  0.87670  0.92990  Biso   1.000  N
  N32      1.0000 0.37670  0.54020  0.42990  Biso   1.000  N
  C1       1.0000 0.49550  0.10260  0.86630  Biso   1.000  C
  C2       1.0000 0.89740  0.99550  0.36630  Biso   1.000  C
  C3       1.0000 0.60260  0.50450  0.36630  Biso   1.000  C
  C4       1.0000 0.00450  0.39740  0.86630  Biso   1.000  C
  C5       1.0000 0.50450  0.89740  0.13370  Biso   1.000  C
  C6       1.0000 0.10260  0.00450  0.63370  Biso   1.000  C
  C7       1.0000 0.39740  0.49550  0.63370  Biso   1.000  C
  C8       1.0000 0.99550  0.60260  0.13370  Biso   1.000  C
  H1       1.0000 0.50120  0.06500  0.85910  Biso   1.000  H
  H2       1.0000 0.93500  0.00120  0.35910  Biso   1.000  H
  H3       1.0000 0.56500  0.49880  0.35910  Biso   1.000  H
  H4       1.0000 0.99880  0.43500  0.85910  Biso   1.000  H
  H5       1.0000 0.49880  0.93500  0.14090  Biso   1.000  H
  H6       1.0000 0.06500  0.99880  0.64090  Biso   1.000  H
  H7       1.0000 0.43500  0.50120  0.64090  Biso   1.000  H
  H8       1.0000 0.00120  0.56500  0.14090  Biso   1.000  H
  C9       1.0000 0.46040  0.12860  0.82190  Biso   1.000  C
  C10      1.0000 0.87140  0.96040  0.32190  Biso   1.000  C
  C11      1.0000 0.62860  0.53960  0.32190  Biso   1.000  C
  C12      1.0000 0.03960  0.37140  0.82190  Biso   1.000  C
  C13      1.0000 0.53960  0.87140  0.17810  Biso   1.000  C
  C14      1.0000 0.12860  0.03960  0.67810  Biso   1.000  C
  C15      1.0000 0.37140  0.46040  0.67810  Biso   1.000  C
  C16      1.0000 0.96040  0.62860  0.17810  Biso   1.000  C
  H9       1.0000 0.44170  0.10950  0.78600  Biso   1.000  H
  H10      1.0000 0.89050  0.94170  0.28600  Biso   1.000  H
  H11      1.0000 0.60950  0.55830  0.28600  Biso   1.000  H
  H12      1.0000 0.05830  0.39050  0.78600  Biso   1.000  H
  H13      1.0000 0.55830  0.89050  0.21400  Biso   1.000  H
  H14      1.0000 0.10950  0.05830  0.71400  Biso   1.000  H
  H15      1.0000 0.39050  0.44170  0.71400  Biso   1.000  H
  H16      1.0000 0.94170  0.60950  0.21400  Biso   1.000  H
  C17      1.0000 0.45320  0.18490  0.83160  Biso   1.000  C
  C18      1.0000 0.81510  0.95320  0.33160  Biso   1.000  C
  C19      1.0000 0.68490  0.54680  0.33160  Biso   1.000  C
  C20      1.0000 0.04680  0.31510  0.83160  Biso   1.000  C
  C21      1.0000 0.54680  0.81510  0.16840  Biso   1.000  C
  C22      1.0000 0.18490  0.04680  0.66840  Biso   1.000  C
  C23      1.0000 0.31510  0.45320  0.66840  Biso   1.000  C
  C24      1.0000 0.95320  0.68490  0.16840  Biso   1.000  C
  C25      1.0000 0.48080  0.21130  0.88680  Biso   1.000  C
  C26      1.0000 0.78870  0.98080  0.38680  Biso   1.000  C
  C27      1.0000 0.71130  0.51920  0.38680  Biso   1.000  C
  C28      1.0000 0.01920  0.28870  0.88680  Biso   1.000  C
  C29      1.0000 0.51920  0.78870  0.11320  Biso   1.000  C
  C30      1.0000 0.21130  0.01920  0.61320  Biso   1.000  C
  C31      1.0000 0.28870  0.48080  0.61320  Biso   1.000  C
  C32      1.0000 0.98080  0.71130  0.11320  Biso   1.000  C
  H17      1.0000 0.47650  0.24900  0.89500  Biso   1.000  H
  H18      1.0000 0.75100  0.97650  0.39500  Biso   1.000  H
  H19      1.0000 0.74900  0.52350  0.39500  Biso   1.000  H
  H20      1.0000 0.02350  0.25100  0.89500  Biso   1.000  H
  H21      1.0000 0.52350  0.75100  0.10500  Biso   1.000  H
  H22      1.0000 0.24900  0.02350  0.60500  Biso   1.000  H
  H23      1.0000 0.25100  0.47650  0.60500  Biso   1.000  H
  H24      1.0000 0.97650  0.74900  0.10500  Biso   1.000  H
  C33      1.0000 0.51350  0.18070  0.92750  Biso   1.000  C
  C34      1.0000 0.81930  0.01350  0.42750  Biso   1.000  C
  C35      1.0000 0.68070  0.48650  0.42750  Biso   1.000  C
  C36      1.0000 0.98650  0.31930  0.92750  Biso   1.000  C
  C37      1.0000 0.48650  0.81930  0.07250  Biso   1.000  C
  C38      1.0000 0.18070  0.98650  0.57250  Biso   1.000  C
  C39      1.0000 0.31930  0.51350  0.57250  Biso   1.000  C
  C40      1.0000 0.01350  0.68070  0.07250  Biso   1.000  C
  H25      1.0000 0.53170  0.19850  0.96480  Biso   1.000  H
  H26      1.0000 0.80150  0.03170  0.46480  Biso   1.000  H
  H27      1.0000 0.69850  0.46830  0.46480  Biso   1.000  H
  H28      1.0000 0.96830  0.30150  0.96480  Biso   1.000  H
  H29      1.0000 0.46830  0.80150  0.03520  Biso   1.000  H
  H30      1.0000 0.19850  0.96830  0.53520  Biso   1.000  H
  H31      1.0000 0.30150  0.53170  0.53520  Biso   1.000  H
  H32      1.0000 0.03170  0.69850  0.03520  Biso   1.000  H
  C41      1.0000 0.51800  0.38590  0.60560  Biso   1.000  C
  C42      1.0000 0.61410  0.01800  0.10560  Biso   1.000  C
  C43      1.0000 0.88590  0.48200  0.10560  Biso   1.000  C
  C44      1.0000 0.98200  0.11410  0.60560  Biso   1.000  C
  C45      1.0000 0.48200  0.61410  0.39440  Biso   1.000  C
  C46      1.0000 0.38590  0.98200  0.89440  Biso   1.000  C
  C47      1.0000 0.11410  0.51800  0.89440  Biso   1.000  C
  C48      1.0000 0.01800  0.88590  0.39440  Biso   1.000  C
  H33      1.0000 0.51640  0.42350  0.61600  Biso   1.000  H
  H34      1.0000 0.57650  0.01640  0.11600  Biso   1.000  H
  H35      1.0000 0.92350  0.48360  0.11600  Biso   1.000  H
  H36      1.0000 0.98360  0.07650  0.61600  Biso   1.000  H
  H37      1.0000 0.48360  0.57650  0.38400  Biso   1.000  H
  H38      1.0000 0.42350  0.98360  0.88400  Biso   1.000  H
  H39      1.0000 0.07650  0.51640  0.88400  Biso   1.000  H
  H40      1.0000 0.01640  0.92350  0.38400  Biso   1.000  H
  C49      1.0000 0.48870  0.35070  0.64860  Biso   1.000  C
  C50      1.0000 0.64930  0.98870  0.14860  Biso   1.000  C
  C51      1.0000 0.85070  0.51130  0.14860  Biso   1.000  C
  C52      1.0000 0.01130  0.14930  0.64860  Biso   1.000  C
  C53      1.0000 0.51130  0.64930  0.35140  Biso   1.000  C
  C54      1.0000 0.35070  0.01130  0.85140  Biso   1.000  C
  C55      1.0000 0.14930  0.48870  0.85140  Biso   1.000  C
  C56      1.0000 0.98870  0.85070  0.35140  Biso   1.000  C
  H41      1.0000 0.46570  0.36380  0.68480  Biso   1.000  H
  H42      1.0000 0.63620  0.96570  0.18480  Biso   1.000  H
  H43      1.0000 0.86380  0.53430  0.18480  Biso   1.000  H
  H44      1.0000 0.03430  0.13620  0.68480  Biso   1.000  H
  H45      1.0000 0.53430  0.63620  0.31520  Biso   1.000  H
  H46      1.0000 0.36380  0.03430  0.81520  Biso   1.000  H
  H47      1.0000 0.13620  0.46570  0.81520  Biso   1.000  H
  H48      1.0000 0.96570  0.86380  0.31520  Biso   1.000  H
  C57      1.0000 0.49500  0.29430  0.63560  Biso   1.000  C
  C58      1.0000 0.70570  0.99500  0.13560  Biso   1.000  C
  C59      1.0000 0.79430  0.50500  0.13560  Biso   1.000  C
  C60      1.0000 0.00500  0.20570  0.63560  Biso   1.000  C
  C61      1.0000 0.50500  0.70570  0.36440  Biso   1.000  C
  C62      1.0000 0.29430  0.00500  0.86440  Biso   1.000  C
  C63      1.0000 0.20570  0.49500  0.86440  Biso   1.000  C
  C64      1.0000 0.99500  0.79430  0.36440  Biso   1.000  C
  C65      1.0000 0.52580  0.28050  0.57750  Biso   1.000  C
  C66      1.0000 0.71950  0.02580  0.07750  Biso   1.000  C
  C67      1.0000 0.78050  0.47420  0.07750  Biso   1.000  C
  C68      1.0000 0.97420  0.21950  0.57750  Biso   1.000  C
  C69      1.0000 0.47420  0.71950  0.42250  Biso   1.000  C
  C70      1.0000 0.28050  0.97420  0.92250  Biso   1.000  C
  C71      1.0000 0.21950  0.52580  0.92250  Biso   1.000  C
  C72      1.0000 0.02580  0.78050  0.42250  Biso   1.000  C
  H49      1.0000 0.52890  0.24330  0.56520  Biso   1.000  H
  H50      1.0000 0.75670  0.02890  0.06520  Biso   1.000  H
  H51      1.0000 0.74330  0.47110  0.06520  Biso   1.000  H
  H52      1.0000 0.97110  0.25670  0.56520  Biso   1.000  H
  H53      1.0000 0.47110  0.75670  0.43480  Biso   1.000  H
  H54      1.0000 0.24330  0.97110  0.93480  Biso   1.000  H
  H55      1.0000 0.25670  0.52890  0.93480  Biso   1.000  H
  H56      1.0000 0.02890  0.74330  0.43480  Biso   1.000  H
  C73      1.0000 0.55120  0.31670  0.53870  Biso   1.000  C
  C74      1.0000 0.68330  0.05120  0.03870  Biso   1.000  C
  C75      1.0000 0.81670  0.44880  0.03870  Biso   1.000  C
  C76      1.0000 0.94880  0.18330  0.53870  Biso   1.000  C
  C77      1.0000 0.44880  0.68330  0.46130  Biso   1.000  C
  C78      1.0000 0.31670  0.94880  0.96130  Biso   1.000  C
  C79      1.0000 0.18330  0.55120  0.96130  Biso   1.000  C
  C80      1.0000 0.05120  0.81670  0.46130  Biso   1.000  C
  H57      1.0000 0.57260  0.30480  0.50040  Biso   1.000  H
  H58      1.0000 0.69520  0.07260  0.00040  Biso   1.000  H
  H59      1.0000 0.80480  0.42740  0.00040  Biso   1.000  H
  H60      1.0000 0.92740  0.19520  0.50040  Biso   1.000  H
  H61      1.0000 0.42740  0.69520  0.49960  Biso   1.000  H
  H62      1.0000 0.30480  0.92740  0.99960  Biso   1.000  H
  H63      1.0000 0.19520  0.57260  0.99960  Biso   1.000  H
  H64      1.0000 0.07260  0.80480  0.49960  Biso   1.000  H
  C81      1.0000 0.41240  0.21790  0.78480  Biso   1.000  C
  C82      1.0000 0.78210  0.91240  0.28480  Biso   1.000  C
  C83      1.0000 0.71790  0.58760  0.28480  Biso   1.000  C
  C84      1.0000 0.08760  0.28210  0.78480  Biso   1.000  C
  C85      1.0000 0.58760  0.78210  0.21520  Biso   1.000  C
  C86      1.0000 0.21790  0.08760  0.71520  Biso   1.000  C
  C87      1.0000 0.28210  0.41240  0.71520  Biso   1.000  C
  C88      1.0000 0.91240  0.71790  0.21520  Biso   1.000  C
  H65      1.0000 0.39550  0.19230  0.75130  Biso   1.000  H
  H66      1.0000 0.80770  0.89550  0.25130  Biso   1.000  H
  H67      1.0000 0.69230  0.60450  0.25130  Biso   1.000  H
  H68      1.0000 0.10450  0.30770  0.75130  Biso   1.000  H
  H69      1.0000 0.60450  0.80770  0.24870  Biso   1.000  H
  H70      1.0000 0.19230  0.10450  0.74870  Biso   1.000  H
  H71      1.0000 0.30770  0.39550  0.74870  Biso   1.000  H
  H72      1.0000 0.89550  0.69230  0.24870  Biso   1.000  H
  H73      1.0000 0.38320  0.23170  0.81560  Biso   1.000  H
  H74      1.0000 0.76830  0.88320  0.31560  Biso   1.000  H
  H75      1.0000 0.73170  0.61680  0.31560  Biso   1.000  H
  H76      1.0000 0.11680  0.26830  0.81560  Biso   1.000  H
  H77      1.0000 0.61680  0.76830  0.18440  Biso   1.000  H
  H78      1.0000 0.23170  0.11680  0.68440  Biso   1.000  H
  H79      1.0000 0.26830  0.38320  0.68440  Biso   1.000  H
  H80      1.0000 0.88320  0.73170  0.18440  Biso   1.000  H
  C89      1.0000 0.43410  0.26520  0.74350  Biso   1.000  C
  C90      1.0000 0.73480  0.93410  0.24350  Biso   1.000  C
  C91      1.0000 0.76520  0.56590  0.24350  Biso   1.000  C
  C92      1.0000 0.06590  0.23480  0.74350  Biso   1.000  C
  C93      1.0000 0.56590  0.73480  0.25650  Biso   1.000  C
  C94      1.0000 0.26520  0.06590  0.75650  Biso   1.000  C
  C95      1.0000 0.23480  0.43410  0.75650  Biso   1.000  C
  C96      1.0000 0.93410  0.76520  0.25650  Biso   1.000  C
  H81      1.0000 0.40380  0.28660  0.72370  Biso   1.000  H
  H82      1.0000 0.71340  0.90380  0.22370  Biso   1.000  H
  H83      1.0000 0.78660  0.59620  0.22370  Biso   1.000  H
  H84      1.0000 0.09620  0.21340  0.72370  Biso   1.000  H
  H85      1.0000 0.59620  0.71340  0.27630  Biso   1.000  H
  H86      1.0000 0.28660  0.09620  0.77630  Biso   1.000  H
  H87      1.0000 0.21340  0.40380  0.77630  Biso   1.000  H
  H88      1.0000 0.90380  0.78660  0.27630  Biso   1.000  H
  H89      1.0000 0.45580  0.28920  0.77430  Biso   1.000  H
  H90      1.0000 0.71080  0.95580  0.27430  Biso   1.000  H
  H91      1.0000 0.78920  0.54420  0.27430  Biso   1.000  H
  H92      1.0000 0.04420  0.21080  0.77430  Biso   1.000  H
  H93      1.0000 0.54420  0.71080  0.22570  Biso   1.000  H
  H94      1.0000 0.28920  0.04420  0.72570  Biso   1.000  H
  H95      1.0000 0.21080  0.45580  0.72570  Biso   1.000  H
  H96      1.0000 0.95580  0.78920  0.22570  Biso   1.000  H
  C97      1.0000 0.46590  0.24540  0.69050  Biso   1.000  C
  C98      1.0000 0.75460  0.96590  0.19050  Biso   1.000  C
  C99      1.0000 0.74540  0.53410  0.19050  Biso   1.000  C
  C100     1.0000 0.03410  0.25460  0.69050  Biso   1.000  C
  C101     1.0000 0.53410  0.75460  0.30950  Biso   1.000  C
  C102     1.0000 0.24540  0.03410  0.80950  Biso   1.000  C
  C103     1.0000 0.25460  0.46590  0.80950  Biso   1.000  C
  C104     1.0000 0.96590  0.74540  0.30950  Biso   1.000  C
  H97      1.0000 0.44370  0.22070  0.66140  Biso   1.000  H
  H98      1.0000 0.77930  0.94370  0.16140  Biso   1.000  H
  H99      1.0000 0.72070  0.55630  0.16140  Biso   1.000  H
  H100     1.0000 0.05630  0.27930  0.66140  Biso   1.000  H
  H101     1.0000 0.55630  0.77930  0.33860  Biso   1.000  H
  H102     1.0000 0.22070  0.05630  0.83860  Biso   1.000  H
  H103     1.0000 0.27930  0.44370  0.83860  Biso   1.000  H
  H104     1.0000 0.94370  0.72070  0.33860  Biso   1.000  H
  H105     1.0000 0.49550  0.22360  0.71160  Biso   1.000  H
  H106     1.0000 0.77640  0.99550  0.21160  Biso   1.000  H
  H107     1.0000 0.72360  0.50450  0.21160  Biso   1.000  H
  H108     1.0000 0.00450  0.27640  0.71160  Biso   1.000  H
  H109     1.0000 0.50450  0.77640  0.28840  Biso   1.000  H
  H110     1.0000 0.22360  0.00450  0.78840  Biso   1.000  H
  H111     1.0000 0.27640  0.49550  0.78840  Biso   1.000  H
  H112     1.0000 0.99550  0.72360  0.28840  Biso   1.000  H
  C105     1.0000 0.61320  0.99940  0.88770  Biso   1.000  C
  C106     1.0000 0.00060  0.11320  0.38770  Biso   1.000  C
  C107     1.0000 0.49940  0.38680  0.38770  Biso   1.000  C
  C108     1.0000 0.88680  0.50060  0.88770  Biso   1.000  C
  C109     1.0000 0.38680  0.00060  0.11230  Biso   1.000  C
  C110     1.0000 0.99940  0.88680  0.61230  Biso   1.000  C
  C111     1.0000 0.50060  0.61320  0.61230  Biso   1.000  C
  C112     1.0000 0.11320  0.49940  0.11230  Biso   1.000  C
  H113     1.0000 0.59300  0.97620  0.91770  Biso   1.000  H
  H114     1.0000 0.02380  0.09300  0.41770  Biso   1.000  H
  H115     1.0000 0.47620  0.40700  0.41770  Biso   1.000  H
  H116     1.0000 0.90700  0.52380  0.91770  Biso   1.000  H
  H117     1.0000 0.40700  0.02380  0.08230  Biso   1.000  H
  H118     1.0000 0.97620  0.90700  0.58230  Biso   1.000  H
  H119     1.0000 0.52380  0.59300  0.58230  Biso   1.000  H
  H120     1.0000 0.09300  0.47620  0.08230  Biso   1.000  H
  C113     1.0000 0.64170  0.97560  0.82880  Biso   1.000  C
  C114     1.0000 0.02440  0.14170  0.32880  Biso   1.000  C
  C115     1.0000 0.47560  0.35830  0.32880  Biso   1.000  C
  C116     1.0000 0.85830  0.52440  0.82880  Biso   1.000  C
  C117     1.0000 0.35830  0.02440  0.17120  Biso   1.000  C
  C118     1.0000 0.97560  0.85830  0.67120  Biso   1.000  C
  C119     1.0000 0.52440  0.64170  0.67120  Biso   1.000  C
  C120     1.0000 0.14170  0.47560  0.17120  Biso   1.000  C
  H121     1.0000 0.64280  0.93730  0.82340  Biso   1.000  H
  H122     1.0000 0.06270  0.14280  0.32340  Biso   1.000  H
  H123     1.0000 0.43730  0.35720  0.32340  Biso   1.000  H
  H124     1.0000 0.85720  0.56270  0.82340  Biso   1.000  H
  H125     1.0000 0.35720  0.06270  0.17660  Biso   1.000  H
  H126     1.0000 0.93730  0.85720  0.67660  Biso   1.000  H
  H127     1.0000 0.56270  0.64280  0.67660  Biso   1.000  H
  H128     1.0000 0.14280  0.43730  0.17660  Biso   1.000  H
  C121     1.0000 0.66710  0.00840  0.78070  Biso   1.000  C
  C122     1.0000 0.99160  0.16710  0.28070  Biso   1.000  C
  C123     1.0000 0.50840  0.33290  0.28070  Biso   1.000  C
  C124     1.0000 0.83290  0.49160  0.78070  Biso   1.000  C
  C125     1.0000 0.33290  0.99160  0.21930  Biso   1.000  C
  C126     1.0000 0.00840  0.83290  0.71930  Biso   1.000  C
  C127     1.0000 0.49160  0.66710  0.71930  Biso   1.000  C
  C128     1.0000 0.16710  0.50840  0.21930  Biso   1.000  C
  C129     1.0000 0.66840  0.06050  0.79610  Biso   1.000  C
  C130     1.0000 0.93950  0.16840  0.29610  Biso   1.000  C
  C131     1.0000 0.56050  0.33160  0.29610  Biso   1.000  C
  C132     1.0000 0.83160  0.43950  0.79610  Biso   1.000  C
  C133     1.0000 0.33160  0.93950  0.20390  Biso   1.000  C
  C134     1.0000 0.06050  0.83160  0.70390  Biso   1.000  C
  C135     1.0000 0.43950  0.66840  0.70390  Biso   1.000  C
  C136     1.0000 0.16840  0.56050  0.20390  Biso   1.000  C
  H129     1.0000 0.68880  0.08300  0.76560  Biso   1.000  H
  H130     1.0000 0.91700  0.18880  0.26560  Biso   1.000  H
  H131     1.0000 0.58300  0.31120  0.26560  Biso   1.000  H
  H132     1.0000 0.81120  0.41700  0.76560  Biso   1.000  H
  H133     1.0000 0.31120  0.91700  0.23440  Biso   1.000  H
  H134     1.0000 0.08300  0.81120  0.73440  Biso   1.000  H
  H135     1.0000 0.41700  0.68880  0.73440  Biso   1.000  H
  H136     1.0000 0.18880  0.58300  0.23440  Biso   1.000  H
  C137     1.0000 0.64270  0.08620  0.85330  Biso   1.000  C
  C138     1.0000 0.91380  0.14270  0.35330  Biso   1.000  C
  C139     1.0000 0.58620  0.35730  0.35330  Biso   1.000  C
  C140     1.0000 0.85730  0.41380  0.85330  Biso   1.000  C
  C141     1.0000 0.35730  0.91380  0.14670  Biso   1.000  C
  C142     1.0000 0.08620  0.85730  0.64670  Biso   1.000  C
  C143     1.0000 0.41380  0.64270  0.64670  Biso   1.000  C
  C144     1.0000 0.14270  0.58620  0.14670  Biso   1.000  C
  H137     1.0000 0.64440  0.12440  0.85910  Biso   1.000  H
  H138     1.0000 0.87560  0.14440  0.35910  Biso   1.000  H
  H139     1.0000 0.62440  0.35560  0.35910  Biso   1.000  H
  H140     1.0000 0.85560  0.37560  0.85910  Biso   1.000  H
  H141     1.0000 0.35560  0.87560  0.14090  Biso   1.000  H
  H142     1.0000 0.12440  0.85560  0.64090  Biso   1.000  H
  H143     1.0000 0.37560  0.64440  0.64090  Biso   1.000  H
  H144     1.0000 0.14440  0.62440  0.14090  Biso   1.000  H
  C145     1.0000 0.85250  0.06890  0.62170  Biso   1.000  C
  C146     1.0000 0.93110  0.35250  0.12170  Biso   1.000  C
  C147     1.0000 0.56890  0.14750  0.12170  Biso   1.000  C
  C148     1.0000 0.64750  0.43110  0.62170  Biso   1.000  C
  C149     1.0000 0.14750  0.93110  0.37830  Biso   1.000  C
  C150     1.0000 0.06890  0.64750  0.87830  Biso   1.000  C
  C151     1.0000 0.43110  0.85250  0.87830  Biso   1.000  C
  C152     1.0000 0.35250  0.56890  0.37830  Biso   1.000  C
  H145     1.0000 0.85250  0.10730  0.61780  Biso   1.000  H
  H146     1.0000 0.89270  0.35250  0.11780  Biso   1.000  H
  H147     1.0000 0.60730  0.14750  0.11780  Biso   1.000  H
  H148     1.0000 0.64750  0.39270  0.61780  Biso   1.000  H
  H149     1.0000 0.14750  0.89270  0.38220  Biso   1.000  H
  H150     1.0000 0.10730  0.64750  0.88220  Biso   1.000  H
  H151     1.0000 0.39270  0.85250  0.88220  Biso   1.000  H
  H152     1.0000 0.35250  0.60730  0.38220  Biso   1.000  H
  C153     1.0000 0.82730  0.04600  0.68050  Biso   1.000  C
  C154     1.0000 0.95400  0.32730  0.18050  Biso   1.000  C
  C155     1.0000 0.54600  0.17270  0.18050  Biso   1.000  C
  C156     1.0000 0.67270  0.45400  0.68050  Biso   1.000  C
  C157     1.0000 0.17270  0.95400  0.31950  Biso   1.000  C
  C158     1.0000 0.04600  0.67270  0.81950  Biso   1.000  C
  C159     1.0000 0.45400  0.82730  0.81950  Biso   1.000  C
  C160     1.0000 0.32730  0.54600  0.31950  Biso   1.000  C
  H153     1.0000 0.81460  0.06940  0.71640  Biso   1.000  H
  H154     1.0000 0.93060  0.31460  0.21640  Biso   1.000  H
  H155     1.0000 0.56940  0.18540  0.21640  Biso   1.000  H
  H156     1.0000 0.68540  0.43060  0.71640  Biso   1.000  H
  H157     1.0000 0.18540  0.93060  0.28360  Biso   1.000  H
  H158     1.0000 0.06940  0.68540  0.78360  Biso   1.000  H
  H159     1.0000 0.43060  0.81460  0.78360  Biso   1.000  H
  H160     1.0000 0.31460  0.56940  0.28360  Biso   1.000  H
  C161     1.0000 0.82050  0.99340  0.68820  Biso   1.000  C
  C162     1.0000 0.00660  0.32050  0.18820  Biso   1.000  C
  C163     1.0000 0.49340  0.17950  0.18820  Biso   1.000  C
  C164     1.0000 0.67950  0.50660  0.68820  Biso   1.000  C
  C165     1.0000 0.17950  0.00660  0.31180  Biso   1.000  C
  C166     1.0000 0.99340  0.67950  0.81180  Biso   1.000  C
  C167     1.0000 0.50660  0.82050  0.81180  Biso   1.000  C
  C168     1.0000 0.32050  0.49340  0.31180  Biso   1.000  C
  C169     1.0000 0.84740  0.96360  0.64050  Biso   1.000  C
  C170     1.0000 0.03640  0.34740  0.14050  Biso   1.000  C
  C171     1.0000 0.46360  0.15260  0.14050  Biso   1.000  C
  C172     1.0000 0.65260  0.53640  0.64050  Biso   1.000  C
  C173     1.0000 0.15260  0.03640  0.35950  Biso   1.000  C
  C174     1.0000 0.96360  0.65260  0.85950  Biso   1.000  C
  C175     1.0000 0.53640  0.84740  0.85950  Biso   1.000  C
  C176     1.0000 0.34740  0.46360  0.35950  Biso   1.000  C
  H161     1.0000 0.84850  0.92540  0.64710  Biso   1.000  H
  H162     1.0000 0.07460  0.34850  0.14710  Biso   1.000  H
  H163     1.0000 0.42540  0.15150  0.14710  Biso   1.000  H
  H164     1.0000 0.65150  0.57460  0.64710  Biso   1.000  H
  H165     1.0000 0.15150  0.07460  0.35290  Biso   1.000  H
  H166     1.0000 0.92540  0.65150  0.85290  Biso   1.000  H
  H167     1.0000 0.57460  0.84850  0.85290  Biso   1.000  H
  H168     1.0000 0.34850  0.42540  0.35290  Biso   1.000  H
  C177     1.0000 0.87500  0.98590  0.57950  Biso   1.000  C
  C178     1.0000 0.01410  0.37500  0.07950  Biso   1.000  C
  C179     1.0000 0.48590  0.12500  0.07950  Biso   1.000  C
  C180     1.0000 0.62500  0.51410  0.57950  Biso   1.000  C
  C181     1.0000 0.12500  0.01410  0.42050  Biso   1.000  C
  C182     1.0000 0.98590  0.62500  0.92050  Biso   1.000  C
  C183     1.0000 0.51410  0.87500  0.92050  Biso   1.000  C
  C184     1.0000 0.37500  0.48590  0.42050  Biso   1.000  C
  H169     1.0000 0.89160  0.96240  0.54650  Biso   1.000  H
  H170     1.0000 0.03760  0.39160  0.04650  Biso   1.000  H
  H171     1.0000 0.46240  0.10840  0.04650  Biso   1.000  H
  H172     1.0000 0.60840  0.53760  0.54650  Biso   1.000  H
  H173     1.0000 0.10840  0.03760  0.45350  Biso   1.000  H
  H174     1.0000 0.96240  0.60840  0.95350  Biso   1.000  H
  H175     1.0000 0.53760  0.89160  0.95350  Biso   1.000  H
  H176     1.0000 0.39160  0.46240  0.45350  Biso   1.000  H
  C185     1.0000 0.69330  0.98390  0.71780  Biso   1.000  C
  C186     1.0000 0.01610  0.19330  0.21780  Biso   1.000  C
  C187     1.0000 0.48390  0.30670  0.21780  Biso   1.000  C
  C188     1.0000 0.80670  0.51610  0.71780  Biso   1.000  C
  C189     1.0000 0.30670  0.01610  0.28220  Biso   1.000  C
  C190     1.0000 0.98390  0.80670  0.78220  Biso   1.000  C
  C191     1.0000 0.51610  0.69330  0.78220  Biso   1.000  C
  C192     1.0000 0.19330  0.48390  0.28220  Biso   1.000  C
  H177     1.0000 0.66460  0.96820  0.68770  Biso   1.000  H
  H178     1.0000 0.03180  0.16460  0.18770  Biso   1.000  H
  H179     1.0000 0.46820  0.33540  0.18770  Biso   1.000  H
  H180     1.0000 0.83540  0.53180  0.68770  Biso   1.000  H
  H181     1.0000 0.33540  0.03180  0.31230  Biso   1.000  H
  H182     1.0000 0.96820  0.83540  0.81230  Biso   1.000  H
  H183     1.0000 0.53180  0.66460  0.81230  Biso   1.000  H
  H184     1.0000 0.16460  0.46820  0.31230  Biso   1.000  H
  H185     1.0000 0.71100  0.01330  0.69070  Biso   1.000  H
  H186     1.0000 0.98670  0.21100  0.19070  Biso   1.000  H
  H187     1.0000 0.51330  0.28900  0.19070  Biso   1.000  H
  H188     1.0000 0.78900  0.48670  0.69070  Biso   1.000  H
  H189     1.0000 0.28900  0.98670  0.30930  Biso   1.000  H
  H190     1.0000 0.01330  0.78900  0.80930  Biso   1.000  H
  H191     1.0000 0.48670  0.71100  0.80930  Biso   1.000  H
  H192     1.0000 0.21100  0.51330  0.30930  Biso   1.000  H
  C193     1.0000 0.72960  0.94600  0.73080  Biso   1.000  C
  C194     1.0000 0.05400  0.22960  0.23080  Biso   1.000  C
  C195     1.0000 0.44600  0.27040  0.23080  Biso   1.000  C
  C196     1.0000 0.77040  0.55400  0.73080  Biso   1.000  C
  C197     1.0000 0.27040  0.05400  0.26920  Biso   1.000  C
  C198     1.0000 0.94600  0.77040  0.76920  Biso   1.000  C
  C199     1.0000 0.55400  0.72960  0.76920  Biso   1.000  C
  C200     1.0000 0.22960  0.44600  0.26920  Biso   1.000  C
  H193     1.0000 0.73350  0.92370  0.68790  Biso   1.000  H
  H194     1.0000 0.07630  0.23350  0.18790  Biso   1.000  H
  H195     1.0000 0.42370  0.26650  0.18790  Biso   1.000  H
  H196     1.0000 0.76650  0.57630  0.68790  Biso   1.000  H
  H197     1.0000 0.26650  0.07630  0.31210  Biso   1.000  H
  H198     1.0000 0.92370  0.76650  0.81210  Biso   1.000  H
  H199     1.0000 0.57630  0.73350  0.81210  Biso   1.000  H
  H200     1.0000 0.23350  0.42370  0.31210  Biso   1.000  H
  H201     1.0000 0.71470  0.92210  0.76780  Biso   1.000  H
  H202     1.0000 0.07790  0.21470  0.26780  Biso   1.000  H
  H203     1.0000 0.42210  0.28530  0.26780  Biso   1.000  H
  H204     1.0000 0.78530  0.57790  0.76780  Biso   1.000  H
  H205     1.0000 0.28530  0.07790  0.23220  Biso   1.000  H
  H206     1.0000 0.92210  0.78530  0.73220  Biso   1.000  H
  H207     1.0000 0.57790  0.71470  0.73220  Biso   1.000  H
  H208     1.0000 0.21470  0.42210  0.23220  Biso   1.000  H
  C201     1.0000 0.78750  0.96390  0.75410  Biso   1.000  C
  C202     1.0000 0.03610  0.28750  0.25410  Biso   1.000  C
  C203     1.0000 0.46390  0.21250  0.25410  Biso   1.000  C
  C204     1.0000 0.71250  0.53610  0.75410  Biso   1.000  C
  C205     1.0000 0.21250  0.03610  0.24590  Biso   1.000  C
  C206     1.0000 0.96390  0.71250  0.74590  Biso   1.000  C
  C207     1.0000 0.53610  0.78750  0.74590  Biso   1.000  C
  C208     1.0000 0.28750  0.46390  0.24590  Biso   1.000  C
  H209     1.0000 0.80810  0.93180  0.77030  Biso   1.000  H
  H210     1.0000 0.06820  0.30810  0.27030  Biso   1.000  H
  H211     1.0000 0.43180  0.19190  0.27030  Biso   1.000  H
  H212     1.0000 0.69190  0.56820  0.77030  Biso   1.000  H
  H213     1.0000 0.19190  0.06820  0.22970  Biso   1.000  H
  H214     1.0000 0.93180  0.69190  0.72970  Biso   1.000  H
  H215     1.0000 0.56820  0.80810  0.72970  Biso   1.000  H
  H216     1.0000 0.30810  0.43180  0.22970  Biso   1.000  H
  H217     1.0000 0.78460  0.98960  0.79380  Biso   1.000  H
  H218     1.0000 0.01040  0.28460  0.29380  Biso   1.000  H
  H219     1.0000 0.48960  0.21540  0.29380  Biso   1.000  H
  H220     1.0000 0.71540  0.51040  0.79380  Biso   1.000  H
  H221     1.0000 0.21540  0.01040  0.20620  Biso   1.000  H
  H222     1.0000 0.98960  0.71540  0.70620  Biso   1.000  H
  H223     1.0000 0.51040  0.78460  0.70620  Biso   1.000  H
  H224     1.0000 0.28460  0.48960  0.20620  Biso   1.000  H
  O177     1.0000 0.64910  0.17380  0.98790  Biso   1.000  O
  O178     1.0000 0.82620  0.14910  0.48790  Biso   1.000  O
  O179     1.0000 0.67380  0.35090  0.48790  Biso   1.000  O
  O180     1.0000 0.85090  0.32620  0.98790  Biso   1.000  O
  O181     1.0000 0.35090  0.82620  0.01210  Biso   1.000  O
  O182     1.0000 0.17380  0.85090  0.51210  Biso   1.000  O
  O183     1.0000 0.32620  0.64910  0.51210  Biso   1.000  O
  O184     1.0000 0.14910  0.67380  0.01210  Biso   1.000  O
  O185     1.0000 0.78840  0.36450  0.27400  Biso   1.000  O
  O186     1.0000 0.63550  0.28840  0.77400  Biso   1.000  O
  O187     1.0000 0.86450  0.21160  0.77400  Biso   1.000  O
  O188     1.0000 0.71160  0.13550  0.27400  Biso   1.000  O
  O189     1.0000 0.21160  0.63550  0.72600  Biso   1.000  O
  O190     1.0000 0.36450  0.71160  0.22600  Biso   1.000  O
  O191     1.0000 0.13550  0.78840  0.22600  Biso   1.000  O
  O192     1.0000 0.28840  0.86450  0.72600  Biso   1.000  O
  O193     1.0000 0.67500  0.27200  0.03300  Biso   1.000  O
  O194     1.0000 0.72800  0.17500  0.53300  Biso   1.000  O
  O195     1.0000 0.77200  0.32500  0.53300  Biso   1.000  O
  O196     1.0000 0.82500  0.22800  0.03300  Biso   1.000  O
  O197     1.0000 0.32500  0.72800  0.96700  Biso   1.000  O
  O198     1.0000 0.27200  0.82500  0.46700  Biso   1.000  O
  O199     1.0000 0.22800  0.67500  0.46700  Biso   1.000  O
  O200     1.0000 0.17500  0.77200  0.96700  Biso   1.000  O
  O201     1.0000 0.25000  0.25000  0.25000  Biso   1.000  O
  O202     1.0000 0.75000  0.75000  0.75000  Biso   1.000  O
  O203     1.0000 0.35600  0.23900  0.02500  Biso   1.000  O
  O204     1.0000 0.76100  0.85600  0.52500  Biso   1.000  O
  O205     1.0000 0.73900  0.64400  0.52500  Biso   1.000  O
  O206     1.0000 0.14400  0.26100  0.02500  Biso   1.000  O
  O207     1.0000 0.64400  0.76100  0.97500  Biso   1.000  O
  O208     1.0000 0.23900  0.14400  0.47500  Biso   1.000  O
  O209     1.0000 0.26100  0.35600  0.47500  Biso   1.000  O
  O210     1.0000 0.85600  0.73900  0.97500  Biso   1.000  O
  O211     1.0000 0.22700  0.39500  0.00500  Biso   1.000  O
  O212     1.0000 0.60500  0.72700  0.50500  Biso   1.000  O
  O213     1.0000 0.89500  0.77300  0.50500  Biso   1.000  O
  O214     1.0000 0.27300  0.10500  0.00500  Biso   1.000  O
  O215     1.0000 0.77300  0.60500  0.99500  Biso   1.000  O
  O216     1.0000 0.39500  0.27300  0.49500  Biso   1.000  O
  O217     1.0000 0.10500  0.22700  0.49500  Biso   1.000  O
  O218     1.0000 0.72700  0.89500  0.99500  Biso   1.000  O
  O219     1.0000 0.25000  0.25000  0.79000  Biso   1.000  O
  O220     1.0000 0.75000  0.75000  0.29000  Biso   1.000  O
  O221     1.0000 0.75000  0.75000  0.21000  Biso   1.000  O
  O222     1.0000 0.25000  0.25000  0.71000  Biso   1.000  O
