data_image0
_cell_length_a       24.2146
_cell_length_b       24.2146
_cell_length_c       18.6339
_cell_angle_alpha    90
_cell_angle_beta     90
_cell_angle_gamma    90

_symmetry_space_group_name_H-M    "P 1"
_symmetry_int_tables_number       1

loop_
  _symmetry_equiv_pos_as_xyz
  'x, y, z'

loop_
  _atom_site_label
  _atom_site_occupancy
  _atom_site_fract_x
  _atom_site_fract_y
  _atom_site_fract_z
  _atom_site_thermal_displace_type
  _atom_site_B_iso_or_equiv
  _atom_site_type_symbol
  Mo1      1.0000 0.59406  0.57793  0.60614  Biso   1.000  Mo
  Mo2      1.0000 0.42207  0.09406  0.10614  Biso   1.000  Mo
  Mo3      1.0000 0.07793  0.40594  0.10614  Biso   1.000  Mo
  Mo4      1.0000 0.90594  0.92207  0.60614  Biso   1.000  Mo
  Mo5      1.0000 0.40594  0.42207  0.39386  Biso   1.000  Mo
  Mo6      1.0000 0.57793  0.90594  0.89386  Biso   1.000  Mo
  Mo7      1.0000 0.92207  0.59406  0.89386  Biso   1.000  Mo
  Mo8      1.0000 0.09406  0.07793  0.39386  Biso   1.000  Mo
  Mo9      1.0000 0.55099  0.40413  0.37116  Biso   1.000  Mo
  Mo10     1.0000 0.59587  0.05099  0.87116  Biso   1.000  Mo
  Mo11     1.0000 0.90413  0.44901  0.87116  Biso   1.000  Mo
  Mo12     1.0000 0.94901  0.09587  0.37116  Biso   1.000  Mo
  Mo13     1.0000 0.44901  0.59587  0.62884  Biso   1.000  Mo
  Mo14     1.0000 0.40413  0.94901  0.12884  Biso   1.000  Mo
  Mo15     1.0000 0.09587  0.55099  0.12884  Biso   1.000  Mo
  Mo16     1.0000 0.05099  0.90413  0.62884  Biso   1.000  Mo
  Mo17     1.0000 0.59113  0.59516  0.41548  Biso   1.000  Mo
  Mo18     1.0000 0.40484  0.09113  0.91548  Biso   1.000  Mo
  Mo19     1.0000 0.09516  0.40887  0.91548  Biso   1.000  Mo
  Mo20     1.0000 0.90887  0.90484  0.41548  Biso   1.000  Mo
  Mo21     1.0000 0.40887  0.40484  0.58452  Biso   1.000  Mo
  Mo22     1.0000 0.59516  0.90887  0.08452  Biso   1.000  Mo
  Mo23     1.0000 0.90484  0.59113  0.08452  Biso   1.000  Mo
  Mo24     1.0000 0.09113  0.09516  0.58452  Biso   1.000  Mo
  Mo25     1.0000 0.64313  0.47078  0.49260  Biso   1.000  Mo
  Mo26     1.0000 0.52922  0.14313  0.99260  Biso   1.000  Mo
  Mo27     1.0000 0.97078  0.35687  0.99260  Biso   1.000  Mo
  Mo28     1.0000 0.85687  0.02922  0.49260  Biso   1.000  Mo
  Mo29     1.0000 0.35687  0.52922  0.50740  Biso   1.000  Mo
  Mo30     1.0000 0.47078  0.85687  0.00740  Biso   1.000  Mo
  Mo31     1.0000 0.02922  0.64313  0.00740  Biso   1.000  Mo
  Mo32     1.0000 0.14313  0.97078  0.50740  Biso   1.000  Mo
  Mo33     1.0000 0.48727  0.52878  0.31282  Biso   1.000  Mo
  Mo34     1.0000 0.47122  0.98727  0.81282  Biso   1.000  Mo
  Mo35     1.0000 0.02878  0.51273  0.81282  Biso   1.000  Mo
  Mo36     1.0000 0.01273  0.97122  0.31282  Biso   1.000  Mo
  Mo37     1.0000 0.51273  0.47122  0.68718  Biso   1.000  Mo
  Mo38     1.0000 0.52878  0.01273  0.18718  Biso   1.000  Mo
  Mo39     1.0000 0.97122  0.48727  0.18718  Biso   1.000  Mo
  Mo40     1.0000 0.98727  0.02878  0.68718  Biso   1.000  Mo
  Mo41     1.0000 0.54877  0.36870  0.55780  Biso   1.000  Mo
  Mo42     1.0000 0.63130  0.04877  0.05780  Biso   1.000  Mo
  Mo43     1.0000 0.86870  0.45123  0.05780  Biso   1.000  Mo
  Mo44     1.0000 0.95123  0.13130  0.55780  Biso   1.000  Mo
  Mo45     1.0000 0.45123  0.63130  0.44220  Biso   1.000  Mo
  Mo46     1.0000 0.36870  0.95123  0.94220  Biso   1.000  Mo
  Mo47     1.0000 0.13130  0.54877  0.94220  Biso   1.000  Mo
  Mo48     1.0000 0.04877  0.86870  0.44220  Biso   1.000  Mo
  P1       1.0000 0.50000  0.50000  0.50000  Biso   1.000  P
  P2       1.0000 0.50000  0.00000  0.00000  Biso   1.000  P
  P3       1.0000 0.00000  0.50000  0.00000  Biso   1.000  P
  P4       1.0000 0.00000  0.00000  0.50000  Biso   1.000  P
  O1       1.0000 0.54790  0.45580  0.47850  Biso   1.000  O
  O2       1.0000 0.54420  0.04790  0.97850  Biso   1.000  O
  O3       1.0000 0.95580  0.45210  0.97850  Biso   1.000  O
  O4       1.0000 0.95210  0.04420  0.47850  Biso   1.000  O
  O5       1.0000 0.45210  0.54420  0.52150  Biso   1.000  O
  O6       1.0000 0.45580  0.95210  0.02150  Biso   1.000  O
  O7       1.0000 0.04420  0.54790  0.02150  Biso   1.000  O
  O8       1.0000 0.04790  0.95580  0.52150  Biso   1.000  O
  O9       1.0000 0.51410  0.52450  0.56740  Biso   1.000  O
  O10      1.0000 0.47550  0.01410  0.06740  Biso   1.000  O
  O11      1.0000 0.02450  0.48590  0.06740  Biso   1.000  O
  O12      1.0000 0.98590  0.97550  0.56740  Biso   1.000  O
  O13      1.0000 0.48590  0.47550  0.43260  Biso   1.000  O
  O14      1.0000 0.52450  0.98590  0.93260  Biso   1.000  O
  O15      1.0000 0.97550  0.51410  0.93260  Biso   1.000  O
  O16      1.0000 0.01410  0.02450  0.43260  Biso   1.000  O
  O17      1.0000 0.44750  0.47590  0.49050  Biso   1.000  O
  O18      1.0000 0.52410  0.94750  0.99050  Biso   1.000  O
  O19      1.0000 0.97590  0.55250  0.99050  Biso   1.000  O
  O20      1.0000 0.05250  0.02410  0.49050  Biso   1.000  O
  O21      1.0000 0.55250  0.52410  0.50950  Biso   1.000  O
  O22      1.0000 0.47590  0.05250  0.00950  Biso   1.000  O
  O23      1.0000 0.02410  0.44750  0.00950  Biso   1.000  O
  O24      1.0000 0.94750  0.97590  0.50950  Biso   1.000  O
  O25      1.0000 0.51000  0.54480  0.43610  Biso   1.000  O
  O26      1.0000 0.45520  0.01000  0.93610  Biso   1.000  O
  O27      1.0000 0.04480  0.49000  0.93610  Biso   1.000  O
  O28      1.0000 0.99000  0.95520  0.43610  Biso   1.000  O
  O29      1.0000 0.49000  0.45520  0.56390  Biso   1.000  O
  O30      1.0000 0.54480  0.99000  0.06390  Biso   1.000  O
  O31      1.0000 0.95520  0.51000  0.06390  Biso   1.000  O
  O32      1.0000 0.01000  0.04480  0.56390  Biso   1.000  O
  O33      1.0000 0.57390  0.30930  0.58630  Biso   1.000  O
  O34      1.0000 0.69070  0.07390  0.08630  Biso   1.000  O
  O35      1.0000 0.80930  0.42610  0.08630  Biso   1.000  O
  O36      1.0000 0.92610  0.19070  0.58630  Biso   1.000  O
  O37      1.0000 0.42610  0.69070  0.41370  Biso   1.000  O
  O38      1.0000 0.30930  0.92610  0.91370  Biso   1.000  O
  O39      1.0000 0.19070  0.57390  0.91370  Biso   1.000  O
  O40      1.0000 0.07390  0.80930  0.41370  Biso   1.000  O
  O41      1.0000 0.64240  0.51830  0.56980  Biso   1.000  O
  O42      1.0000 0.48170  0.14240  0.06980  Biso   1.000  O
  O43      1.0000 0.01830  0.35760  0.06980  Biso   1.000  O
  O44      1.0000 0.85760  0.98170  0.56980  Biso   1.000  O
  O45      1.0000 0.35760  0.48170  0.43020  Biso   1.000  O
  O46      1.0000 0.51830  0.85760  0.93020  Biso   1.000  O
  O47      1.0000 0.98170  0.64240  0.93020  Biso   1.000  O
  O48      1.0000 0.14240  0.01830  0.43020  Biso   1.000  O
  O49      1.0000 0.60080  0.61170  0.52000  Biso   1.000  O
  O50      1.0000 0.38830  0.10080  0.02000  Biso   1.000  O
  O51      1.0000 0.11170  0.39920  0.02000  Biso   1.000  O
  O52      1.0000 0.89920  0.88830  0.52000  Biso   1.000  O
  O53      1.0000 0.39920  0.38830  0.48000  Biso   1.000  O
  O54      1.0000 0.61170  0.89920  0.98000  Biso   1.000  O
  O55      1.0000 0.88830  0.60080  0.98000  Biso   1.000  O
  O56      1.0000 0.10080  0.11170  0.48000  Biso   1.000  O
  O57      1.0000 0.70950  0.45770  0.48440  Biso   1.000  O
  O58      1.0000 0.54230  0.20950  0.98440  Biso   1.000  O
  O59      1.0000 0.95770  0.29050  0.98440  Biso   1.000  O
  O60      1.0000 0.79050  0.04230  0.48440  Biso   1.000  O
  O61      1.0000 0.29050  0.54230  0.51560  Biso   1.000  O
  O62      1.0000 0.45770  0.79050  0.01560  Biso   1.000  O
  O63      1.0000 0.04230  0.70950  0.01560  Biso   1.000  O
  O64      1.0000 0.20950  0.95770  0.51560  Biso   1.000  O
  O65      1.0000 0.63600  0.53600  0.43030  Biso   1.000  O
  O66      1.0000 0.46400  0.13600  0.93030  Biso   1.000  O
  O67      1.0000 0.03600  0.36400  0.93030  Biso   1.000  O
  O68      1.0000 0.86400  0.96400  0.43030  Biso   1.000  O
  O69      1.0000 0.36400  0.46400  0.56970  Biso   1.000  O
  O70      1.0000 0.53600  0.86400  0.06970  Biso   1.000  O
  O71      1.0000 0.96400  0.63600  0.06970  Biso   1.000  O
  O72      1.0000 0.13600  0.03600  0.56970  Biso   1.000  O
  O73      1.0000 0.52870  0.61180  0.62810  Biso   1.000  O
  O74      1.0000 0.38820  0.02870  0.12810  Biso   1.000  O
  O75      1.0000 0.11180  0.47130  0.12810  Biso   1.000  O
  O76      1.0000 0.97130  0.88820  0.62810  Biso   1.000  O
  O77      1.0000 0.47130  0.38820  0.37190  Biso   1.000  O
  O78      1.0000 0.61180  0.97130  0.87190  Biso   1.000  O
  O79      1.0000 0.88820  0.52870  0.87190  Biso   1.000  O
  O80      1.0000 0.02870  0.11180  0.37190  Biso   1.000  O
  O81      1.0000 0.53610  0.46360  0.31410  Biso   1.000  O
  O82      1.0000 0.53640  0.03610  0.81410  Biso   1.000  O
  O83      1.0000 0.96360  0.46390  0.81410  Biso   1.000  O
  O84      1.0000 0.96390  0.03640  0.31410  Biso   1.000  O
  O85      1.0000 0.46390  0.53640  0.68590  Biso   1.000  O
  O86      1.0000 0.46360  0.96390  0.18590  Biso   1.000  O
  O87      1.0000 0.03640  0.53610  0.18590  Biso   1.000  O
  O88      1.0000 0.03610  0.96360  0.68590  Biso   1.000  O
  O89      1.0000 0.57200  0.35710  0.31360  Biso   1.000  O
  O90      1.0000 0.64290  0.07200  0.81360  Biso   1.000  O
  O91      1.0000 0.85710  0.42800  0.81360  Biso   1.000  O
  O92      1.0000 0.92800  0.14290  0.31360  Biso   1.000  O
  O93      1.0000 0.42800  0.64290  0.68640  Biso   1.000  O
  O94      1.0000 0.35710  0.92800  0.18640  Biso   1.000  O
  O95      1.0000 0.14290  0.57200  0.18640  Biso   1.000  O
  O96      1.0000 0.07200  0.85710  0.68640  Biso   1.000  O
  O97      1.0000 0.57050  0.51820  0.67250  Biso   1.000  O
  O98      1.0000 0.48180  0.07050  0.17250  Biso   1.000  O
  O99      1.0000 0.01820  0.42950  0.17250  Biso   1.000  O
  O100     1.0000 0.92950  0.98180  0.67250  Biso   1.000  O
  O101     1.0000 0.42950  0.48180  0.32750  Biso   1.000  O
  O102     1.0000 0.51820  0.92950  0.82750  Biso   1.000  O
  O103     1.0000 0.98180  0.57050  0.82750  Biso   1.000  O
  O104     1.0000 0.07050  0.01820  0.32750  Biso   1.000  O
  O105     1.0000 0.63490  0.64110  0.38090  Biso   1.000  O
  O106     1.0000 0.35890  0.13490  0.88090  Biso   1.000  O
  O107     1.0000 0.14110  0.36510  0.88090  Biso   1.000  O
  O108     1.0000 0.86510  0.85890  0.38090  Biso   1.000  O
  O109     1.0000 0.36510  0.35890  0.61910  Biso   1.000  O
  O110     1.0000 0.64110  0.86510  0.11910  Biso   1.000  O
  O111     1.0000 0.85890  0.63490  0.11910  Biso   1.000  O
  O112     1.0000 0.13490  0.14110  0.61910  Biso   1.000  O
  O113     1.0000 0.48610  0.53920  0.22590  Biso   1.000  O
  O114     1.0000 0.46080  0.98610  0.72590  Biso   1.000  O
  O115     1.0000 0.03920  0.51390  0.72590  Biso   1.000  O
  O116     1.0000 0.01390  0.96080  0.22590  Biso   1.000  O
  O117     1.0000 0.51390  0.46080  0.77410  Biso   1.000  O
  O118     1.0000 0.53920  0.01390  0.27410  Biso   1.000  O
  O119     1.0000 0.96080  0.48610  0.27410  Biso   1.000  O
  O120     1.0000 0.98610  0.03920  0.77410  Biso   1.000  O
  O121     1.0000 0.55850  0.56730  0.33510  Biso   1.000  O
  O122     1.0000 0.43270  0.05850  0.83510  Biso   1.000  O
  O123     1.0000 0.06730  0.44150  0.83510  Biso   1.000  O
  O124     1.0000 0.94150  0.93270  0.33510  Biso   1.000  O
  O125     1.0000 0.44150  0.43270  0.66490  Biso   1.000  O
  O126     1.0000 0.56730  0.94150  0.16490  Biso   1.000  O
  O127     1.0000 0.93270  0.55850  0.16490  Biso   1.000  O
  O128     1.0000 0.05850  0.06730  0.66490  Biso   1.000  O
  O129     1.0000 0.63800  0.61260  0.65750  Biso   1.000  O
  O130     1.0000 0.38740  0.13800  0.15750  Biso   1.000  O
  O131     1.0000 0.11260  0.36200  0.15750  Biso   1.000  O
  O132     1.0000 0.86200  0.88740  0.65750  Biso   1.000  O
  O133     1.0000 0.36200  0.38740  0.34250  Biso   1.000  O
  O134     1.0000 0.61260  0.86200  0.84250  Biso   1.000  O
  O135     1.0000 0.88740  0.63800  0.84250  Biso   1.000  O
  O136     1.0000 0.13800  0.11260  0.34250  Biso   1.000  O
  O137     1.0000 0.54940  0.35990  0.46140  Biso   1.000  O
  O138     1.0000 0.64010  0.04940  0.96140  Biso   1.000  O
  O139     1.0000 0.85990  0.45060  0.96140  Biso   1.000  O
  O140     1.0000 0.95060  0.14010  0.46140  Biso   1.000  O
  O141     1.0000 0.45060  0.64010  0.53860  Biso   1.000  O
  O142     1.0000 0.35990  0.95060  0.03860  Biso   1.000  O
  O143     1.0000 0.14010  0.54940  0.03860  Biso   1.000  O
  O144     1.0000 0.04940  0.85990  0.53860  Biso   1.000  O
  O145     1.0000 0.52540  0.64070  0.43020  Biso   1.000  O
  O146     1.0000 0.35930  0.02540  0.93020  Biso   1.000  O
  O147     1.0000 0.14070  0.47460  0.93020  Biso   1.000  O
  O148     1.0000 0.97460  0.85930  0.43020  Biso   1.000  O
  O149     1.0000 0.47460  0.35930  0.56980  Biso   1.000  O
  O150     1.0000 0.64070  0.97460  0.06980  Biso   1.000  O
  O151     1.0000 0.85930  0.52540  0.06980  Biso   1.000  O
  O152     1.0000 0.02540  0.14070  0.56980  Biso   1.000  O
  O153     1.0000 0.61570  0.43280  0.40610  Biso   1.000  O
  O154     1.0000 0.56720  0.11570  0.90610  Biso   1.000  O
  O155     1.0000 0.93280  0.38430  0.90610  Biso   1.000  O
  O156     1.0000 0.88430  0.06720  0.40610  Biso   1.000  O
  O157     1.0000 0.38430  0.56720  0.59390  Biso   1.000  O
  O158     1.0000 0.43280  0.88430  0.09390  Biso   1.000  O
  O159     1.0000 0.06720  0.61570  0.09390  Biso   1.000  O
  O160     1.0000 0.11570  0.93280  0.59390  Biso   1.000  O
  O161     1.0000 0.61520  0.41250  0.54540  Biso   1.000  O
  O162     1.0000 0.58750  0.11520  0.04540  Biso   1.000  O
  O163     1.0000 0.91250  0.38480  0.04540  Biso   1.000  O
  O164     1.0000 0.88480  0.08750  0.54540  Biso   1.000  O
  O165     1.0000 0.38480  0.58750  0.45460  Biso   1.000  O
  O166     1.0000 0.41250  0.88480  0.95460  Biso   1.000  O
  O167     1.0000 0.08750  0.61520  0.95460  Biso   1.000  O
  O168     1.0000 0.11520  0.91250  0.45460  Biso   1.000  O
  O169     1.0000 0.45330  0.58890  0.34990  Biso   1.000  O
  O170     1.0000 0.41110  0.95330  0.84990  Biso   1.000  O
  O171     1.0000 0.08890  0.54670  0.84990  Biso   1.000  O
  O172     1.0000 0.04670  0.91110  0.34990  Biso   1.000  O
  O173     1.0000 0.54670  0.41110  0.65010  Biso   1.000  O
  O174     1.0000 0.58890  0.04670  0.15010  Biso   1.000  O
  O175     1.0000 0.91110  0.45330  0.15010  Biso   1.000  O
  O176     1.0000 0.95330  0.08890  0.65010  Biso   1.000  O
  Cu1      1.0000 0.57327  0.41536  0.01327  Biso   1.000  Cu
  Cu2      1.0000 0.58464  0.07327  0.51327  Biso   1.000  Cu
  Cu3      1.0000 0.91536  0.42673  0.51327  Biso   1.000  Cu
  Cu4      1.0000 0.92673  0.08464  0.01327  Biso   1.000  Cu
  Cu5      1.0000 0.42673  0.58464  0.98673  Biso   1.000  Cu
  Cu6      1.0000 0.41536  0.92673  0.48673  Biso   1.000  Cu
  Cu7      1.0000 0.08464  0.57327  0.48673  Biso   1.000  Cu
  Cu8      1.0000 0.07327  0.91536  0.98673  Biso   1.000  Cu
  Cl1      1.0000 0.50000  0.50000  0.00000  Biso   1.000  Cl
  Cl2      1.0000 0.50000  0.00000  0.50000  Biso   1.000  Cl
  Cl3      1.0000 0.00000  0.50000  0.50000  Biso   1.000  Cl
  Cl4      1.0000 0.00000  0.00000  0.00000  Biso   1.000  Cl
  C1       1.0000 0.49540  0.39610  0.13360  Biso   1.000  C
  C2       1.0000 0.60390  0.99540  0.63360  Biso   1.000  C
  C3       1.0000 0.89610  0.50460  0.63360  Biso   1.000  C
  C4       1.0000 0.00460  0.10390  0.13360  Biso   1.000  C
  C5       1.0000 0.50460  0.60390  0.86640  Biso   1.000  C
  C6       1.0000 0.39610  0.00460  0.36640  Biso   1.000  C
  C7       1.0000 0.10390  0.49540  0.36640  Biso   1.000  C
  C8       1.0000 0.99540  0.89610  0.86640  Biso   1.000  C
  H1       1.0000 0.50010  0.43390  0.14020  Biso   1.000  H
  H2       1.0000 0.56610  0.00010  0.64020  Biso   1.000  H
  H3       1.0000 0.93390  0.49990  0.64020  Biso   1.000  H
  H4       1.0000 0.99990  0.06610  0.14020  Biso   1.000  H
  H5       1.0000 0.49990  0.56610  0.85980  Biso   1.000  H
  H6       1.0000 0.43390  0.99990  0.35980  Biso   1.000  H
  H7       1.0000 0.06610  0.50010  0.35980  Biso   1.000  H
  H8       1.0000 0.00010  0.93390  0.85980  Biso   1.000  H
  C9       1.0000 0.46110  0.36980  0.17860  Biso   1.000  C
  C10      1.0000 0.63020  0.96110  0.67860  Biso   1.000  C
  C11      1.0000 0.86980  0.53890  0.67860  Biso   1.000  C
  C12      1.0000 0.03890  0.13020  0.17860  Biso   1.000  C
  C13      1.0000 0.53890  0.63020  0.82140  Biso   1.000  C
  C14      1.0000 0.36980  0.03890  0.32140  Biso   1.000  C
  C15      1.0000 0.13020  0.46110  0.32140  Biso   1.000  C
  C16      1.0000 0.96110  0.86980  0.82140  Biso   1.000  C
  H9       1.0000 0.44400  0.38870  0.21590  Biso   1.000  H
  H10      1.0000 0.61130  0.94400  0.71590  Biso   1.000  H
  H11      1.0000 0.88870  0.55600  0.71590  Biso   1.000  H
  H12      1.0000 0.05600  0.11130  0.21590  Biso   1.000  H
  H13      1.0000 0.55600  0.61130  0.78410  Biso   1.000  H
  H14      1.0000 0.38870  0.05600  0.28410  Biso   1.000  H
  H15      1.0000 0.11130  0.44400  0.28410  Biso   1.000  H
  H16      1.0000 0.94400  0.88870  0.78410  Biso   1.000  H
  C17      1.0000 0.45140  0.31400  0.16870  Biso   1.000  C
  C18      1.0000 0.68600  0.95140  0.66870  Biso   1.000  C
  C19      1.0000 0.81400  0.54860  0.66870  Biso   1.000  C
  C20      1.0000 0.04860  0.18600  0.16870  Biso   1.000  C
  C21      1.0000 0.54860  0.68600  0.83130  Biso   1.000  C
  C22      1.0000 0.31400  0.04860  0.33130  Biso   1.000  C
  C23      1.0000 0.18600  0.45140  0.33130  Biso   1.000  C
  C24      1.0000 0.95140  0.81400  0.83130  Biso   1.000  C
  C25      1.0000 0.47990  0.28820  0.11510  Biso   1.000  C
  C26      1.0000 0.71180  0.97990  0.61510  Biso   1.000  C
  C27      1.0000 0.78820  0.52010  0.61510  Biso   1.000  C
  C28      1.0000 0.02010  0.21180  0.11510  Biso   1.000  C
  C29      1.0000 0.52010  0.71180  0.88490  Biso   1.000  C
  C30      1.0000 0.28820  0.02010  0.38490  Biso   1.000  C
  C31      1.0000 0.21180  0.47990  0.38490  Biso   1.000  C
  C32      1.0000 0.97990  0.78820  0.88490  Biso   1.000  C
  H17      1.0000 0.47560  0.25050  0.10760  Biso   1.000  H
  H18      1.0000 0.74950  0.97560  0.60760  Biso   1.000  H
  H19      1.0000 0.75050  0.52440  0.60760  Biso   1.000  H
  H20      1.0000 0.02440  0.24950  0.10760  Biso   1.000  H
  H21      1.0000 0.52440  0.74950  0.89240  Biso   1.000  H
  H22      1.0000 0.25050  0.02440  0.39240  Biso   1.000  H
  H23      1.0000 0.24950  0.47560  0.39240  Biso   1.000  H
  H24      1.0000 0.97560  0.75050  0.89240  Biso   1.000  H
  C33      1.0000 0.51500  0.31830  0.07220  Biso   1.000  C
  C34      1.0000 0.68170  0.01500  0.57220  Biso   1.000  C
  C35      1.0000 0.81830  0.48500  0.57220  Biso   1.000  C
  C36      1.0000 0.98500  0.18170  0.07220  Biso   1.000  C
  C37      1.0000 0.48500  0.68170  0.92780  Biso   1.000  C
  C38      1.0000 0.31830  0.98500  0.42780  Biso   1.000  C
  C39      1.0000 0.18170  0.51500  0.42780  Biso   1.000  C
  C40      1.0000 0.01500  0.81830  0.92780  Biso   1.000  C
  H25      1.0000 0.53380  0.30000  0.03590  Biso   1.000  H
  H26      1.0000 0.70000  0.03380  0.53590  Biso   1.000  H
  H27      1.0000 0.80000  0.46620  0.53590  Biso   1.000  H
  H28      1.0000 0.96620  0.20000  0.03590  Biso   1.000  H
  H29      1.0000 0.46620  0.70000  0.96410  Biso   1.000  H
  H30      1.0000 0.30000  0.96620  0.46410  Biso   1.000  H
  H31      1.0000 0.20000  0.53380  0.46410  Biso   1.000  H
  H32      1.0000 0.03380  0.80000  0.96410  Biso   1.000  H
  C41      1.0000 0.51670  0.11390  0.39300  Biso   1.000  C
  C42      1.0000 0.88610  0.01670  0.89300  Biso   1.000  C
  C43      1.0000 0.61390  0.48330  0.89300  Biso   1.000  C
  C44      1.0000 0.98330  0.38610  0.39300  Biso   1.000  C
  C45      1.0000 0.48330  0.88610  0.60700  Biso   1.000  C
  C46      1.0000 0.11390  0.98330  0.10700  Biso   1.000  C
  C47      1.0000 0.38610  0.51670  0.10700  Biso   1.000  C
  C48      1.0000 0.01670  0.61390  0.60700  Biso   1.000  C
  H33      1.0000 0.51300  0.07650  0.38280  Biso   1.000  H
  H34      1.0000 0.92350  0.01300  0.88280  Biso   1.000  H
  H35      1.0000 0.57650  0.48700  0.88280  Biso   1.000  H
  H36      1.0000 0.98700  0.42350  0.38280  Biso   1.000  H
  H37      1.0000 0.48700  0.92350  0.61720  Biso   1.000  H
  H38      1.0000 0.07650  0.98700  0.11720  Biso   1.000  H
  H39      1.0000 0.42350  0.51300  0.11720  Biso   1.000  H
  H40      1.0000 0.01300  0.57650  0.61720  Biso   1.000  H
  C49      1.0000 0.48980  0.15220  0.35000  Biso   1.000  C
  C50      1.0000 0.84780  0.98980  0.85000  Biso   1.000  C
  C51      1.0000 0.65220  0.51020  0.85000  Biso   1.000  C
  C52      1.0000 0.01020  0.34780  0.35000  Biso   1.000  C
  C53      1.0000 0.51020  0.84780  0.65000  Biso   1.000  C
  C54      1.0000 0.15220  0.01020  0.15000  Biso   1.000  C
  C55      1.0000 0.34780  0.48980  0.15000  Biso   1.000  C
  C56      1.0000 0.98980  0.65220  0.65000  Biso   1.000  C
  H41      1.0000 0.46660  0.14010  0.31350  Biso   1.000  H
  H42      1.0000 0.85990  0.96660  0.81350  Biso   1.000  H
  H43      1.0000 0.64010  0.53340  0.81350  Biso   1.000  H
  H44      1.0000 0.03340  0.35990  0.31350  Biso   1.000  H
  H45      1.0000 0.53340  0.85990  0.68650  Biso   1.000  H
  H46      1.0000 0.14010  0.03340  0.18650  Biso   1.000  H
  H47      1.0000 0.35990  0.46660  0.18650  Biso   1.000  H
  H48      1.0000 0.96660  0.64010  0.68650  Biso   1.000  H
  C57      1.0000 0.49710  0.20740  0.36070  Biso   1.000  C
  C58      1.0000 0.79260  0.99710  0.86070  Biso   1.000  C
  C59      1.0000 0.70740  0.50290  0.86070  Biso   1.000  C
  C60      1.0000 0.00290  0.29260  0.36070  Biso   1.000  C
  C61      1.0000 0.50290  0.79260  0.63930  Biso   1.000  C
  C62      1.0000 0.20740  0.00290  0.13930  Biso   1.000  C
  C63      1.0000 0.29260  0.49710  0.13930  Biso   1.000  C
  C64      1.0000 0.99710  0.70740  0.63930  Biso   1.000  C
  C65      1.0000 0.53040  0.22220  0.41750  Biso   1.000  C
  C66      1.0000 0.77780  0.03040  0.91750  Biso   1.000  C
  C67      1.0000 0.72220  0.46960  0.91750  Biso   1.000  C
  C68      1.0000 0.96960  0.27780  0.41750  Biso   1.000  C
  C69      1.0000 0.46960  0.77780  0.58250  Biso   1.000  C
  C70      1.0000 0.22220  0.96960  0.08250  Biso   1.000  C
  C71      1.0000 0.27780  0.53040  0.08250  Biso   1.000  C
  C72      1.0000 0.03040  0.72220  0.58250  Biso   1.000  C
  H49      1.0000 0.53660  0.25950  0.42640  Biso   1.000  H
  H50      1.0000 0.74050  0.03660  0.92640  Biso   1.000  H
  H51      1.0000 0.75950  0.46340  0.92640  Biso   1.000  H
  H52      1.0000 0.96340  0.24050  0.42640  Biso   1.000  H
  H53      1.0000 0.46340  0.74050  0.57360  Biso   1.000  H
  H54      1.0000 0.25950  0.96340  0.07360  Biso   1.000  H
  H55      1.0000 0.24050  0.53660  0.07360  Biso   1.000  H
  H56      1.0000 0.03660  0.75950  0.57360  Biso   1.000  H
  C73      1.0000 0.55430  0.18450  0.46030  Biso   1.000  C
  C74      1.0000 0.81550  0.05430  0.96030  Biso   1.000  C
  C75      1.0000 0.68450  0.44570  0.96030  Biso   1.000  C
  C76      1.0000 0.94570  0.31550  0.46030  Biso   1.000  C
  C77      1.0000 0.44570  0.81550  0.53970  Biso   1.000  C
  C78      1.0000 0.18450  0.94570  0.03970  Biso   1.000  C
  C79      1.0000 0.31550  0.55430  0.03970  Biso   1.000  C
  C80      1.0000 0.05430  0.68450  0.53970  Biso   1.000  C
  H57      1.0000 0.57570  0.19640  0.49870  Biso   1.000  H
  H58      1.0000 0.80360  0.07570  0.99870  Biso   1.000  H
  H59      1.0000 0.69640  0.42430  0.99870  Biso   1.000  H
  H60      1.0000 0.92430  0.30360  0.49870  Biso   1.000  H
  H61      1.0000 0.42430  0.80360  0.50130  Biso   1.000  H
  H62      1.0000 0.19640  0.92430  0.00130  Biso   1.000  H
  H63      1.0000 0.30360  0.57570  0.00130  Biso   1.000  H
  H64      1.0000 0.07570  0.69640  0.50130  Biso   1.000  H
  C81      1.0000 0.41030  0.28200  0.21560  Biso   1.000  C
  C82      1.0000 0.71800  0.91030  0.71560  Biso   1.000  C
  C83      1.0000 0.78200  0.58970  0.71560  Biso   1.000  C
  C84      1.0000 0.08970  0.21800  0.21560  Biso   1.000  C
  C85      1.0000 0.58970  0.71800  0.78440  Biso   1.000  C
  C86      1.0000 0.28200  0.08970  0.28440  Biso   1.000  C
  C87      1.0000 0.21800  0.41030  0.28440  Biso   1.000  C
  C88      1.0000 0.91030  0.78200  0.78440  Biso   1.000  C
  H65      1.0000 0.39230  0.30780  0.24790  Biso   1.000  H
  H66      1.0000 0.69220  0.89230  0.74790  Biso   1.000  H
  H67      1.0000 0.80780  0.60770  0.74790  Biso   1.000  H
  H68      1.0000 0.10770  0.19220  0.24790  Biso   1.000  H
  H69      1.0000 0.60770  0.69220  0.75210  Biso   1.000  H
  H70      1.0000 0.30780  0.10770  0.25210  Biso   1.000  H
  H71      1.0000 0.19220  0.39230  0.25210  Biso   1.000  H
  H72      1.0000 0.89230  0.80780  0.75210  Biso   1.000  H
  H73      1.0000 0.38200  0.26630  0.18490  Biso   1.000  H
  H74      1.0000 0.73370  0.88200  0.68490  Biso   1.000  H
  H75      1.0000 0.76630  0.61800  0.68490  Biso   1.000  H
  H76      1.0000 0.11800  0.23370  0.18490  Biso   1.000  H
  H77      1.0000 0.61800  0.73370  0.81510  Biso   1.000  H
  H78      1.0000 0.26630  0.11800  0.31510  Biso   1.000  H
  H79      1.0000 0.23370  0.38200  0.31510  Biso   1.000  H
  H80      1.0000 0.88200  0.76630  0.81510  Biso   1.000  H
  C89      1.0000 0.43530  0.23610  0.25960  Biso   1.000  C
  C90      1.0000 0.76390  0.93530  0.75960  Biso   1.000  C
  C91      1.0000 0.73610  0.56470  0.75960  Biso   1.000  C
  C92      1.0000 0.06470  0.26390  0.25960  Biso   1.000  C
  C93      1.0000 0.56470  0.76390  0.74040  Biso   1.000  C
  C94      1.0000 0.23610  0.06470  0.24040  Biso   1.000  C
  C95      1.0000 0.26390  0.43530  0.24040  Biso   1.000  C
  C96      1.0000 0.93530  0.73610  0.74040  Biso   1.000  C
  H81      1.0000 0.40570  0.21570  0.28240  Biso   1.000  H
  H82      1.0000 0.78430  0.90570  0.78240  Biso   1.000  H
  H83      1.0000 0.71570  0.59430  0.78240  Biso   1.000  H
  H84      1.0000 0.09430  0.28430  0.28240  Biso   1.000  H
  H85      1.0000 0.59430  0.78430  0.71760  Biso   1.000  H
  H86      1.0000 0.21570  0.09430  0.21760  Biso   1.000  H
  H87      1.0000 0.28430  0.40570  0.21760  Biso   1.000  H
  H88      1.0000 0.90570  0.71570  0.71760  Biso   1.000  H
  H89      1.0000 0.45420  0.21100  0.22740  Biso   1.000  H
  H90      1.0000 0.78900  0.95420  0.72740  Biso   1.000  H
  H91      1.0000 0.71100  0.54580  0.72740  Biso   1.000  H
  H92      1.0000 0.04580  0.28900  0.22740  Biso   1.000  H
  H93      1.0000 0.54580  0.78900  0.77260  Biso   1.000  H
  H94      1.0000 0.21100  0.04580  0.27260  Biso   1.000  H
  H95      1.0000 0.28900  0.45420  0.27260  Biso   1.000  H
  H96      1.0000 0.95420  0.71100  0.77260  Biso   1.000  H
  C97      1.0000 0.47230  0.25300  0.31220  Biso   1.000  C
  C98      1.0000 0.74700  0.97230  0.81220  Biso   1.000  C
  C99      1.0000 0.75300  0.52770  0.81220  Biso   1.000  C
  C100     1.0000 0.02770  0.24700  0.31220  Biso   1.000  C
  C101     1.0000 0.52770  0.74700  0.68780  Biso   1.000  C
  C102     1.0000 0.25300  0.02770  0.18780  Biso   1.000  C
  C103     1.0000 0.24700  0.47230  0.18780  Biso   1.000  C
  C104     1.0000 0.97230  0.75300  0.68780  Biso   1.000  C
  H97      1.0000 0.45370  0.27960  0.34280  Biso   1.000  H
  H98      1.0000 0.72040  0.95370  0.84280  Biso   1.000  H
  H99      1.0000 0.77960  0.54630  0.84280  Biso   1.000  H
  H100     1.0000 0.04630  0.22040  0.34280  Biso   1.000  H
  H101     1.0000 0.54630  0.72040  0.65720  Biso   1.000  H
  H102     1.0000 0.27960  0.04630  0.15720  Biso   1.000  H
  H103     1.0000 0.22040  0.45370  0.15720  Biso   1.000  H
  H104     1.0000 0.95370  0.77960  0.65720  Biso   1.000  H
  H105     1.0000 0.50250  0.27220  0.28890  Biso   1.000  H
  H106     1.0000 0.72780  0.00250  0.78890  Biso   1.000  H
  H107     1.0000 0.77220  0.49750  0.78890  Biso   1.000  H
  H108     1.0000 0.99750  0.22780  0.28890  Biso   1.000  H
  H109     1.0000 0.49750  0.72780  0.71110  Biso   1.000  H
  H110     1.0000 0.27220  0.99750  0.21110  Biso   1.000  H
  H111     1.0000 0.22780  0.50250  0.21110  Biso   1.000  H
  H112     1.0000 0.00250  0.77220  0.71110  Biso   1.000  H
  C105     1.0000 0.61060  0.49730  0.11560  Biso   1.000  C
  C106     1.0000 0.50270  0.11060  0.61560  Biso   1.000  C
  C107     1.0000 0.99730  0.38940  0.61560  Biso   1.000  C
  C108     1.0000 0.88940  0.00270  0.11560  Biso   1.000  C
  C109     1.0000 0.38940  0.50270  0.88440  Biso   1.000  C
  C110     1.0000 0.49730  0.88940  0.38440  Biso   1.000  C
  C111     1.0000 0.00270  0.61060  0.38440  Biso   1.000  C
  C112     1.0000 0.11060  0.99730  0.88440  Biso   1.000  C
  H113     1.0000 0.58910  0.51990  0.08650  Biso   1.000  H
  H114     1.0000 0.48010  0.08910  0.58650  Biso   1.000  H
  H115     1.0000 0.01990  0.41090  0.58650  Biso   1.000  H
  H116     1.0000 0.91090  0.98010  0.08650  Biso   1.000  H
  H117     1.0000 0.41090  0.48010  0.91350  Biso   1.000  H
  H118     1.0000 0.51990  0.91090  0.41350  Biso   1.000  H
  H119     1.0000 0.98010  0.58910  0.41350  Biso   1.000  H
  H120     1.0000 0.08910  0.01990  0.91350  Biso   1.000  H
  C113     1.0000 0.63810  0.52180  0.17240  Biso   1.000  C
  C114     1.0000 0.47820  0.13810  0.67240  Biso   1.000  C
  C115     1.0000 0.02180  0.36190  0.67240  Biso   1.000  C
  C116     1.0000 0.86190  0.97820  0.17240  Biso   1.000  C
  C117     1.0000 0.36190  0.47820  0.82760  Biso   1.000  C
  C118     1.0000 0.52180  0.86190  0.32760  Biso   1.000  C
  C119     1.0000 0.97820  0.63810  0.32760  Biso   1.000  C
  C120     1.0000 0.13810  0.02180  0.82760  Biso   1.000  C
  H121     1.0000 0.63730  0.55970  0.18000  Biso   1.000  H
  H122     1.0000 0.44030  0.13730  0.68000  Biso   1.000  H
  H123     1.0000 0.05970  0.36270  0.68000  Biso   1.000  H
  H124     1.0000 0.86270  0.94030  0.18000  Biso   1.000  H
  H125     1.0000 0.36270  0.44030  0.82000  Biso   1.000  H
  H126     1.0000 0.55970  0.86270  0.32000  Biso   1.000  H
  H127     1.0000 0.94030  0.63730  0.32000  Biso   1.000  H
  H128     1.0000 0.13730  0.05970  0.82000  Biso   1.000  H
  C121     1.0000 0.66700  0.48660  0.21740  Biso   1.000  C
  C122     1.0000 0.51340  0.16700  0.71740  Biso   1.000  C
  C123     1.0000 0.98660  0.33300  0.71740  Biso   1.000  C
  C124     1.0000 0.83300  0.01340  0.21740  Biso   1.000  C
  C125     1.0000 0.33300  0.51340  0.78260  Biso   1.000  C
  C126     1.0000 0.48660  0.83300  0.28260  Biso   1.000  C
  C127     1.0000 0.01340  0.66700  0.28260  Biso   1.000  C
  C128     1.0000 0.16700  0.98660  0.78260  Biso   1.000  C
  C129     1.0000 0.66930  0.43590  0.20220  Biso   1.000  C
  C130     1.0000 0.56410  0.16930  0.70220  Biso   1.000  C
  C131     1.0000 0.93590  0.33070  0.70220  Biso   1.000  C
  C132     1.0000 0.83070  0.06410  0.20220  Biso   1.000  C
  C133     1.0000 0.33070  0.56410  0.79780  Biso   1.000  C
  C134     1.0000 0.43590  0.83070  0.29780  Biso   1.000  C
  C135     1.0000 0.06410  0.66930  0.29780  Biso   1.000  C
  C136     1.0000 0.16930  0.93590  0.79780  Biso   1.000  C
  H129     1.0000 0.68920  0.41240  0.23190  Biso   1.000  H
  H130     1.0000 0.58760  0.18920  0.73190  Biso   1.000  H
  H131     1.0000 0.91240  0.31080  0.73190  Biso   1.000  H
  H132     1.0000 0.81080  0.08760  0.23190  Biso   1.000  H
  H133     1.0000 0.31080  0.58760  0.76810  Biso   1.000  H
  H134     1.0000 0.41240  0.81080  0.26810  Biso   1.000  H
  H135     1.0000 0.08760  0.68920  0.26810  Biso   1.000  H
  H136     1.0000 0.18920  0.91240  0.76810  Biso   1.000  H
  C137     1.0000 0.64280  0.41430  0.14230  Biso   1.000  C
  C138     1.0000 0.58570  0.14280  0.64230  Biso   1.000  C
  C139     1.0000 0.91430  0.35720  0.64230  Biso   1.000  C
  C140     1.0000 0.85720  0.08570  0.14230  Biso   1.000  C
  C141     1.0000 0.35720  0.58570  0.85770  Biso   1.000  C
  C142     1.0000 0.41430  0.85720  0.35770  Biso   1.000  C
  C143     1.0000 0.08570  0.64280  0.35770  Biso   1.000  C
  C144     1.0000 0.14280  0.91430  0.85770  Biso   1.000  C
  H137     1.0000 0.64640  0.37690  0.13160  Biso   1.000  H
  H138     1.0000 0.62310  0.14640  0.63160  Biso   1.000  H
  H139     1.0000 0.87690  0.35360  0.63160  Biso   1.000  H
  H140     1.0000 0.85360  0.12310  0.13160  Biso   1.000  H
  H141     1.0000 0.35360  0.62310  0.86840  Biso   1.000  H
  H142     1.0000 0.37690  0.85360  0.36840  Biso   1.000  H
  H143     1.0000 0.12310  0.64640  0.36840  Biso   1.000  H
  H144     1.0000 0.14640  0.87690  0.86840  Biso   1.000  H
  C145     1.0000 0.85290  0.43250  0.37540  Biso   1.000  C
  C146     1.0000 0.56750  0.35290  0.87540  Biso   1.000  C
  C147     1.0000 0.93250  0.14710  0.87540  Biso   1.000  C
  C148     1.0000 0.64710  0.06750  0.37540  Biso   1.000  C
  C149     1.0000 0.14710  0.56750  0.62460  Biso   1.000  C
  C150     1.0000 0.43250  0.64710  0.12460  Biso   1.000  C
  C151     1.0000 0.06750  0.85290  0.12460  Biso   1.000  C
  C152     1.0000 0.35290  0.93250  0.62460  Biso   1.000  C
  H145     1.0000 0.85430  0.39420  0.37890  Biso   1.000  H
  H146     1.0000 0.60580  0.35430  0.87890  Biso   1.000  H
  H147     1.0000 0.89420  0.14570  0.87890  Biso   1.000  H
  H148     1.0000 0.64570  0.10580  0.37890  Biso   1.000  H
  H149     1.0000 0.14570  0.60580  0.62110  Biso   1.000  H
  H150     1.0000 0.39420  0.64570  0.12110  Biso   1.000  H
  H151     1.0000 0.10580  0.85430  0.12110  Biso   1.000  H
  H152     1.0000 0.35430  0.89420  0.62110  Biso   1.000  H
  C153     1.0000 0.82570  0.45430  0.31640  Biso   1.000  C
  C154     1.0000 0.54570  0.32570  0.81640  Biso   1.000  C
  C155     1.0000 0.95430  0.17430  0.81640  Biso   1.000  C
  C156     1.0000 0.67430  0.04570  0.31640  Biso   1.000  C
  C157     1.0000 0.17430  0.54570  0.68360  Biso   1.000  C
  C158     1.0000 0.45430  0.67430  0.18360  Biso   1.000  C
  C159     1.0000 0.04570  0.82570  0.18360  Biso   1.000  C
  C160     1.0000 0.32570  0.95430  0.68360  Biso   1.000  C
  H153     1.0000 0.80930  0.43120  0.28290  Biso   1.000  H
  H154     1.0000 0.56880  0.30930  0.78290  Biso   1.000  H
  H155     1.0000 0.93120  0.19070  0.78290  Biso   1.000  H
  H156     1.0000 0.69070  0.06880  0.28290  Biso   1.000  H
  H157     1.0000 0.19070  0.56880  0.71710  Biso   1.000  H
  H158     1.0000 0.43120  0.69070  0.21710  Biso   1.000  H
  H159     1.0000 0.06880  0.80930  0.21710  Biso   1.000  H
  H160     1.0000 0.30930  0.93120  0.71710  Biso   1.000  H
  C161     1.0000 0.82370  0.50660  0.30880  Biso   1.000  C
  C162     1.0000 0.49340  0.32370  0.80880  Biso   1.000  C
  C163     1.0000 0.00660  0.17630  0.80880  Biso   1.000  C
  C164     1.0000 0.67630  0.99340  0.30880  Biso   1.000  C
  C165     1.0000 0.17630  0.49340  0.69120  Biso   1.000  C
  C166     1.0000 0.50660  0.67630  0.19120  Biso   1.000  C
  C167     1.0000 0.99340  0.82370  0.19120  Biso   1.000  C
  C168     1.0000 0.32370  0.00660  0.69120  Biso   1.000  C
  C169     1.0000 0.84710  0.53980  0.36100  Biso   1.000  C
  C170     1.0000 0.46020  0.34710  0.86100  Biso   1.000  C
  C171     1.0000 0.03980  0.15290  0.86100  Biso   1.000  C
  C172     1.0000 0.65290  0.96020  0.36100  Biso   1.000  C
  C173     1.0000 0.15290  0.46020  0.63900  Biso   1.000  C
  C174     1.0000 0.53980  0.65290  0.13900  Biso   1.000  C
  C175     1.0000 0.96020  0.84710  0.13900  Biso   1.000  C
  C176     1.0000 0.34710  0.03980  0.63900  Biso   1.000  C
  H161     1.0000 0.84390  0.57790  0.35750  Biso   1.000  H
  H162     1.0000 0.42210  0.34390  0.85750  Biso   1.000  H
  H163     1.0000 0.07790  0.15610  0.85750  Biso   1.000  H
  H164     1.0000 0.65610  0.92210  0.35750  Biso   1.000  H
  H165     1.0000 0.15610  0.42210  0.64250  Biso   1.000  H
  H166     1.0000 0.57790  0.65610  0.14250  Biso   1.000  H
  H167     1.0000 0.92210  0.84390  0.14250  Biso   1.000  H
  H168     1.0000 0.34390  0.07790  0.64250  Biso   1.000  H
  C177     1.0000 0.87590  0.51650  0.41910  Biso   1.000  C
  C178     1.0000 0.48350  0.37590  0.91910  Biso   1.000  C
  C179     1.0000 0.01650  0.12410  0.91910  Biso   1.000  C
  C180     1.0000 0.62410  0.98350  0.41910  Biso   1.000  C
  C181     1.0000 0.12410  0.48350  0.58090  Biso   1.000  C
  C182     1.0000 0.51650  0.62410  0.08090  Biso   1.000  C
  C183     1.0000 0.98350  0.87590  0.08090  Biso   1.000  C
  C184     1.0000 0.37590  0.01650  0.58090  Biso   1.000  C
  H169     1.0000 0.89400  0.53930  0.45170  Biso   1.000  H
  H170     1.0000 0.46070  0.39400  0.95170  Biso   1.000  H
  H171     1.0000 0.03930  0.10600  0.95170  Biso   1.000  H
  H172     1.0000 0.60600  0.96070  0.45170  Biso   1.000  H
  H173     1.0000 0.10600  0.46070  0.54830  Biso   1.000  H
  H174     1.0000 0.53930  0.60600  0.04830  Biso   1.000  H
  H175     1.0000 0.96070  0.89400  0.04830  Biso   1.000  H
  H176     1.0000 0.39400  0.03930  0.54830  Biso   1.000  H
  C185     1.0000 0.69720  0.51020  0.28230  Biso   1.000  C
  C186     1.0000 0.48980  0.19720  0.78230  Biso   1.000  C
  C187     1.0000 0.01020  0.30280  0.78230  Biso   1.000  C
  C188     1.0000 0.80280  0.98980  0.28230  Biso   1.000  C
  C189     1.0000 0.30280  0.48980  0.71770  Biso   1.000  C
  C190     1.0000 0.51020  0.80280  0.21770  Biso   1.000  C
  C191     1.0000 0.98980  0.69720  0.21770  Biso   1.000  C
  C192     1.0000 0.19720  0.01020  0.71770  Biso   1.000  C
  H177     1.0000 0.66980  0.51850  0.31860  Biso   1.000  H
  H178     1.0000 0.48150  0.16980  0.81860  Biso   1.000  H
  H179     1.0000 0.01850  0.33020  0.81860  Biso   1.000  H
  H180     1.0000 0.83020  0.98150  0.31860  Biso   1.000  H
  H181     1.0000 0.33020  0.48150  0.68140  Biso   1.000  H
  H182     1.0000 0.51850  0.83020  0.18140  Biso   1.000  H
  H183     1.0000 0.98150  0.66980  0.18140  Biso   1.000  H
  H184     1.0000 0.16980  0.01850  0.68140  Biso   1.000  H
  H185     1.0000 0.72070  0.48130  0.30150  Biso   1.000  H
  H186     1.0000 0.51870  0.22070  0.80150  Biso   1.000  H
  H187     1.0000 0.98130  0.27930  0.80150  Biso   1.000  H
  H188     1.0000 0.77930  0.01870  0.30150  Biso   1.000  H
  H189     1.0000 0.27930  0.51870  0.69850  Biso   1.000  H
  H190     1.0000 0.48130  0.77930  0.19850  Biso   1.000  H
  H191     1.0000 0.01870  0.72070  0.19850  Biso   1.000  H
  H192     1.0000 0.22070  0.98130  0.69850  Biso   1.000  H
  C193     1.0000 0.72740  0.55380  0.27370  Biso   1.000  C
  C194     1.0000 0.44620  0.22740  0.77370  Biso   1.000  C
  C195     1.0000 0.05380  0.27260  0.77370  Biso   1.000  C
  C196     1.0000 0.77260  0.94620  0.27370  Biso   1.000  C
  C197     1.0000 0.27260  0.44620  0.72630  Biso   1.000  C
  C198     1.0000 0.55380  0.77260  0.22630  Biso   1.000  C
  C199     1.0000 0.94620  0.72740  0.22630  Biso   1.000  C
  C200     1.0000 0.22740  0.05380  0.72630  Biso   1.000  C
  H193     1.0000 0.73130  0.57320  0.31900  Biso   1.000  H
  H194     1.0000 0.42680  0.23130  0.81900  Biso   1.000  H
  H195     1.0000 0.07320  0.26870  0.81900  Biso   1.000  H
  H196     1.0000 0.76870  0.92680  0.31900  Biso   1.000  H
  H197     1.0000 0.26870  0.42680  0.68100  Biso   1.000  H
  H198     1.0000 0.57320  0.76870  0.18100  Biso   1.000  H
  H199     1.0000 0.92680  0.73130  0.18100  Biso   1.000  H
  H200     1.0000 0.23130  0.07320  0.68100  Biso   1.000  H
  H201     1.0000 0.71010  0.57860  0.23950  Biso   1.000  H
  H202     1.0000 0.42140  0.21010  0.73950  Biso   1.000  H
  H203     1.0000 0.07860  0.28990  0.73950  Biso   1.000  H
  H204     1.0000 0.78990  0.92140  0.23950  Biso   1.000  H
  H205     1.0000 0.28990  0.42140  0.76050  Biso   1.000  H
  H206     1.0000 0.57860  0.78990  0.26050  Biso   1.000  H
  H207     1.0000 0.92140  0.71010  0.26050  Biso   1.000  H
  H208     1.0000 0.21010  0.07860  0.76050  Biso   1.000  H
  C201     1.0000 0.78710  0.53480  0.24470  Biso   1.000  C
  C202     1.0000 0.46520  0.28710  0.74470  Biso   1.000  C
  C203     1.0000 0.03480  0.21290  0.74470  Biso   1.000  C
  C204     1.0000 0.71290  0.96520  0.24470  Biso   1.000  C
  C205     1.0000 0.21290  0.46520  0.75530  Biso   1.000  C
  C206     1.0000 0.53480  0.71290  0.25530  Biso   1.000  C
  C207     1.0000 0.96520  0.78710  0.25530  Biso   1.000  C
  C208     1.0000 0.28710  0.03480  0.75530  Biso   1.000  C
  H209     1.0000 0.80660  0.56660  0.22580  Biso   1.000  H
  H210     1.0000 0.43340  0.30660  0.72580  Biso   1.000  H
  H211     1.0000 0.06660  0.19340  0.72580  Biso   1.000  H
  H212     1.0000 0.69340  0.93340  0.22580  Biso   1.000  H
  H213     1.0000 0.19340  0.43340  0.77420  Biso   1.000  H
  H214     1.0000 0.56660  0.69340  0.27420  Biso   1.000  H
  H215     1.0000 0.93340  0.80660  0.27420  Biso   1.000  H
  H216     1.0000 0.30660  0.06660  0.77420  Biso   1.000  H
  H217     1.0000 0.78240  0.50850  0.20600  Biso   1.000  H
  H218     1.0000 0.49150  0.28240  0.70600  Biso   1.000  H
  H219     1.0000 0.00850  0.21760  0.70600  Biso   1.000  H
  H220     1.0000 0.71760  0.99150  0.20600  Biso   1.000  H
  H221     1.0000 0.21760  0.49150  0.79400  Biso   1.000  H
  H222     1.0000 0.50850  0.71760  0.29400  Biso   1.000  H
  H223     1.0000 0.99150  0.78240  0.29400  Biso   1.000  H
  H224     1.0000 0.28240  0.00850  0.79400  Biso   1.000  H
  N1       1.0000 0.52350  0.37240  0.08010  Biso   1.000  N
  N2       1.0000 0.62760  0.02350  0.58010  Biso   1.000  N
  N3       1.0000 0.87240  0.47650  0.58010  Biso   1.000  N
  N4       1.0000 0.97650  0.12760  0.08010  Biso   1.000  N
  N5       1.0000 0.47650  0.62760  0.91990  Biso   1.000  N
  N6       1.0000 0.37240  0.97650  0.41990  Biso   1.000  N
  N7       1.0000 0.12760  0.52350  0.41990  Biso   1.000  N
  N8       1.0000 0.02350  0.87240  0.91990  Biso   1.000  N
  N9       1.0000 0.54810  0.12970  0.44930  Biso   1.000  N
  N10      1.0000 0.87030  0.04810  0.94930  Biso   1.000  N
  N11      1.0000 0.62970  0.45190  0.94930  Biso   1.000  N
  N12      1.0000 0.95190  0.37030  0.44930  Biso   1.000  N
  N13      1.0000 0.45190  0.87030  0.55070  Biso   1.000  N
  N14      1.0000 0.12970  0.95190  0.05070  Biso   1.000  N
  N15      1.0000 0.37030  0.54810  0.05070  Biso   1.000  N
  N16      1.0000 0.04810  0.62970  0.55070  Biso   1.000  N
  N17      1.0000 0.61250  0.44630  0.10040  Biso   1.000  N
  N18      1.0000 0.55370  0.11250  0.60040  Biso   1.000  N
  N19      1.0000 0.94630  0.38750  0.60040  Biso   1.000  N
  N20      1.0000 0.88750  0.05370  0.10040  Biso   1.000  N
  N21      1.0000 0.38750  0.55370  0.89960  Biso   1.000  N
  N22      1.0000 0.44630  0.88750  0.39960  Biso   1.000  N
  N23      1.0000 0.05370  0.61250  0.39960  Biso   1.000  N
  N24      1.0000 0.11250  0.94630  0.89960  Biso   1.000  N
  N25      1.0000 0.87730  0.46120  0.42770  Biso   1.000  N
  N26      1.0000 0.53880  0.37730  0.92770  Biso   1.000  N
  N27      1.0000 0.96120  0.12270  0.92770  Biso   1.000  N
  N28      1.0000 0.62270  0.03880  0.42770  Biso   1.000  N
  N29      1.0000 0.12270  0.53880  0.57230  Biso   1.000  N
  N30      1.0000 0.46120  0.62270  0.07230  Biso   1.000  N
  N31      1.0000 0.03880  0.87730  0.07230  Biso   1.000  N
  N32      1.0000 0.37730  0.96120  0.57230  Biso   1.000  N
  O177     1.0000 0.64590  0.32470  0.01590  Biso   1.000  O
  O178     1.0000 0.67530  0.14590  0.51590  Biso   1.000  O
  O179     1.0000 0.82470  0.35410  0.51590  Biso   1.000  O
  O180     1.0000 0.85410  0.17530  0.01590  Biso   1.000  O
  O181     1.0000 0.35410  0.67530  0.98410  Biso   1.000  O
  O182     1.0000 0.32470  0.85410  0.48410  Biso   1.000  O
  O183     1.0000 0.17530  0.64590  0.48410  Biso   1.000  O
  O184     1.0000 0.14590  0.82470  0.98410  Biso   1.000  O
  O185     1.0000 0.29060  0.63570  0.27980  Biso   1.000  O
  O186     1.0000 0.36430  0.79060  0.77980  Biso   1.000  O
  O187     1.0000 0.13570  0.70940  0.77980  Biso   1.000  O
  O188     1.0000 0.20940  0.86430  0.27980  Biso   1.000  O
  O189     1.0000 0.70940  0.36430  0.72020  Biso   1.000  O
  O190     1.0000 0.63570  0.20940  0.22020  Biso   1.000  O
  O191     1.0000 0.86430  0.29060  0.22020  Biso   1.000  O
  O192     1.0000 0.79060  0.13570  0.72020  Biso   1.000  O
  O193     1.0000 0.67870  0.23330  0.96700  Biso   1.000  O
  O194     1.0000 0.76670  0.17870  0.46700  Biso   1.000  O
  O195     1.0000 0.73330  0.32130  0.46700  Biso   1.000  O
  O196     1.0000 0.82130  0.26670  0.96700  Biso   1.000  O
  O197     1.0000 0.32130  0.76670  0.03300  Biso   1.000  O
  O198     1.0000 0.23330  0.82130  0.53300  Biso   1.000  O
  O199     1.0000 0.26670  0.67870  0.53300  Biso   1.000  O
  O200     1.0000 0.17870  0.73330  0.03300  Biso   1.000  O
