data_image0
_cell_length_a       33.739
_cell_length_b       15.696
_cell_length_c       16.419
_cell_angle_alpha    90
_cell_angle_beta     117.527
_cell_angle_gamma    90

_symmetry_space_group_name_H-M    "P 1"
_symmetry_int_tables_number       1

loop_
  _symmetry_equiv_pos_as_xyz
  'x, y, z'

loop_
  _atom_site_label
  _atom_site_occupancy
  _atom_site_fract_x
  _atom_site_fract_y
  _atom_site_fract_z
  _atom_site_thermal_displace_type
  _atom_site_B_iso_or_equiv
  _atom_site_type_symbol
  C1       1.0000 0.21642  0.93689  0.21079  Biso   1.000  C
  C2       1.0000 0.71642  0.43689  0.21079  Biso   1.000  C
  C3       1.0000 0.78358  0.93689  0.28921  Biso   1.000  C
  C4       1.0000 0.28358  0.43689  0.28921  Biso   1.000  C
  C5       1.0000 0.78358  0.06311  0.78921  Biso   1.000  C
  C6       1.0000 0.28358  0.56311  0.78921  Biso   1.000  C
  C7       1.0000 0.21642  0.06311  0.71079  Biso   1.000  C
  C8       1.0000 0.71642  0.56311  0.71079  Biso   1.000  C
  C9       1.0000 0.25892  0.92434  0.22074  Biso   1.000  C
  C10      1.0000 0.75892  0.42434  0.22074  Biso   1.000  C
  C11      1.0000 0.74108  0.92434  0.27926  Biso   1.000  C
  C12      1.0000 0.24108  0.42434  0.27926  Biso   1.000  C
  C13      1.0000 0.74108  0.07566  0.77926  Biso   1.000  C
  C14      1.0000 0.24108  0.57566  0.77926  Biso   1.000  C
  C15      1.0000 0.25892  0.07566  0.72074  Biso   1.000  C
  C16      1.0000 0.75892  0.57566  0.72074  Biso   1.000  C
  C17      1.0000 0.29015  0.98879  0.24970  Biso   1.000  C
  C18      1.0000 0.79015  0.48879  0.24970  Biso   1.000  C
  C19      1.0000 0.70985  0.98879  0.25030  Biso   1.000  C
  C20      1.0000 0.20985  0.48879  0.25030  Biso   1.000  C
  C21      1.0000 0.70985  0.01121  0.75030  Biso   1.000  C
  C22      1.0000 0.20985  0.51121  0.75030  Biso   1.000  C
  C23      1.0000 0.29015  0.01121  0.74970  Biso   1.000  C
  C24      1.0000 0.79015  0.51121  0.74970  Biso   1.000  C
  C25      1.0000 0.28030  0.06921  0.27061  Biso   1.000  C
  C26      1.0000 0.78030  0.56921  0.27061  Biso   1.000  C
  C27      1.0000 0.71970  0.06921  0.22939  Biso   1.000  C
  C28      1.0000 0.21970  0.56921  0.22939  Biso   1.000  C
  C29      1.0000 0.71970  0.93079  0.72939  Biso   1.000  C
  C30      1.0000 0.21970  0.43079  0.72939  Biso   1.000  C
  C31      1.0000 0.28030  0.93079  0.77061  Biso   1.000  C
  C32      1.0000 0.78030  0.43079  0.77061  Biso   1.000  C
  C33      1.0000 0.23733  0.08209  0.25967  Biso   1.000  C
  C34      1.0000 0.73733  0.58209  0.25967  Biso   1.000  C
  C35      1.0000 0.76267  0.08209  0.24033  Biso   1.000  C
  C36      1.0000 0.26267  0.58209  0.24033  Biso   1.000  C
  C37      1.0000 0.76267  0.91791  0.74033  Biso   1.000  C
  C38      1.0000 0.26267  0.41791  0.74033  Biso   1.000  C
  C39      1.0000 0.23733  0.91791  0.75967  Biso   1.000  C
  C40      1.0000 0.73733  0.41791  0.75967  Biso   1.000  C
  C41      1.0000 0.20628  0.01779  0.23069  Biso   1.000  C
  C42      1.0000 0.70628  0.51779  0.23069  Biso   1.000  C
  C43      1.0000 0.79372  0.01779  0.26931  Biso   1.000  C
  C44      1.0000 0.29372  0.51779  0.26931  Biso   1.000  C
  C45      1.0000 0.79372  0.98221  0.76931  Biso   1.000  C
  C46      1.0000 0.29372  0.48221  0.76931  Biso   1.000  C
  C47      1.0000 0.20628  0.98221  0.73069  Biso   1.000  C
  C48      1.0000 0.70628  0.48221  0.73069  Biso   1.000  C
  C49      1.0000 0.18244  0.86598  0.18080  Biso   1.000  C
  C50      1.0000 0.68244  0.36598  0.18080  Biso   1.000  C
  C51      1.0000 0.81756  0.86598  0.31920  Biso   1.000  C
  C52      1.0000 0.31756  0.36598  0.31920  Biso   1.000  C
  C53      1.0000 0.81756  0.13402  0.81920  Biso   1.000  C
  C54      1.0000 0.31756  0.63402  0.81920  Biso   1.000  C
  C55      1.0000 0.18244  0.13402  0.68080  Biso   1.000  C
  C56      1.0000 0.68244  0.63402  0.68080  Biso   1.000  C
  C57      1.0000 0.31520  0.13889  0.30755  Biso   1.000  C
  C58      1.0000 0.81520  0.63889  0.30755  Biso   1.000  C
  C59      1.0000 0.68480  0.13889  0.19245  Biso   1.000  C
  C60      1.0000 0.18480  0.63889  0.19245  Biso   1.000  C
  C61      1.0000 0.68480  0.86111  0.69245  Biso   1.000  C
  C62      1.0000 0.18480  0.36111  0.69245  Biso   1.000  C
  C63      1.0000 0.31520  0.86111  0.80755  Biso   1.000  C
  C64      1.0000 0.81520  0.36111  0.80755  Biso   1.000  C
  C65      1.0000 0.16168  0.73771  0.41288  Biso   1.000  C
  C66      1.0000 0.66168  0.23771  0.41288  Biso   1.000  C
  C67      1.0000 0.83832  0.73771  0.08712  Biso   1.000  C
  C68      1.0000 0.33832  0.23771  0.08712  Biso   1.000  C
  C69      1.0000 0.83832  0.26229  0.58712  Biso   1.000  C
  C70      1.0000 0.33832  0.76229  0.58712  Biso   1.000  C
  C71      1.0000 0.16168  0.26229  0.91288  Biso   1.000  C
  C72      1.0000 0.66168  0.76229  0.91288  Biso   1.000  C
  H1       1.0000 0.18240  0.70480  0.40450  Biso   1.000  H
  H2       1.0000 0.68240  0.20480  0.40450  Biso   1.000  H
  H3       1.0000 0.81760  0.70480  0.09550  Biso   1.000  H
  H4       1.0000 0.31760  0.20480  0.09550  Biso   1.000  H
  H5       1.0000 0.81760  0.29520  0.59550  Biso   1.000  H
  H6       1.0000 0.31760  0.79520  0.59550  Biso   1.000  H
  H7       1.0000 0.18240  0.29520  0.90450  Biso   1.000  H
  H8       1.0000 0.68240  0.79520  0.90450  Biso   1.000  H
  C73      1.0000 0.21243  0.72741  0.58913  Biso   1.000  C
  C74      1.0000 0.71243  0.22741  0.58913  Biso   1.000  C
  C75      1.0000 0.78757  0.72741  0.91087  Biso   1.000  C
  C76      1.0000 0.28757  0.22741  0.91087  Biso   1.000  C
  C77      1.0000 0.78757  0.27259  0.41087  Biso   1.000  C
  C78      1.0000 0.28757  0.77259  0.41087  Biso   1.000  C
  C79      1.0000 0.21243  0.27259  0.08913  Biso   1.000  C
  C80      1.0000 0.71243  0.77259  0.08913  Biso   1.000  C
  H9       1.0000 0.22960  0.69310  0.56850  Biso   1.000  H
  H10      1.0000 0.72960  0.19310  0.56850  Biso   1.000  H
  H11      1.0000 0.77040  0.69310  0.93150  Biso   1.000  H
  H12      1.0000 0.27040  0.19310  0.93150  Biso   1.000  H
  H13      1.0000 0.77040  0.30690  0.43150  Biso   1.000  H
  H14      1.0000 0.27040  0.80690  0.43150  Biso   1.000  H
  H15      1.0000 0.22960  0.30690  0.06850  Biso   1.000  H
  H16      1.0000 0.72960  0.80690  0.06850  Biso   1.000  H
  H17      1.0000 0.20410  0.69390  0.62770  Biso   1.000  H
  H18      1.0000 0.70410  0.19390  0.62770  Biso   1.000  H
  H19      1.0000 0.79590  0.69390  0.87230  Biso   1.000  H
  H20      1.0000 0.29590  0.19390  0.87230  Biso   1.000  H
  H21      1.0000 0.79590  0.30610  0.37230  Biso   1.000  H
  H22      1.0000 0.29590  0.80610  0.37230  Biso   1.000  H
  H23      1.0000 0.20410  0.30610  0.12770  Biso   1.000  H
  H24      1.0000 0.70410  0.80610  0.12770  Biso   1.000  H
  H25      1.0000 0.23000  0.77520  0.62320  Biso   1.000  H
  H26      1.0000 0.73000  0.27520  0.62320  Biso   1.000  H
  H27      1.0000 0.77000  0.77520  0.87680  Biso   1.000  H
  H28      1.0000 0.27000  0.27520  0.87680  Biso   1.000  H
  H29      1.0000 0.77000  0.22480  0.37680  Biso   1.000  H
  H30      1.0000 0.27000  0.72480  0.37680  Biso   1.000  H
  H31      1.0000 0.23000  0.22480  0.12320  Biso   1.000  H
  H32      1.0000 0.73000  0.72480  0.12320  Biso   1.000  H
  C81      1.0000 0.14093  0.81278  0.52964  Biso   1.000  C
  C82      1.0000 0.64093  0.31278  0.52964  Biso   1.000  C
  C83      1.0000 0.85907  0.81278  0.97036  Biso   1.000  C
  C84      1.0000 0.35907  0.31278  0.97036  Biso   1.000  C
  C85      1.0000 0.85907  0.18722  0.47036  Biso   1.000  C
  C86      1.0000 0.35907  0.68722  0.47036  Biso   1.000  C
  C87      1.0000 0.14093  0.18722  0.02964  Biso   1.000  C
  C88      1.0000 0.64093  0.68722  0.02964  Biso   1.000  C
  H33      1.0000 0.14710  0.87180  0.52500  Biso   1.000  H
  H34      1.0000 0.64710  0.37180  0.52500  Biso   1.000  H
  H35      1.0000 0.85290  0.87180  0.97500  Biso   1.000  H
  H36      1.0000 0.35290  0.37180  0.97500  Biso   1.000  H
  H37      1.0000 0.85290  0.12820  0.47500  Biso   1.000  H
  H38      1.0000 0.35290  0.62820  0.47500  Biso   1.000  H
  H39      1.0000 0.14710  0.12820  0.02500  Biso   1.000  H
  H40      1.0000 0.64710  0.62820  0.02500  Biso   1.000  H
  H41      1.0000 0.14560  0.80090  0.59080  Biso   1.000  H
  H42      1.0000 0.64560  0.30090  0.59080  Biso   1.000  H
  H43      1.0000 0.85440  0.80090  0.90920  Biso   1.000  H
  H44      1.0000 0.35440  0.30090  0.90920  Biso   1.000  H
  H45      1.0000 0.85440  0.19910  0.40920  Biso   1.000  H
  H46      1.0000 0.35440  0.69910  0.40920  Biso   1.000  H
  H47      1.0000 0.14560  0.19910  0.09080  Biso   1.000  H
  H48      1.0000 0.64560  0.69910  0.09080  Biso   1.000  H
  H49      1.0000 0.11050  0.80050  0.48660  Biso   1.000  H
  H50      1.0000 0.61050  0.30050  0.48660  Biso   1.000  H
  H51      1.0000 0.88950  0.80050  0.01340  Biso   1.000  H
  H52      1.0000 0.38950  0.30050  0.01340  Biso   1.000  H
  H53      1.0000 0.88950  0.19950  0.51340  Biso   1.000  H
  H54      1.0000 0.38950  0.69950  0.51340  Biso   1.000  H
  H55      1.0000 0.11050  0.19950  0.98660  Biso   1.000  H
  H56      1.0000 0.61050  0.69950  0.98660  Biso   1.000  H
  C89      1.0000 0.09464  0.77590  0.84907  Biso   1.000  C
  C90      1.0000 0.59464  0.27590  0.84907  Biso   1.000  C
  C91      1.0000 0.90536  0.77590  0.65093  Biso   1.000  C
  C92      1.0000 0.40536  0.27590  0.65093  Biso   1.000  C
  C93      1.0000 0.90536  0.22410  0.15093  Biso   1.000  C
  C94      1.0000 0.40536  0.72410  0.15093  Biso   1.000  C
  C95      1.0000 0.09464  0.22410  0.34907  Biso   1.000  C
  C96      1.0000 0.59464  0.72410  0.34907  Biso   1.000  C
  H57      1.0000 0.07230  0.80640  0.85420  Biso   1.000  H
  H58      1.0000 0.57230  0.30640  0.85420  Biso   1.000  H
  H59      1.0000 0.92770  0.80640  0.64580  Biso   1.000  H
  H60      1.0000 0.42770  0.30640  0.64580  Biso   1.000  H
  H61      1.0000 0.92770  0.19360  0.14580  Biso   1.000  H
  H62      1.0000 0.42770  0.69360  0.14580  Biso   1.000  H
  H63      1.0000 0.07230  0.19360  0.35420  Biso   1.000  H
  H64      1.0000 0.57230  0.69360  0.35420  Biso   1.000  H
  C97      1.0000 0.06600  0.82438  0.67887  Biso   1.000  C
  C98      1.0000 0.56600  0.32438  0.67887  Biso   1.000  C
  C99      1.0000 0.93400  0.82438  0.82113  Biso   1.000  C
  C100     1.0000 0.43400  0.32438  0.82113  Biso   1.000  C
  C101     1.0000 0.93400  0.17562  0.32113  Biso   1.000  C
  C102     1.0000 0.43400  0.67562  0.32113  Biso   1.000  C
  C103     1.0000 0.06600  0.17562  0.17887  Biso   1.000  C
  C104     1.0000 0.56600  0.67562  0.17887  Biso   1.000  C
  H65      1.0000 0.03870  0.84060  0.67940  Biso   1.000  H
  H66      1.0000 0.53870  0.34060  0.67940  Biso   1.000  H
  H67      1.0000 0.96130  0.84060  0.82060  Biso   1.000  H
  H68      1.0000 0.46130  0.34060  0.82060  Biso   1.000  H
  H69      1.0000 0.96130  0.15940  0.32060  Biso   1.000  H
  H70      1.0000 0.46130  0.65940  0.32060  Biso   1.000  H
  H71      1.0000 0.03870  0.15940  0.17940  Biso   1.000  H
  H72      1.0000 0.53870  0.65940  0.17940  Biso   1.000  H
  H73      1.0000 0.05920  0.79320  0.62370  Biso   1.000  H
  H74      1.0000 0.55920  0.29320  0.62370  Biso   1.000  H
  H75      1.0000 0.94080  0.79320  0.87630  Biso   1.000  H
  H76      1.0000 0.44080  0.29320  0.87630  Biso   1.000  H
  H77      1.0000 0.94080  0.20680  0.37630  Biso   1.000  H
  H78      1.0000 0.44080  0.70680  0.37630  Biso   1.000  H
  H79      1.0000 0.05920  0.20680  0.12370  Biso   1.000  H
  H80      1.0000 0.55920  0.70680  0.12370  Biso   1.000  H
  H81      1.0000 0.08280  0.87450  0.68120  Biso   1.000  H
  H82      1.0000 0.58280  0.37450  0.68120  Biso   1.000  H
  H83      1.0000 0.91720  0.87450  0.81880  Biso   1.000  H
  H84      1.0000 0.41720  0.37450  0.81880  Biso   1.000  H
  H85      1.0000 0.91720  0.12550  0.31880  Biso   1.000  H
  H86      1.0000 0.41720  0.62550  0.31880  Biso   1.000  H
  H87      1.0000 0.08280  0.12550  0.18120  Biso   1.000  H
  H88      1.0000 0.58280  0.62550  0.18120  Biso   1.000  H
  C105     1.0000 0.12666  0.71249  0.74990  Biso   1.000  C
  C106     1.0000 0.62666  0.21249  0.74990  Biso   1.000  C
  C107     1.0000 0.87334  0.71249  0.75010  Biso   1.000  C
  C108     1.0000 0.37334  0.21249  0.75010  Biso   1.000  C
  C109     1.0000 0.87334  0.28751  0.25010  Biso   1.000  C
  C110     1.0000 0.37334  0.78751  0.25010  Biso   1.000  C
  C111     1.0000 0.12666  0.28751  0.24990  Biso   1.000  C
  C112     1.0000 0.62666  0.78751  0.24990  Biso   1.000  C
  H89      1.0000 0.15370  0.74390  0.76600  Biso   1.000  H
  H90      1.0000 0.65370  0.24390  0.76600  Biso   1.000  H
  H91      1.0000 0.84630  0.74390  0.73400  Biso   1.000  H
  H92      1.0000 0.34630  0.24390  0.73400  Biso   1.000  H
  H93      1.0000 0.84630  0.25610  0.23400  Biso   1.000  H
  H94      1.0000 0.34630  0.75610  0.23400  Biso   1.000  H
  H95      1.0000 0.15370  0.25610  0.26600  Biso   1.000  H
  H96      1.0000 0.65370  0.75610  0.26600  Biso   1.000  H
  H97      1.0000 0.11460  0.69350  0.68740  Biso   1.000  H
  H98      1.0000 0.61460  0.19350  0.68740  Biso   1.000  H
  H99      1.0000 0.88540  0.69350  0.81260  Biso   1.000  H
  H100     1.0000 0.38540  0.19350  0.81260  Biso   1.000  H
  H101     1.0000 0.88540  0.30650  0.31260  Biso   1.000  H
  H102     1.0000 0.38540  0.80650  0.31260  Biso   1.000  H
  H103     1.0000 0.11460  0.30650  0.18740  Biso   1.000  H
  H104     1.0000 0.61460  0.80650  0.18740  Biso   1.000  H
  H105     1.0000 0.13300  0.66410  0.78980  Biso   1.000  H
  H106     1.0000 0.63300  0.16410  0.78980  Biso   1.000  H
  H107     1.0000 0.86700  0.66410  0.71020  Biso   1.000  H
  H108     1.0000 0.36700  0.16410  0.71020  Biso   1.000  H
  H109     1.0000 0.86700  0.33590  0.21020  Biso   1.000  H
  H110     1.0000 0.36700  0.83590  0.21020  Biso   1.000  H
  H111     1.0000 0.13300  0.33590  0.28980  Biso   1.000  H
  H112     1.0000 0.63300  0.83590  0.28980  Biso   1.000  H
  C113     1.0000 0.06547  0.86204  0.06843  Biso   1.000  C
  C114     1.0000 0.56547  0.36204  0.06843  Biso   1.000  C
  C115     1.0000 0.93453  0.86204  0.43157  Biso   1.000  C
  C116     1.0000 0.43453  0.36204  0.43157  Biso   1.000  C
  C117     1.0000 0.93453  0.13796  0.93157  Biso   1.000  C
  C118     1.0000 0.43453  0.63796  0.93157  Biso   1.000  C
  C119     1.0000 0.06547  0.13796  0.56843  Biso   1.000  C
  C120     1.0000 0.56547  0.63796  0.56843  Biso   1.000  C
  C121     1.0000 0.03135  0.93299  0.03299  Biso   1.000  C
  C122     1.0000 0.53135  0.43299  0.03299  Biso   1.000  C
  C123     1.0000 0.96865  0.93299  0.46701  Biso   1.000  C
  C124     1.0000 0.46865  0.43299  0.46701  Biso   1.000  C
  C125     1.0000 0.96865  0.06701  0.96701  Biso   1.000  C
  C126     1.0000 0.46865  0.56701  0.96701  Biso   1.000  C
  C127     1.0000 0.03135  0.06701  0.53299  Biso   1.000  C
  C128     1.0000 0.53135  0.56701  0.53299  Biso   1.000  C
  C129     1.0000 0.98814  0.92171  0.01864  Biso   1.000  C
  C130     1.0000 0.48814  0.42171  0.01864  Biso   1.000  C
  C131     1.0000 0.01186  0.92171  0.48136  Biso   1.000  C
  C132     1.0000 0.51186  0.42171  0.48136  Biso   1.000  C
  C133     1.0000 0.01186  0.07829  0.98136  Biso   1.000  C
  C134     1.0000 0.51186  0.57829  0.98136  Biso   1.000  C
  C135     1.0000 0.98814  0.07829  0.51864  Biso   1.000  C
  C136     1.0000 0.48814  0.57829  0.51864  Biso   1.000  C
  C137     1.0000 0.04278  0.01309  0.01376  Biso   1.000  C
  C138     1.0000 0.54278  0.51309  0.01376  Biso   1.000  C
  C139     1.0000 0.95722  0.01309  0.48624  Biso   1.000  C
  C140     1.0000 0.45722  0.51309  0.48624  Biso   1.000  C
  C141     1.0000 0.95722  0.98691  0.98624  Biso   1.000  C
  C142     1.0000 0.45722  0.48691  0.98624  Biso   1.000  C
  C143     1.0000 0.04278  0.98691  0.51376  Biso   1.000  C
  C144     1.0000 0.54278  0.48691  0.51376  Biso   1.000  C
  C145     1.0000 0.06735  0.63527  0.07466  Biso   1.000  C
  C146     1.0000 0.56735  0.13527  0.07466  Biso   1.000  C
  C147     1.0000 0.93265  0.63527  0.42534  Biso   1.000  C
  C148     1.0000 0.43265  0.13527  0.42534  Biso   1.000  C
  C149     1.0000 0.93265  0.36473  0.92534  Biso   1.000  C
  C150     1.0000 0.43265  0.86473  0.92534  Biso   1.000  C
  C151     1.0000 0.06735  0.36473  0.57466  Biso   1.000  C
  C152     1.0000 0.56735  0.86473  0.57466  Biso   1.000  C
  C153     1.0000 0.03233  0.56505  0.03758  Biso   1.000  C
  C154     1.0000 0.53233  0.06505  0.03758  Biso   1.000  C
  C155     1.0000 0.96767  0.56505  0.46242  Biso   1.000  C
  C156     1.0000 0.46767  0.06505  0.46242  Biso   1.000  C
  C157     1.0000 0.96767  0.43495  0.96242  Biso   1.000  C
  C158     1.0000 0.46767  0.93495  0.96242  Biso   1.000  C
  C159     1.0000 0.03233  0.43495  0.53758  Biso   1.000  C
  C160     1.0000 0.53233  0.93495  0.53758  Biso   1.000  C
  C161     1.0000 0.98882  0.58230  0.00020  Biso   1.000  C
  C162     1.0000 0.48882  0.08230  0.00020  Biso   1.000  C
  C163     1.0000 0.01118  0.58230  0.49980  Biso   1.000  C
  C164     1.0000 0.51118  0.08230  0.49980  Biso   1.000  C
  C165     1.0000 0.01118  0.41770  0.99980  Biso   1.000  C
  C166     1.0000 0.51118  0.91770  0.99980  Biso   1.000  C
  C167     1.0000 0.98882  0.41770  0.50020  Biso   1.000  C
  C168     1.0000 0.48882  0.91770  0.50020  Biso   1.000  C
  C169     1.0000 0.03408  0.49370  0.09000  Biso   1.000  C
  C170     1.0000 0.53408  0.99370  0.09000  Biso   1.000  C
  C171     1.0000 0.96592  0.49370  0.41000  Biso   1.000  C
  C172     1.0000 0.46592  0.99370  0.41000  Biso   1.000  C
  C173     1.0000 0.96592  0.50630  0.91000  Biso   1.000  C
  C174     1.0000 0.46592  0.00630  0.91000  Biso   1.000  C
  C175     1.0000 0.03408  0.50630  0.59000  Biso   1.000  C
  C176     1.0000 0.53408  0.00630  0.59000  Biso   1.000  C
  C177     1.0000 0.23018  0.49127  0.48371  Biso   1.000  C
  C178     1.0000 0.73018  0.99127  0.48371  Biso   1.000  C
  C179     1.0000 0.76982  0.49127  0.01629  Biso   1.000  C
  C180     1.0000 0.26982  0.99127  0.01629  Biso   1.000  C
  C181     1.0000 0.76982  0.50873  0.51629  Biso   1.000  C
  C182     1.0000 0.26982  0.00873  0.51629  Biso   1.000  C
  C183     1.0000 0.23018  0.50873  0.98371  Biso   1.000  C
  C184     1.0000 0.73018  0.00873  0.98371  Biso   1.000  C
  H113     1.0000 0.20120  0.46980  0.45730  Biso   1.000  H
  H114     1.0000 0.70120  0.96980  0.45730  Biso   1.000  H
  H115     1.0000 0.79880  0.46980  0.04270  Biso   1.000  H
  H116     1.0000 0.29880  0.96980  0.04270  Biso   1.000  H
  H117     1.0000 0.79880  0.53020  0.54270  Biso   1.000  H
  H118     1.0000 0.29880  0.03020  0.54270  Biso   1.000  H
  H119     1.0000 0.20120  0.53020  0.95730  Biso   1.000  H
  H120     1.0000 0.70120  0.03020  0.95730  Biso   1.000  H
  C185     1.0000 0.31063  0.47882  0.54690  Biso   1.000  C
  C186     1.0000 0.81063  0.97882  0.54690  Biso   1.000  C
  C187     1.0000 0.68937  0.47882  0.95310  Biso   1.000  C
  C188     1.0000 0.18937  0.97882  0.95310  Biso   1.000  C
  C189     1.0000 0.68937  0.52118  0.45310  Biso   1.000  C
  C190     1.0000 0.18937  0.02118  0.45310  Biso   1.000  C
  C191     1.0000 0.31063  0.52118  0.04690  Biso   1.000  C
  C192     1.0000 0.81063  0.02118  0.04690  Biso   1.000  C
  H121     1.0000 0.31050  0.50540  0.49410  Biso   1.000  H
  H122     1.0000 0.81050  0.00540  0.49410  Biso   1.000  H
  H123     1.0000 0.68950  0.50540  0.00590  Biso   1.000  H
  H124     1.0000 0.18950  0.00540  0.00590  Biso   1.000  H
  H125     1.0000 0.68950  0.49460  0.50590  Biso   1.000  H
  H126     1.0000 0.18950  0.99460  0.50590  Biso   1.000  H
  H127     1.0000 0.31050  0.49460  0.99410  Biso   1.000  H
  H128     1.0000 0.81050  0.99460  0.99410  Biso   1.000  H
  H129     1.0000 0.33470  0.43850  0.57260  Biso   1.000  H
  H130     1.0000 0.83470  0.93850  0.57260  Biso   1.000  H
  H131     1.0000 0.66530  0.43850  0.92740  Biso   1.000  H
  H132     1.0000 0.16530  0.93850  0.92740  Biso   1.000  H
  H133     1.0000 0.66530  0.56150  0.42740  Biso   1.000  H
  H134     1.0000 0.16530  0.06150  0.42740  Biso   1.000  H
  H135     1.0000 0.33470  0.56150  0.07260  Biso   1.000  H
  H136     1.0000 0.83470  0.06150  0.07260  Biso   1.000  H
  H137     1.0000 0.31460  0.52150  0.59190  Biso   1.000  H
  H138     1.0000 0.81460  0.02150  0.59190  Biso   1.000  H
  H139     1.0000 0.68540  0.52150  0.90810  Biso   1.000  H
  H140     1.0000 0.18540  0.02150  0.90810  Biso   1.000  H
  H141     1.0000 0.68540  0.47850  0.40810  Biso   1.000  H
  H142     1.0000 0.18540  0.97850  0.40810  Biso   1.000  H
  H143     1.0000 0.31460  0.47850  0.09190  Biso   1.000  H
  H144     1.0000 0.81460  0.97850  0.09190  Biso   1.000  H
  C193     1.0000 0.26696  0.34139  0.53342  Biso   1.000  C
  C194     1.0000 0.76696  0.84139  0.53342  Biso   1.000  C
  C195     1.0000 0.73304  0.34139  0.96658  Biso   1.000  C
  C196     1.0000 0.23304  0.84139  0.96658  Biso   1.000  C
  C197     1.0000 0.73304  0.65861  0.46658  Biso   1.000  C
  C198     1.0000 0.23304  0.15861  0.46658  Biso   1.000  C
  C199     1.0000 0.26696  0.65861  0.03342  Biso   1.000  C
  C200     1.0000 0.76696  0.15861  0.03342  Biso   1.000  C
  H145     1.0000 0.24590  0.32880  0.55600  Biso   1.000  H
  H146     1.0000 0.74590  0.82880  0.55600  Biso   1.000  H
  H147     1.0000 0.75410  0.32880  0.94400  Biso   1.000  H
  H148     1.0000 0.25410  0.82880  0.94400  Biso   1.000  H
  H149     1.0000 0.75410  0.67120  0.44400  Biso   1.000  H
  H150     1.0000 0.25410  0.17120  0.44400  Biso   1.000  H
  H151     1.0000 0.24590  0.67120  0.05600  Biso   1.000  H
  H152     1.0000 0.74590  0.17120  0.05600  Biso   1.000  H
  H153     1.0000 0.29620  0.32270  0.57730  Biso   1.000  H
  H154     1.0000 0.79620  0.82270  0.57730  Biso   1.000  H
  H155     1.0000 0.70380  0.32270  0.92270  Biso   1.000  H
  H156     1.0000 0.20380  0.82270  0.92270  Biso   1.000  H
  H157     1.0000 0.70380  0.67730  0.42270  Biso   1.000  H
  H158     1.0000 0.20380  0.17730  0.42270  Biso   1.000  H
  H159     1.0000 0.29620  0.67730  0.07730  Biso   1.000  H
  H160     1.0000 0.79620  0.17730  0.07730  Biso   1.000  H
  H161     1.0000 0.25820  0.31240  0.47620  Biso   1.000  H
  H162     1.0000 0.75820  0.81240  0.47620  Biso   1.000  H
  H163     1.0000 0.74180  0.31240  0.02380  Biso   1.000  H
  H164     1.0000 0.24180  0.81240  0.02380  Biso   1.000  H
  H165     1.0000 0.74180  0.68760  0.52380  Biso   1.000  H
  H166     1.0000 0.24180  0.18760  0.52380  Biso   1.000  H
  H167     1.0000 0.25820  0.68760  0.97620  Biso   1.000  H
  H168     1.0000 0.75820  0.18760  0.97620  Biso   1.000  H
  C201     1.0000 0.05194  0.60493  0.34658  Biso   1.000  C
  C202     1.0000 0.55194  0.10493  0.34658  Biso   1.000  C
  C203     1.0000 0.94806  0.60493  0.15342  Biso   1.000  C
  C204     1.0000 0.44806  0.10493  0.15342  Biso   1.000  C
  C205     1.0000 0.94806  0.39507  0.65342  Biso   1.000  C
  C206     1.0000 0.44806  0.89507  0.65342  Biso   1.000  C
  C207     1.0000 0.05194  0.39507  0.84658  Biso   1.000  C
  C208     1.0000 0.55194  0.89507  0.84658  Biso   1.000  C
  H169     1.0000 0.02950  0.59710  0.35620  Biso   1.000  H
  H170     1.0000 0.52950  0.09710  0.35620  Biso   1.000  H
  H171     1.0000 0.97050  0.59710  0.14380  Biso   1.000  H
  H172     1.0000 0.47050  0.09710  0.14380  Biso   1.000  H
  H173     1.0000 0.97050  0.40290  0.64380  Biso   1.000  H
  H174     1.0000 0.47050  0.90290  0.64380  Biso   1.000  H
  H175     1.0000 0.02950  0.40290  0.85620  Biso   1.000  H
  H176     1.0000 0.52950  0.90290  0.85620  Biso   1.000  H
  H177     1.0000 0.06950  0.64100  0.38490  Biso   1.000  H
  H178     1.0000 0.56950  0.14100  0.38490  Biso   1.000  H
  H179     1.0000 0.93050  0.64100  0.11510  Biso   1.000  H
  H180     1.0000 0.43050  0.14100  0.11510  Biso   1.000  H
  H181     1.0000 0.93050  0.35900  0.61510  Biso   1.000  H
  H182     1.0000 0.43050  0.85900  0.61510  Biso   1.000  H
  H183     1.0000 0.06950  0.35900  0.88490  Biso   1.000  H
  H184     1.0000 0.56950  0.85900  0.88490  Biso   1.000  H
  H185     1.0000 0.04310  0.62360  0.29230  Biso   1.000  H
  H186     1.0000 0.54310  0.12360  0.29230  Biso   1.000  H
  H187     1.0000 0.95690  0.62360  0.20770  Biso   1.000  H
  H188     1.0000 0.45690  0.12360  0.20770  Biso   1.000  H
  H189     1.0000 0.95690  0.37640  0.70770  Biso   1.000  H
  H190     1.0000 0.45690  0.87640  0.70770  Biso   1.000  H
  H191     1.0000 0.04310  0.37640  0.79230  Biso   1.000  H
  H192     1.0000 0.54310  0.87640  0.79230  Biso   1.000  H
  C209     1.0000 0.04065  0.94820  0.27880  Biso   1.000  C
  C210     1.0000 0.54065  0.44820  0.27880  Biso   1.000  C
  C211     1.0000 0.95935  0.94820  0.22120  Biso   1.000  C
  C212     1.0000 0.45935  0.44820  0.22120  Biso   1.000  C
  C213     1.0000 0.95935  0.05180  0.72120  Biso   1.000  C
  C214     1.0000 0.45935  0.55180  0.72120  Biso   1.000  C
  C215     1.0000 0.04065  0.05180  0.77880  Biso   1.000  C
  C216     1.0000 0.54065  0.55180  0.77880  Biso   1.000  C
  H193     1.0000 0.06280  0.90400  0.30140  Biso   1.000  H
  H194     1.0000 0.56280  0.40400  0.30140  Biso   1.000  H
  H195     1.0000 0.93720  0.90400  0.19860  Biso   1.000  H
  H196     1.0000 0.43720  0.40400  0.19860  Biso   1.000  H
  H197     1.0000 0.93720  0.09600  0.69860  Biso   1.000  H
  H198     1.0000 0.43720  0.59600  0.69860  Biso   1.000  H
  H199     1.0000 0.06280  0.09600  0.80140  Biso   1.000  H
  H200     1.0000 0.56280  0.59600  0.80140  Biso   1.000  H
  H201     1.0000 0.04240  0.97580  0.22840  Biso   1.000  H
  H202     1.0000 0.54240  0.47580  0.22840  Biso   1.000  H
  H203     1.0000 0.95760  0.97580  0.27160  Biso   1.000  H
  H204     1.0000 0.45760  0.47580  0.27160  Biso   1.000  H
  H205     1.0000 0.95760  0.02420  0.77160  Biso   1.000  H
  H206     1.0000 0.45760  0.52420  0.77160  Biso   1.000  H
  H207     1.0000 0.04240  0.02420  0.72840  Biso   1.000  H
  H208     1.0000 0.54240  0.52420  0.72840  Biso   1.000  H
  H209     1.0000 0.04570  0.98420  0.32120  Biso   1.000  H
  H210     1.0000 0.54570  0.48420  0.32120  Biso   1.000  H
  H211     1.0000 0.95430  0.98420  0.17880  Biso   1.000  H
  H212     1.0000 0.45430  0.48420  0.17880  Biso   1.000  H
  H213     1.0000 0.95430  0.01580  0.67880  Biso   1.000  H
  H214     1.0000 0.45430  0.51580  0.67880  Biso   1.000  H
  H215     1.0000 0.04570  0.01580  0.82120  Biso   1.000  H
  H216     1.0000 0.54570  0.51580  0.82120  Biso   1.000  H
  C217     1.0000 0.99632  0.56950  0.94580  Biso   1.000  C
  C218     1.0000 0.49632  0.06950  0.94580  Biso   1.000  C
  C219     1.0000 0.00368  0.56950  0.55420  Biso   1.000  C
  C220     1.0000 0.50368  0.06950  0.55420  Biso   1.000  C
  C221     1.0000 0.00368  0.43050  0.05420  Biso   1.000  C
  C222     1.0000 0.50368  0.93050  0.05420  Biso   1.000  C
  C223     1.0000 0.99632  0.43050  0.44580  Biso   1.000  C
  C224     1.0000 0.49632  0.93050  0.44580  Biso   1.000  C
  C225     1.0000 0.04301  0.48160  0.04420  Biso   1.000  C
  C226     1.0000 0.54301  0.98160  0.04420  Biso   1.000  C
  C227     1.0000 0.95699  0.48160  0.45580  Biso   1.000  C
  C228     1.0000 0.45699  0.98160  0.45580  Biso   1.000  C
  C229     1.0000 0.95699  0.51840  0.95580  Biso   1.000  C
  C230     1.0000 0.45699  0.01840  0.95580  Biso   1.000  C
  C231     1.0000 0.04301  0.51840  0.54420  Biso   1.000  C
  C232     1.0000 0.54301  0.01840  0.54420  Biso   1.000  C
  Cu1      1.0000 0.12676  0.74750  0.04883  Biso   1.000  Cu
  Cu2      1.0000 0.62676  0.24750  0.04883  Biso   1.000  Cu
  Cu3      1.0000 0.87324  0.74750  0.45117  Biso   1.000  Cu
  Cu4      1.0000 0.37324  0.24750  0.45117  Biso   1.000  Cu
  Cu5      1.0000 0.87324  0.25250  0.95117  Biso   1.000  Cu
  Cu6      1.0000 0.37324  0.75250  0.95117  Biso   1.000  Cu
  Cu7      1.0000 0.12676  0.25250  0.54883  Biso   1.000  Cu
  Cu8      1.0000 0.62676  0.75250  0.54883  Biso   1.000  Cu
  Cu9      1.0000 0.12310  0.75188  0.21050  Biso   1.000  Cu
  Cu10     1.0000 0.62310  0.25189  0.21050  Biso   1.000  Cu
  Cu11     1.0000 0.87690  0.75188  0.28950  Biso   1.000  Cu
  Cu12     1.0000 0.37690  0.25189  0.28950  Biso   1.000  Cu
  Cu13     1.0000 0.87690  0.24811  0.78950  Biso   1.000  Cu
  Cu14     1.0000 0.37690  0.74811  0.78950  Biso   1.000  Cu
  Cu15     1.0000 0.12310  0.24811  0.71050  Biso   1.000  Cu
  Cu16     1.0000 0.62310  0.74811  0.71050  Biso   1.000  Cu
  F1       1.0000 0.27106  0.84738  0.20576  Biso   1.000  F
  F2       1.0000 0.77106  0.34738  0.20576  Biso   1.000  F
  F3       1.0000 0.72894  0.84738  0.29424  Biso   1.000  F
  F4       1.0000 0.22894  0.34738  0.29424  Biso   1.000  F
  F5       1.0000 0.72894  0.15262  0.79424  Biso   1.000  F
  F6       1.0000 0.22894  0.65262  0.79424  Biso   1.000  F
  F7       1.0000 0.27106  0.15262  0.70576  Biso   1.000  F
  F8       1.0000 0.77106  0.65262  0.70576  Biso   1.000  F
  F9       1.0000 0.33135  0.97292  0.25924  Biso   1.000  F
  F10      1.0000 0.83135  0.47292  0.25924  Biso   1.000  F
  F11      1.0000 0.66865  0.97292  0.24076  Biso   1.000  F
  F12      1.0000 0.16865  0.47292  0.24076  Biso   1.000  F
  F13      1.0000 0.66865  0.02708  0.74076  Biso   1.000  F
  F14      1.0000 0.16865  0.52708  0.74076  Biso   1.000  F
  F15      1.0000 0.33135  0.02708  0.75924  Biso   1.000  F
  F16      1.0000 0.83135  0.52708  0.75924  Biso   1.000  F
  F17      1.0000 0.22561  0.15978  0.27545  Biso   1.000  F
  F18      1.0000 0.72561  0.65978  0.27545  Biso   1.000  F
  F19      1.0000 0.77439  0.15978  0.22455  Biso   1.000  F
  F20      1.0000 0.27439  0.65978  0.22455  Biso   1.000  F
  F21      1.0000 0.77439  0.84022  0.72455  Biso   1.000  F
  F22      1.0000 0.27439  0.34022  0.72455  Biso   1.000  F
  F23      1.0000 0.22561  0.84022  0.77545  Biso   1.000  F
  F24      1.0000 0.72561  0.34022  0.77545  Biso   1.000  F
  F25      1.0000 0.16482  0.03474  0.21913  Biso   1.000  F
  F26      1.0000 0.66482  0.53474  0.21913  Biso   1.000  F
  F27      1.0000 0.83518  0.03474  0.28087  Biso   1.000  F
  F28      1.0000 0.33518  0.53474  0.28087  Biso   1.000  F
  F29      1.0000 0.83518  0.96526  0.78087  Biso   1.000  F
  F30      1.0000 0.33518  0.46526  0.78087  Biso   1.000  F
  F31      1.0000 0.16482  0.96526  0.71913  Biso   1.000  F
  F32      1.0000 0.66482  0.46526  0.71913  Biso   1.000  F
  F33      1.0000 0.97400  0.66392  0.99981  Biso   1.000  F
  F34      1.0000 0.47400  0.16392  0.99981  Biso   1.000  F
  F35      1.0000 0.02600  0.66392  0.50019  Biso   1.000  F
  F36      1.0000 0.52600  0.16392  0.50019  Biso   1.000  F
  F37      1.0000 0.02600  0.33608  0.00019  Biso   1.000  F
  F38      1.0000 0.52600  0.83608  0.00019  Biso   1.000  F
  F39      1.0000 0.97400  0.33608  0.49981  Biso   1.000  F
  F40      1.0000 0.47400  0.83608  0.49981  Biso   1.000  F
  F41      1.0000 0.07020  0.48330  0.16979  Biso   1.000  F
  F42      1.0000 0.57020  0.98330  0.16979  Biso   1.000  F
  F43      1.0000 0.92980  0.48330  0.33021  Biso   1.000  F
  F44      1.0000 0.42980  0.98330  0.33021  Biso   1.000  F
  F45      1.0000 0.92980  0.51670  0.83021  Biso   1.000  F
  F46      1.0000 0.42980  0.01670  0.83021  Biso   1.000  F
  F47      1.0000 0.07020  0.51670  0.66979  Biso   1.000  F
  F48      1.0000 0.57020  0.01670  0.66979  Biso   1.000  F
  F49      1.0000 0.97504  0.84484  0.03333  Biso   1.000  F
  F50      1.0000 0.47504  0.34484  0.03333  Biso   1.000  F
  F51      1.0000 0.02496  0.84484  0.46667  Biso   1.000  F
  F52      1.0000 0.52496  0.34484  0.46667  Biso   1.000  F
  F53      1.0000 0.02496  0.15516  0.96667  Biso   1.000  F
  F54      1.0000 0.52496  0.65516  0.96667  Biso   1.000  F
  F55      1.0000 0.97504  0.15516  0.53333  Biso   1.000  F
  F56      1.0000 0.47504  0.65516  0.53333  Biso   1.000  F
  F57      1.0000 0.08489  0.02710  0.02853  Biso   1.000  F
  F58      1.0000 0.58489  0.52710  0.02853  Biso   1.000  F
  F59      1.0000 0.91511  0.02710  0.47147  Biso   1.000  F
  F60      1.0000 0.41511  0.52710  0.47147  Biso   1.000  F
  F61      1.0000 0.91511  0.97290  0.97147  Biso   1.000  F
  F62      1.0000 0.41511  0.47290  0.97147  Biso   1.000  F
  F63      1.0000 0.08489  0.97290  0.52853  Biso   1.000  F
  F64      1.0000 0.58489  0.47290  0.52853  Biso   1.000  F
  F65      1.0000 0.99040  0.64066  0.89652  Biso   1.000  F
  F66      1.0000 0.49040  0.14066  0.89652  Biso   1.000  F
  F67      1.0000 0.00960  0.64066  0.60348  Biso   1.000  F
  F68      1.0000 0.50960  0.14066  0.60348  Biso   1.000  F
  F69      1.0000 0.00960  0.35934  0.10348  Biso   1.000  F
  F70      1.0000 0.50960  0.85934  0.10348  Biso   1.000  F
  F71      1.0000 0.99040  0.35934  0.39652  Biso   1.000  F
  F72      1.0000 0.49040  0.85934  0.39652  Biso   1.000  F
  F73      1.0000 0.08846  0.46070  0.07531  Biso   1.000  F
  F74      1.0000 0.58846  0.96070  0.07531  Biso   1.000  F
  F75      1.0000 0.91154  0.46070  0.42469  Biso   1.000  F
  F76      1.0000 0.41154  0.96070  0.42469  Biso   1.000  F
  F77      1.0000 0.91154  0.53930  0.92469  Biso   1.000  F
  F78      1.0000 0.41154  0.03930  0.92469  Biso   1.000  F
  F79      1.0000 0.08846  0.53930  0.57531  Biso   1.000  F
  F80      1.0000 0.58846  0.03930  0.57531  Biso   1.000  F
  N1       1.0000 0.09288  0.76956  0.76032  Biso   1.000  N
  N2       1.0000 0.59288  0.26956  0.76032  Biso   1.000  N
  N3       1.0000 0.90712  0.76956  0.73968  Biso   1.000  N
  N4       1.0000 0.40712  0.26956  0.73968  Biso   1.000  N
  N5       1.0000 0.90712  0.23044  0.23968  Biso   1.000  N
  N6       1.0000 0.40712  0.73044  0.23968  Biso   1.000  N
  N7       1.0000 0.09288  0.23044  0.26032  Biso   1.000  N
  N8       1.0000 0.59288  0.73044  0.26032  Biso   1.000  N
  N9       1.0000 0.17154  0.75838  0.50853  Biso   1.000  N
  N10      1.0000 0.67154  0.25838  0.50853  Biso   1.000  N
  N11      1.0000 0.82846  0.75838  0.99147  Biso   1.000  N
  N12      1.0000 0.32846  0.25838  0.99147  Biso   1.000  N
  N13      1.0000 0.82846  0.24162  0.49147  Biso   1.000  N
  N14      1.0000 0.32846  0.74162  0.49147  Biso   1.000  N
  N15      1.0000 0.17154  0.24162  0.00853  Biso   1.000  N
  N16      1.0000 0.67154  0.74162  0.00853  Biso   1.000  N
  N17      1.0000 0.26770  0.43438  0.51920  Biso   1.000  N
  N18      1.0000 0.76770  0.93438  0.51920  Biso   1.000  N
  N19      1.0000 0.73230  0.43438  0.98080  Biso   1.000  N
  N20      1.0000 0.23230  0.93438  0.98080  Biso   1.000  N
  N21      1.0000 0.73230  0.56562  0.48080  Biso   1.000  N
  N22      1.0000 0.23230  0.06562  0.48080  Biso   1.000  N
  N23      1.0000 0.26770  0.56562  0.01920  Biso   1.000  N
  N24      1.0000 0.76770  0.06562  0.01920  Biso   1.000  N
  O1       1.0000 0.17106  0.83871  0.10220  Biso   1.000  O
  O2       1.0000 0.67106  0.33871  0.10220  Biso   1.000  O
  O3       1.0000 0.82894  0.83871  0.39780  Biso   1.000  O
  O4       1.0000 0.32894  0.33871  0.39780  Biso   1.000  O
  O5       1.0000 0.82894  0.16129  0.89780  Biso   1.000  O
  O6       1.0000 0.32894  0.66129  0.89780  Biso   1.000  O
  O7       1.0000 0.17106  0.16129  0.60220  Biso   1.000  O
  O8       1.0000 0.67106  0.66129  0.60220  Biso   1.000  O
  O9       1.0000 0.16914  0.84166  0.23604  Biso   1.000  O
  O10      1.0000 0.66914  0.34166  0.23604  Biso   1.000  O
  O11      1.0000 0.83086  0.84166  0.26396  Biso   1.000  O
  O12      1.0000 0.33086  0.34166  0.26396  Biso   1.000  O
  O13      1.0000 0.83086  0.15834  0.76396  Biso   1.000  O
  O14      1.0000 0.33086  0.65834  0.76396  Biso   1.000  O
  O15      1.0000 0.16914  0.15834  0.73604  Biso   1.000  O
  O16      1.0000 0.66914  0.65834  0.73604  Biso   1.000  O
  O17      1.0000 0.08245  0.65829  0.02176  Biso   1.000  O
  O18      1.0000 0.58245  0.15829  0.02176  Biso   1.000  O
  O19      1.0000 0.91755  0.65829  0.47824  Biso   1.000  O
  O20      1.0000 0.41755  0.15829  0.47824  Biso   1.000  O
  O21      1.0000 0.91755  0.34171  0.97824  Biso   1.000  O
  O22      1.0000 0.41755  0.84171  0.97824  Biso   1.000  O
  O23      1.0000 0.08245  0.34171  0.52176  Biso   1.000  O
  O24      1.0000 0.58245  0.84171  0.52176  Biso   1.000  O
  O25      1.0000 0.07735  0.66309  0.15195  Biso   1.000  O
  O26      1.0000 0.57735  0.16309  0.15195  Biso   1.000  O
  O27      1.0000 0.92265  0.66309  0.34805  Biso   1.000  O
  O28      1.0000 0.42265  0.16309  0.34805  Biso   1.000  O
  O29      1.0000 0.92265  0.33691  0.84805  Biso   1.000  O
  O30      1.0000 0.42265  0.83691  0.84805  Biso   1.000  O
  O31      1.0000 0.07735  0.33691  0.65195  Biso   1.000  O
  O32      1.0000 0.57735  0.83691  0.65195  Biso   1.000  O
  O33      1.0000 0.07897  0.83368  0.01549  Biso   1.000  O
  O34      1.0000 0.57897  0.33368  0.01549  Biso   1.000  O
  O35      1.0000 0.92103  0.83368  0.48451  Biso   1.000  O
  O36      1.0000 0.42103  0.33368  0.48451  Biso   1.000  O
  O37      1.0000 0.92103  0.16632  0.98451  Biso   1.000  O
  O38      1.0000 0.42103  0.66632  0.98451  Biso   1.000  O
  O39      1.0000 0.07897  0.16632  0.51549  Biso   1.000  O
  O40      1.0000 0.57897  0.66632  0.51549  Biso   1.000  O
  O41      1.0000 0.07685  0.83894  0.14936  Biso   1.000  O
  O42      1.0000 0.57685  0.33894  0.14936  Biso   1.000  O
  O43      1.0000 0.92315  0.83894  0.35064  Biso   1.000  O
  O44      1.0000 0.42315  0.33894  0.35064  Biso   1.000  O
  O45      1.0000 0.92315  0.16106  0.85064  Biso   1.000  O
  O46      1.0000 0.42315  0.66106  0.85064  Biso   1.000  O
  O47      1.0000 0.07685  0.16106  0.64936  Biso   1.000  O
  O48      1.0000 0.57685  0.66106  0.64936  Biso   1.000  O
  O49      1.0000 0.33021  0.16445  0.25486  Biso   1.000  O
  O50      1.0000 0.83021  0.66445  0.25486  Biso   1.000  O
  O51      1.0000 0.66979  0.16445  0.24514  Biso   1.000  O
  O52      1.0000 0.16979  0.66445  0.24514  Biso   1.000  O
  O53      1.0000 0.66979  0.83555  0.74514  Biso   1.000  O
  O54      1.0000 0.16979  0.33555  0.74514  Biso   1.000  O
  O55      1.0000 0.33021  0.83555  0.75486  Biso   1.000  O
  O56      1.0000 0.83021  0.33555  0.75486  Biso   1.000  O
  O57      1.0000 0.32583  0.16264  0.38664  Biso   1.000  O
  O58      1.0000 0.82583  0.66264  0.38664  Biso   1.000  O
  O59      1.0000 0.67417  0.16264  0.11336  Biso   1.000  O
  O60      1.0000 0.17417  0.66264  0.11336  Biso   1.000  O
  O61      1.0000 0.67417  0.83736  0.61336  Biso   1.000  O
  O62      1.0000 0.17417  0.33736  0.61336  Biso   1.000  O
  O63      1.0000 0.32583  0.83736  0.88664  Biso   1.000  O
  O64      1.0000 0.82583  0.33736  0.88664  Biso   1.000  O
  O65      1.0000 0.12384  0.74347  0.91795  Biso   1.000  O
  O66      1.0000 0.62384  0.24347  0.91795  Biso   1.000  O
  O67      1.0000 0.87616  0.74347  0.58205  Biso   1.000  O
  O68      1.0000 0.37616  0.24347  0.58205  Biso   1.000  O
  O69      1.0000 0.87616  0.25653  0.08205  Biso   1.000  O
  O70      1.0000 0.37616  0.75653  0.08205  Biso   1.000  O
  O71      1.0000 0.12384  0.25653  0.41795  Biso   1.000  O
  O72      1.0000 0.62384  0.75653  0.41795  Biso   1.000  O
  O73      1.0000 0.12811  0.76089  0.34379  Biso   1.000  O
  O74      1.0000 0.62811  0.26089  0.34379  Biso   1.000  O
  O75      1.0000 0.87189  0.76089  0.15621  Biso   1.000  O
  O76      1.0000 0.37189  0.26089  0.15621  Biso   1.000  O
  O77      1.0000 0.87189  0.23911  0.65621  Biso   1.000  O
  O78      1.0000 0.37189  0.73911  0.65621  Biso   1.000  O
  O79      1.0000 0.12811  0.23911  0.84379  Biso   1.000  O
  O80      1.0000 0.62811  0.73911  0.84379  Biso   1.000  O
  O81      1.0000 0.23641  0.56651  0.48841  Biso   1.000  O
  O82      1.0000 0.73641  0.06651  0.48841  Biso   1.000  O
  O83      1.0000 0.76359  0.56651  0.01159  Biso   1.000  O
  O84      1.0000 0.26359  0.06651  0.01159  Biso   1.000  O
  O85      1.0000 0.76359  0.43349  0.51159  Biso   1.000  O
  O86      1.0000 0.26359  0.93349  0.51159  Biso   1.000  O
  O87      1.0000 0.23641  0.43349  0.98841  Biso   1.000  O
  O88      1.0000 0.73641  0.93349  0.98841  Biso   1.000  O
  O89      1.0000 0.07323  0.53007  0.35673  Biso   1.000  O
  O90      1.0000 0.57323  0.03007  0.35673  Biso   1.000  O
  O91      1.0000 0.92677  0.53007  0.14327  Biso   1.000  O
  O92      1.0000 0.42677  0.03007  0.14327  Biso   1.000  O
  O93      1.0000 0.92677  0.46993  0.64327  Biso   1.000  O
  O94      1.0000 0.42677  0.96993  0.64327  Biso   1.000  O
  O95      1.0000 0.07323  0.46993  0.85673  Biso   1.000  O
  O96      1.0000 0.57323  0.96993  0.85673  Biso   1.000  O
  H217     1.0000 0.07760  0.50330  0.30860  Biso   1.000  H
  H218     1.0000 0.57760  0.00330  0.30860  Biso   1.000  H
  H219     1.0000 0.92240  0.50330  0.19140  Biso   1.000  H
  H220     1.0000 0.42240  0.00330  0.19140  Biso   1.000  H
  H221     1.0000 0.92240  0.49670  0.69140  Biso   1.000  H
  H222     1.0000 0.42240  0.99670  0.69140  Biso   1.000  H
  H223     1.0000 0.07760  0.49670  0.80860  Biso   1.000  H
  H224     1.0000 0.57760  0.99670  0.80860  Biso   1.000  H
  O97      1.0000 0.00000  0.91336  0.25000  Biso   1.000  O
  O98      1.0000 0.50000  0.41336  0.25000  Biso   1.000  O
  O99      1.0000 0.00000  0.08664  0.75000  Biso   1.000  O
  O100     1.0000 0.50000  0.58664  0.75000  Biso   1.000  O
  H225     1.0000 0.00080  0.88670  0.29580  Biso   1.000  H
  H226     1.0000 0.50080  0.38670  0.29580  Biso   1.000  H
  H227     1.0000 0.99920  0.88670  0.20420  Biso   1.000  H
  H228     1.0000 0.49920  0.38670  0.20420  Biso   1.000  H
  H229     1.0000 0.99920  0.11330  0.70420  Biso   1.000  H
  H230     1.0000 0.49920  0.61330  0.70420  Biso   1.000  H
  H231     1.0000 0.00080  0.11330  0.79580  Biso   1.000  H
  H232     1.0000 0.50080  0.61330  0.79580  Biso   1.000  H
  H233     1.0000 0.99740  0.87570  0.21070  Biso   1.000  H
  H234     1.0000 0.49740  0.37570  0.21070  Biso   1.000  H
  H235     1.0000 0.00260  0.87570  0.28930  Biso   1.000  H
  H236     1.0000 0.50260  0.37570  0.28930  Biso   1.000  H
  H237     1.0000 0.00260  0.12430  0.78930  Biso   1.000  H
  H238     1.0000 0.50260  0.62430  0.78930  Biso   1.000  H
  H239     1.0000 0.99740  0.12430  0.71070  Biso   1.000  H
  H240     1.0000 0.49740  0.62430  0.71070  Biso   1.000  H
