data_image0
_cell_length_a       18.2543
_cell_length_b       19.8942
_cell_length_c       20.7455
_cell_angle_alpha    90
_cell_angle_beta     90
_cell_angle_gamma    90

_symmetry_space_group_name_H-M    "P 1"
_symmetry_int_tables_number       1

loop_
  _symmetry_equiv_pos_as_xyz
  'x, y, z'

loop_
  _atom_site_label
  _atom_site_occupancy
  _atom_site_fract_x
  _atom_site_fract_y
  _atom_site_fract_z
  _atom_site_thermal_displace_type
  _atom_site_B_iso_or_equiv
  _atom_site_type_symbol
  C1       1.0000 0.03814  0.45108  0.40372  Biso   1.000  C
  C2       1.0000 0.46186  0.54892  0.90372  Biso   1.000  C
  C3       1.0000 0.96186  0.95108  0.09628  Biso   1.000  C
  C4       1.0000 0.53814  0.04892  0.59628  Biso   1.000  C
  C5       1.0000 0.96186  0.54892  0.59628  Biso   1.000  C
  C6       1.0000 0.53814  0.45108  0.09628  Biso   1.000  C
  C7       1.0000 0.03814  0.04892  0.90372  Biso   1.000  C
  C8       1.0000 0.46186  0.95108  0.40372  Biso   1.000  C
  H1       1.0000 0.00860  0.48990  0.39790  Biso   1.000  H
  H2       1.0000 0.49140  0.51010  0.89790  Biso   1.000  H
  H3       1.0000 0.99140  0.98990  0.10210  Biso   1.000  H
  H4       1.0000 0.50860  0.01010  0.60210  Biso   1.000  H
  H5       1.0000 0.99140  0.51010  0.60210  Biso   1.000  H
  H6       1.0000 0.50860  0.48990  0.10210  Biso   1.000  H
  H7       1.0000 0.00860  0.01010  0.89790  Biso   1.000  H
  H8       1.0000 0.49140  0.98990  0.39790  Biso   1.000  H
  C9       1.0000 0.02960  0.41370  0.45914  Biso   1.000  C
  C10      1.0000 0.47040  0.58630  0.95914  Biso   1.000  C
  C11      1.0000 0.97040  0.91370  0.04086  Biso   1.000  C
  C12      1.0000 0.52960  0.08630  0.54086  Biso   1.000  C
  C13      1.0000 0.97040  0.58630  0.54086  Biso   1.000  C
  C14      1.0000 0.52960  0.41370  0.04086  Biso   1.000  C
  C15      1.0000 0.02960  0.08630  0.95914  Biso   1.000  C
  C16      1.0000 0.47040  0.91370  0.45914  Biso   1.000  C
  H9       1.0000 0.99440  0.42630  0.49060  Biso   1.000  H
  H10      1.0000 0.50560  0.57370  0.99060  Biso   1.000  H
  H11      1.0000 0.00560  0.92630  0.00940  Biso   1.000  H
  H12      1.0000 0.49440  0.07370  0.50940  Biso   1.000  H
  H13      1.0000 0.00560  0.57370  0.50940  Biso   1.000  H
  H14      1.0000 0.49440  0.42630  0.00940  Biso   1.000  H
  H15      1.0000 0.99440  0.07370  0.99060  Biso   1.000  H
  H16      1.0000 0.50560  0.92630  0.49060  Biso   1.000  H
  C17      1.0000 0.07335  0.35724  0.46820  Biso   1.000  C
  C18      1.0000 0.42665  0.64276  0.96820  Biso   1.000  C
  C19      1.0000 0.92665  0.85724  0.03180  Biso   1.000  C
  C20      1.0000 0.57335  0.14276  0.53180  Biso   1.000  C
  C21      1.0000 0.92665  0.64276  0.53180  Biso   1.000  C
  C22      1.0000 0.57335  0.35724  0.03180  Biso   1.000  C
  C23      1.0000 0.07335  0.14276  0.96820  Biso   1.000  C
  C24      1.0000 0.42665  0.85724  0.46820  Biso   1.000  C
  C25      1.0000 0.12041  0.33820  0.41932  Biso   1.000  C
  C26      1.0000 0.37959  0.66180  0.91932  Biso   1.000  C
  C27      1.0000 0.87959  0.83820  0.08068  Biso   1.000  C
  C28      1.0000 0.62041  0.16180  0.58068  Biso   1.000  C
  C29      1.0000 0.87959  0.66180  0.58068  Biso   1.000  C
  C30      1.0000 0.62041  0.33820  0.08068  Biso   1.000  C
  C31      1.0000 0.12041  0.16180  0.91932  Biso   1.000  C
  C32      1.0000 0.37959  0.83820  0.41932  Biso   1.000  C
  H17      1.0000 0.14900  0.29850  0.42310  Biso   1.000  H
  H18      1.0000 0.35100  0.70150  0.92310  Biso   1.000  H
  H19      1.0000 0.85100  0.79850  0.07690  Biso   1.000  H
  H20      1.0000 0.64900  0.20150  0.57690  Biso   1.000  H
  H21      1.0000 0.85100  0.70150  0.57690  Biso   1.000  H
  H22      1.0000 0.64900  0.29850  0.07690  Biso   1.000  H
  H23      1.0000 0.14900  0.20150  0.92310  Biso   1.000  H
  H24      1.0000 0.35100  0.79850  0.42310  Biso   1.000  H
  C33      1.0000 0.12514  0.37785  0.36491  Biso   1.000  C
  C34      1.0000 0.37486  0.62215  0.86491  Biso   1.000  C
  C35      1.0000 0.87486  0.87785  0.13509  Biso   1.000  C
  C36      1.0000 0.62514  0.12215  0.63509  Biso   1.000  C
  C37      1.0000 0.87486  0.62215  0.63509  Biso   1.000  C
  C38      1.0000 0.62514  0.37785  0.13509  Biso   1.000  C
  C39      1.0000 0.12514  0.12215  0.86491  Biso   1.000  C
  C40      1.0000 0.37486  0.87785  0.36491  Biso   1.000  C
  H25      1.0000 0.15710  0.36430  0.33120  Biso   1.000  H
  H26      1.0000 0.34290  0.63570  0.83120  Biso   1.000  H
  H27      1.0000 0.84290  0.86430  0.16880  Biso   1.000  H
  H28      1.0000 0.65710  0.13570  0.66880  Biso   1.000  H
  H29      1.0000 0.84290  0.63570  0.66880  Biso   1.000  H
  H30      1.0000 0.65710  0.36430  0.16880  Biso   1.000  H
  H31      1.0000 0.15710  0.13570  0.83120  Biso   1.000  H
  H32      1.0000 0.34290  0.86430  0.33120  Biso   1.000  H
  C41      1.0000 0.07320  0.32420  0.53133  Biso   1.000  C
  C42      1.0000 0.42680  0.67580  0.03133  Biso   1.000  C
  C43      1.0000 0.92680  0.82420  0.96867  Biso   1.000  C
  C44      1.0000 0.57320  0.17580  0.46867  Biso   1.000  C
  C45      1.0000 0.92680  0.67580  0.46867  Biso   1.000  C
  C46      1.0000 0.57320  0.32420  0.96867  Biso   1.000  C
  C47      1.0000 0.07320  0.17580  0.03133  Biso   1.000  C
  C48      1.0000 0.42680  0.82420  0.53133  Biso   1.000  C
  C49      1.0000 0.08362  0.25229  0.60866  Biso   1.000  C
  C50      1.0000 0.41638  0.74771  0.10866  Biso   1.000  C
  C51      1.0000 0.91638  0.75229  0.89134  Biso   1.000  C
  C52      1.0000 0.58362  0.24771  0.39134  Biso   1.000  C
  C53      1.0000 0.91638  0.74771  0.39134  Biso   1.000  C
  C54      1.0000 0.58362  0.25229  0.89134  Biso   1.000  C
  C55      1.0000 0.08362  0.24771  0.10866  Biso   1.000  C
  C56      1.0000 0.41638  0.75229  0.60866  Biso   1.000  C
  C57      1.0000 0.09141  0.18984  0.64589  Biso   1.000  C
  C58      1.0000 0.40859  0.81016  0.14589  Biso   1.000  C
  C59      1.0000 0.90859  0.68984  0.85411  Biso   1.000  C
  C60      1.0000 0.59141  0.31016  0.35411  Biso   1.000  C
  C61      1.0000 0.90859  0.81016  0.35411  Biso   1.000  C
  C62      1.0000 0.59141  0.18984  0.85411  Biso   1.000  C
  C63      1.0000 0.09141  0.31016  0.14589  Biso   1.000  C
  C64      1.0000 0.40859  0.68984  0.64589  Biso   1.000  C
  C65      1.0000 0.03614  0.17318  0.68838  Biso   1.000  C
  C66      1.0000 0.46386  0.82682  0.18838  Biso   1.000  C
  C67      1.0000 0.96386  0.67318  0.81162  Biso   1.000  C
  C68      1.0000 0.53614  0.32682  0.31162  Biso   1.000  C
  C69      1.0000 0.96386  0.82682  0.31162  Biso   1.000  C
  C70      1.0000 0.53614  0.17318  0.81162  Biso   1.000  C
  C71      1.0000 0.03614  0.32682  0.18838  Biso   1.000  C
  C72      1.0000 0.46386  0.67318  0.68838  Biso   1.000  C
  H33      1.0000 0.99370  0.20050  0.69200  Biso   1.000  H
  H34      1.0000 0.50630  0.79950  0.19200  Biso   1.000  H
  H35      1.0000 0.00630  0.70050  0.80800  Biso   1.000  H
  H36      1.0000 0.49370  0.29950  0.30800  Biso   1.000  H
  H37      1.0000 0.00630  0.79950  0.30800  Biso   1.000  H
  H38      1.0000 0.49370  0.20050  0.80800  Biso   1.000  H
  H39      1.0000 0.99370  0.29950  0.19200  Biso   1.000  H
  H40      1.0000 0.50630  0.70050  0.69200  Biso   1.000  H
  C73      1.0000 0.04372  0.11608  0.72540  Biso   1.000  C
  C74      1.0000 0.45628  0.88392  0.22540  Biso   1.000  C
  C75      1.0000 0.95628  0.61608  0.77460  Biso   1.000  C
  C76      1.0000 0.54372  0.38392  0.27460  Biso   1.000  C
  C77      1.0000 0.95628  0.88392  0.27460  Biso   1.000  C
  C78      1.0000 0.54372  0.11608  0.77460  Biso   1.000  C
  C79      1.0000 0.04372  0.38392  0.22540  Biso   1.000  C
  C80      1.0000 0.45628  0.61608  0.72540  Biso   1.000  C
  H41      1.0000 0.00530  0.10430  0.75420  Biso   1.000  H
  H42      1.0000 0.49470  0.89570  0.25420  Biso   1.000  H
  H43      1.0000 0.99470  0.60430  0.74580  Biso   1.000  H
  H44      1.0000 0.50530  0.39570  0.24580  Biso   1.000  H
  H45      1.0000 0.99470  0.89570  0.24580  Biso   1.000  H
  H46      1.0000 0.50530  0.10430  0.74580  Biso   1.000  H
  H47      1.0000 0.00530  0.39570  0.25420  Biso   1.000  H
  H48      1.0000 0.49470  0.60430  0.75420  Biso   1.000  H
  C81      1.0000 0.15584  0.09283  0.68094  Biso   1.000  C
  C82      1.0000 0.34416  0.90717  0.18094  Biso   1.000  C
  C83      1.0000 0.84416  0.59283  0.81906  Biso   1.000  C
  C84      1.0000 0.65584  0.40717  0.31906  Biso   1.000  C
  C85      1.0000 0.84416  0.90717  0.31906  Biso   1.000  C
  C86      1.0000 0.65584  0.09283  0.81906  Biso   1.000  C
  C87      1.0000 0.15584  0.40717  0.18094  Biso   1.000  C
  C88      1.0000 0.34416  0.59283  0.68094  Biso   1.000  C
  H49      1.0000 0.19780  0.06480  0.67840  Biso   1.000  H
  H50      1.0000 0.30220  0.93520  0.17840  Biso   1.000  H
  H51      1.0000 0.80220  0.56480  0.82160  Biso   1.000  H
  H52      1.0000 0.69780  0.43520  0.32160  Biso   1.000  H
  H53      1.0000 0.80220  0.93520  0.32160  Biso   1.000  H
  H54      1.0000 0.69780  0.06480  0.82160  Biso   1.000  H
  H55      1.0000 0.19780  0.43520  0.17840  Biso   1.000  H
  H56      1.0000 0.30220  0.56480  0.67840  Biso   1.000  H
  C89      1.0000 0.15217  0.14871  0.64157  Biso   1.000  C
  C90      1.0000 0.34783  0.85129  0.14157  Biso   1.000  C
  C91      1.0000 0.84783  0.64871  0.85843  Biso   1.000  C
  C92      1.0000 0.65217  0.35129  0.35843  Biso   1.000  C
  C93      1.0000 0.84783  0.85129  0.35843  Biso   1.000  C
  C94      1.0000 0.65217  0.14871  0.85843  Biso   1.000  C
  C95      1.0000 0.15217  0.35129  0.14157  Biso   1.000  C
  C96      1.0000 0.34783  0.64871  0.64157  Biso   1.000  C
  H57      1.0000 0.19060  0.15860  0.61220  Biso   1.000  H
  H58      1.0000 0.30940  0.84140  0.11220  Biso   1.000  H
  H59      1.0000 0.80940  0.65860  0.88780  Biso   1.000  H
  H60      1.0000 0.69060  0.34140  0.38780  Biso   1.000  H
  H61      1.0000 0.80940  0.84140  0.38780  Biso   1.000  H
  H62      1.0000 0.69060  0.15860  0.88780  Biso   1.000  H
  H63      1.0000 0.19060  0.34140  0.11220  Biso   1.000  H
  H64      1.0000 0.30940  0.65860  0.61220  Biso   1.000  H
  C97      1.0000 0.17644  0.55832  0.40304  Biso   1.000  C
  C98      1.0000 0.32356  0.44168  0.90304  Biso   1.000  C
  C99      1.0000 0.82356  0.05832  0.09696  Biso   1.000  C
  C100     1.0000 0.67644  0.94168  0.59696  Biso   1.000  C
  C101     1.0000 0.82356  0.44168  0.59696  Biso   1.000  C
  C102     1.0000 0.67644  0.55832  0.09696  Biso   1.000  C
  C103     1.0000 0.17644  0.94168  0.90304  Biso   1.000  C
  C104     1.0000 0.32356  0.05832  0.40304  Biso   1.000  C
  H65      1.0000 0.19810  0.51500  0.40540  Biso   1.000  H
  H66      1.0000 0.30190  0.48500  0.90540  Biso   1.000  H
  H67      1.0000 0.80190  0.01500  0.09460  Biso   1.000  H
  H68      1.0000 0.69810  0.98500  0.59460  Biso   1.000  H
  H69      1.0000 0.80190  0.48500  0.59460  Biso   1.000  H
  H70      1.0000 0.69810  0.51500  0.09460  Biso   1.000  H
  H71      1.0000 0.19810  0.98500  0.90540  Biso   1.000  H
  H72      1.0000 0.30190  0.01500  0.40540  Biso   1.000  H
  C105     1.0000 0.19387  0.60465  0.44960  Biso   1.000  C
  C106     1.0000 0.30613  0.39535  0.94960  Biso   1.000  C
  C107     1.0000 0.80613  0.10465  0.05040  Biso   1.000  C
  C108     1.0000 0.69387  0.89535  0.55040  Biso   1.000  C
  C109     1.0000 0.80613  0.39535  0.55040  Biso   1.000  C
  C110     1.0000 0.69387  0.60465  0.05040  Biso   1.000  C
  C111     1.0000 0.19387  0.89535  0.94960  Biso   1.000  C
  C112     1.0000 0.30613  0.10465  0.44960  Biso   1.000  C
  H73      1.0000 0.22720  0.59350  0.48310  Biso   1.000  H
  H74      1.0000 0.27280  0.40650  0.98310  Biso   1.000  H
  H75      1.0000 0.77280  0.09350  0.01690  Biso   1.000  H
  H76      1.0000 0.72720  0.90650  0.51690  Biso   1.000  H
  H77      1.0000 0.77280  0.40650  0.51690  Biso   1.000  H
  H78      1.0000 0.72720  0.59350  0.01690  Biso   1.000  H
  H79      1.0000 0.22720  0.90650  0.98310  Biso   1.000  H
  H80      1.0000 0.27280  0.09350  0.48310  Biso   1.000  H
  C113     1.0000 0.16213  0.66802  0.44715  Biso   1.000  C
  C114     1.0000 0.33787  0.33198  0.94715  Biso   1.000  C
  C115     1.0000 0.83787  0.16802  0.05285  Biso   1.000  C
  C116     1.0000 0.66213  0.83198  0.55285  Biso   1.000  C
  C117     1.0000 0.83787  0.33198  0.55285  Biso   1.000  C
  C118     1.0000 0.66213  0.66802  0.05285  Biso   1.000  C
  C119     1.0000 0.16213  0.83198  0.94715  Biso   1.000  C
  C120     1.0000 0.33787  0.16802  0.44715  Biso   1.000  C
  C121     1.0000 0.11299  0.68124  0.39820  Biso   1.000  C
  C122     1.0000 0.38701  0.31876  0.89820  Biso   1.000  C
  C123     1.0000 0.88701  0.18124  0.10180  Biso   1.000  C
  C124     1.0000 0.61299  0.81876  0.60180  Biso   1.000  C
  C125     1.0000 0.88701  0.31876  0.60180  Biso   1.000  C
  C126     1.0000 0.61299  0.68124  0.10180  Biso   1.000  C
  C127     1.0000 0.11299  0.81876  0.89820  Biso   1.000  C
  C128     1.0000 0.38701  0.18124  0.39820  Biso   1.000  C
  H81      1.0000 0.08910  0.72360  0.39580  Biso   1.000  H
  H82      1.0000 0.41090  0.27640  0.89580  Biso   1.000  H
  H83      1.0000 0.91090  0.22360  0.10420  Biso   1.000  H
  H84      1.0000 0.58910  0.77640  0.60420  Biso   1.000  H
  H85      1.0000 0.91090  0.27640  0.60420  Biso   1.000  H
  H86      1.0000 0.58910  0.72360  0.10420  Biso   1.000  H
  H87      1.0000 0.08910  0.77640  0.89580  Biso   1.000  H
  H88      1.0000 0.41090  0.22360  0.39580  Biso   1.000  H
  C129     1.0000 0.09903  0.63227  0.35278  Biso   1.000  C
  C130     1.0000 0.40097  0.36773  0.85278  Biso   1.000  C
  C131     1.0000 0.90097  0.13227  0.14722  Biso   1.000  C
  C132     1.0000 0.59903  0.86773  0.64722  Biso   1.000  C
  C133     1.0000 0.90097  0.36773  0.64722  Biso   1.000  C
  C134     1.0000 0.59903  0.63227  0.14722  Biso   1.000  C
  C135     1.0000 0.09903  0.86773  0.85278  Biso   1.000  C
  C136     1.0000 0.40097  0.13227  0.35278  Biso   1.000  C
  H89      1.0000 0.06580  0.64220  0.31880  Biso   1.000  H
  H90      1.0000 0.43420  0.35780  0.81880  Biso   1.000  H
  H91      1.0000 0.93420  0.14220  0.18120  Biso   1.000  H
  H92      1.0000 0.56580  0.85780  0.68120  Biso   1.000  H
  H93      1.0000 0.93420  0.35780  0.68120  Biso   1.000  H
  H94      1.0000 0.56580  0.64220  0.18120  Biso   1.000  H
  H95      1.0000 0.06580  0.85780  0.81880  Biso   1.000  H
  H96      1.0000 0.43420  0.14220  0.31880  Biso   1.000  H
  C137     1.0000 0.18631  0.71877  0.49405  Biso   1.000  C
  C138     1.0000 0.31369  0.28123  0.99405  Biso   1.000  C
  C139     1.0000 0.81369  0.21877  0.00595  Biso   1.000  C
  C140     1.0000 0.68631  0.78123  0.50595  Biso   1.000  C
  C141     1.0000 0.81369  0.28123  0.50595  Biso   1.000  C
  C142     1.0000 0.68631  0.71877  0.00595  Biso   1.000  C
  C143     1.0000 0.18631  0.78123  0.99405  Biso   1.000  C
  C144     1.0000 0.31369  0.21877  0.49405  Biso   1.000  C
  C145     1.0000 0.18983  0.79716  0.56638  Biso   1.000  C
  C146     1.0000 0.31017  0.20284  0.06638  Biso   1.000  C
  C147     1.0000 0.81017  0.29716  0.93362  Biso   1.000  C
  C148     1.0000 0.68983  0.70284  0.43362  Biso   1.000  C
  C149     1.0000 0.81017  0.20284  0.43362  Biso   1.000  C
  C150     1.0000 0.68983  0.79716  0.93362  Biso   1.000  C
  C151     1.0000 0.18983  0.70284  0.06638  Biso   1.000  C
  C152     1.0000 0.31017  0.29716  0.56638  Biso   1.000  C
  C153     1.0000 0.17015  0.84622  0.61627  Biso   1.000  C
  C154     1.0000 0.32985  0.15378  0.11627  Biso   1.000  C
  C155     1.0000 0.82985  0.34622  0.88373  Biso   1.000  C
  C156     1.0000 0.67015  0.65378  0.38373  Biso   1.000  C
  C157     1.0000 0.82985  0.15378  0.38373  Biso   1.000  C
  C158     1.0000 0.67015  0.84622  0.88373  Biso   1.000  C
  C159     1.0000 0.17015  0.65378  0.11627  Biso   1.000  C
  C160     1.0000 0.32985  0.34622  0.61627  Biso   1.000  C
  C161     1.0000 0.21553  0.85189  0.66980  Biso   1.000  C
  C162     1.0000 0.28447  0.14811  0.16980  Biso   1.000  C
  C163     1.0000 0.78447  0.35189  0.83020  Biso   1.000  C
  C164     1.0000 0.71553  0.64811  0.33020  Biso   1.000  C
  C165     1.0000 0.78447  0.14811  0.33020  Biso   1.000  C
  C166     1.0000 0.71553  0.85189  0.83020  Biso   1.000  C
  C167     1.0000 0.21553  0.64811  0.16980  Biso   1.000  C
  C168     1.0000 0.28447  0.35189  0.66980  Biso   1.000  C
  H97      1.0000 0.25830  0.82490  0.67330  Biso   1.000  H
  H98      1.0000 0.24170  0.17510  0.17330  Biso   1.000  H
  H99      1.0000 0.74170  0.32490  0.82670  Biso   1.000  H
  H100     1.0000 0.75830  0.67510  0.32670  Biso   1.000  H
  H101     1.0000 0.74170  0.17510  0.32670  Biso   1.000  H
  H102     1.0000 0.75830  0.82490  0.82670  Biso   1.000  H
  H103     1.0000 0.25830  0.67510  0.17330  Biso   1.000  H
  H104     1.0000 0.24170  0.32490  0.67330  Biso   1.000  H
  C169     1.0000 0.19779  0.89703  0.71775  Biso   1.000  C
  C170     1.0000 0.30221  0.10297  0.21775  Biso   1.000  C
  C171     1.0000 0.80221  0.39703  0.78225  Biso   1.000  C
  C172     1.0000 0.69779  0.60297  0.28225  Biso   1.000  C
  C173     1.0000 0.80221  0.10297  0.28225  Biso   1.000  C
  C174     1.0000 0.69779  0.89703  0.78225  Biso   1.000  C
  C175     1.0000 0.19779  0.60297  0.21775  Biso   1.000  C
  C176     1.0000 0.30221  0.39703  0.71775  Biso   1.000  C
  H105     1.0000 0.22900  0.90050  0.75420  Biso   1.000  H
  H106     1.0000 0.27100  0.09950  0.25420  Biso   1.000  H
  H107     1.0000 0.77100  0.40050  0.74580  Biso   1.000  H
  H108     1.0000 0.72900  0.59950  0.24580  Biso   1.000  H
  H109     1.0000 0.77100  0.09950  0.24580  Biso   1.000  H
  H110     1.0000 0.72900  0.90050  0.74580  Biso   1.000  H
  H111     1.0000 0.22900  0.59950  0.25420  Biso   1.000  H
  H112     1.0000 0.27100  0.40050  0.75420  Biso   1.000  H
  C177     1.0000 0.09537  0.93193  0.66237  Biso   1.000  C
  C178     1.0000 0.40463  0.06807  0.16237  Biso   1.000  C
  C179     1.0000 0.90463  0.43193  0.83763  Biso   1.000  C
  C180     1.0000 0.59537  0.56807  0.33763  Biso   1.000  C
  C181     1.0000 0.90463  0.06807  0.33763  Biso   1.000  C
  C182     1.0000 0.59537  0.93193  0.83763  Biso   1.000  C
  C183     1.0000 0.09537  0.56807  0.16237  Biso   1.000  C
  C184     1.0000 0.40463  0.43193  0.66237  Biso   1.000  C
  H113     1.0000 0.05370  0.96040  0.65950  Biso   1.000  H
  H114     1.0000 0.44630  0.03960  0.15950  Biso   1.000  H
  H115     1.0000 0.94630  0.46040  0.84050  Biso   1.000  H
  H116     1.0000 0.55370  0.53960  0.34050  Biso   1.000  H
  H117     1.0000 0.94630  0.03960  0.34050  Biso   1.000  H
  H118     1.0000 0.55370  0.96040  0.84050  Biso   1.000  H
  H119     1.0000 0.05370  0.53960  0.15950  Biso   1.000  H
  H120     1.0000 0.44630  0.46040  0.65950  Biso   1.000  H
  C185     1.0000 0.10931  0.88796  0.61251  Biso   1.000  C
  C186     1.0000 0.39069  0.11204  0.11251  Biso   1.000  C
  C187     1.0000 0.89069  0.38796  0.88749  Biso   1.000  C
  C188     1.0000 0.60931  0.61204  0.38749  Biso   1.000  C
  C189     1.0000 0.89069  0.11204  0.38749  Biso   1.000  C
  C190     1.0000 0.60931  0.88796  0.88749  Biso   1.000  C
  C191     1.0000 0.10931  0.61204  0.11251  Biso   1.000  C
  C192     1.0000 0.39069  0.38796  0.61251  Biso   1.000  C
  H121     1.0000 0.07780  0.88620  0.57610  Biso   1.000  H
  H122     1.0000 0.42220  0.11380  0.07610  Biso   1.000  H
  H123     1.0000 0.92220  0.38620  0.92390  Biso   1.000  H
  H124     1.0000 0.57780  0.61380  0.42390  Biso   1.000  H
  H125     1.0000 0.92220  0.11380  0.42390  Biso   1.000  H
  H126     1.0000 0.57780  0.88620  0.92390  Biso   1.000  H
  H127     1.0000 0.07780  0.61380  0.07610  Biso   1.000  H
  H128     1.0000 0.42220  0.38620  0.57610  Biso   1.000  H
  Cu1      1.0000 0.11175  0.00009  0.78624  Biso   1.000  Cu
  Cu2      1.0000 0.38825  0.99991  0.28624  Biso   1.000  Cu
  Cu3      1.0000 0.88825  0.50009  0.71376  Biso   1.000  Cu
  Cu4      1.0000 0.61175  0.49991  0.21376  Biso   1.000  Cu
  Cu5      1.0000 0.88825  0.99991  0.21376  Biso   1.000  Cu
  Cu6      1.0000 0.61175  0.00009  0.71376  Biso   1.000  Cu
  Cu7      1.0000 0.11175  0.49991  0.28624  Biso   1.000  Cu
  Cu8      1.0000 0.38825  0.50009  0.78624  Biso   1.000  Cu
  N1       1.0000 0.13800  0.93625  0.71476  Biso   1.000  N
  N2       1.0000 0.36200  0.06375  0.21476  Biso   1.000  N
  N3       1.0000 0.86200  0.43625  0.78524  Biso   1.000  N
  N4       1.0000 0.63800  0.56375  0.28524  Biso   1.000  N
  N5       1.0000 0.86200  0.06375  0.28524  Biso   1.000  N
  N6       1.0000 0.63800  0.93625  0.78524  Biso   1.000  N
  N7       1.0000 0.13800  0.56375  0.21476  Biso   1.000  N
  N8       1.0000 0.36200  0.43625  0.71476  Biso   1.000  N
  N9       1.0000 0.25722  0.78018  0.55393  Biso   1.000  N
  N10      1.0000 0.24278  0.21982  0.05393  Biso   1.000  N
  N11      1.0000 0.74278  0.28018  0.94607  Biso   1.000  N
  N12      1.0000 0.75722  0.71982  0.44607  Biso   1.000  N
  N13      1.0000 0.74278  0.21982  0.44607  Biso   1.000  N
  N14      1.0000 0.75722  0.78018  0.94607  Biso   1.000  N
  N15      1.0000 0.25722  0.71982  0.05393  Biso   1.000  N
  N16      1.0000 0.24278  0.28018  0.55393  Biso   1.000  N
  N17      1.0000 0.25528  0.73007  0.50767  Biso   1.000  N
  N18      1.0000 0.24472  0.26993  0.00767  Biso   1.000  N
  N19      1.0000 0.74472  0.23007  0.99233  Biso   1.000  N
  N20      1.0000 0.75528  0.76993  0.49233  Biso   1.000  N
  N21      1.0000 0.74472  0.26993  0.49233  Biso   1.000  N
  N22      1.0000 0.75528  0.73007  0.99233  Biso   1.000  N
  N23      1.0000 0.25528  0.76993  0.00767  Biso   1.000  N
  N24      1.0000 0.24472  0.23007  0.50767  Biso   1.000  N
  N25      1.0000 0.14296  0.76013  0.52906  Biso   1.000  N
  N26      1.0000 0.35704  0.23987  0.02906  Biso   1.000  N
  N27      1.0000 0.85704  0.26013  0.97094  Biso   1.000  N
  N28      1.0000 0.64296  0.73987  0.47094  Biso   1.000  N
  N29      1.0000 0.85704  0.23987  0.47094  Biso   1.000  N
  N30      1.0000 0.64296  0.76013  0.97094  Biso   1.000  N
  N31      1.0000 0.14296  0.73987  0.02906  Biso   1.000  N
  N32      1.0000 0.35704  0.26013  0.52906  Biso   1.000  N
  N33      1.0000 0.06663  0.75337  0.53160  Biso   1.000  N
  N34      1.0000 0.43337  0.24663  0.03160  Biso   1.000  N
  N35      1.0000 0.93337  0.25337  0.96840  Biso   1.000  N
  N36      1.0000 0.56663  0.74663  0.46840  Biso   1.000  N
  N37      1.0000 0.93337  0.24663  0.46840  Biso   1.000  N
  N38      1.0000 0.56663  0.75337  0.96840  Biso   1.000  N
  N39      1.0000 0.06663  0.74663  0.03160  Biso   1.000  N
  N40      1.0000 0.43337  0.25337  0.53160  Biso   1.000  N
  H129     1.0000 0.04770  0.74830  0.57130  Biso   1.000  H
  H130     1.0000 0.45230  0.25170  0.07130  Biso   1.000  H
  H131     1.0000 0.95230  0.24830  0.92870  Biso   1.000  H
  H132     1.0000 0.54770  0.75170  0.42870  Biso   1.000  H
  H133     1.0000 0.95230  0.25170  0.42870  Biso   1.000  H
  H134     1.0000 0.54770  0.74830  0.92870  Biso   1.000  H
  H135     1.0000 0.04770  0.75170  0.07130  Biso   1.000  H
  H136     1.0000 0.45230  0.24830  0.57130  Biso   1.000  H
  H137     1.0000 0.04640  0.79130  0.51500  Biso   1.000  H
  H138     1.0000 0.45360  0.20870  0.01500  Biso   1.000  H
  H139     1.0000 0.95360  0.29130  0.98500  Biso   1.000  H
  H140     1.0000 0.54640  0.70870  0.48500  Biso   1.000  H
  H141     1.0000 0.95360  0.20870  0.48500  Biso   1.000  H
  H142     1.0000 0.54640  0.79130  0.98500  Biso   1.000  H
  H143     1.0000 0.04640  0.70870  0.01500  Biso   1.000  H
  H144     1.0000 0.45360  0.29130  0.51500  Biso   1.000  H
  N41      1.0000 0.13023  0.57140  0.35439  Biso   1.000  N
  N42      1.0000 0.36977  0.42860  0.85439  Biso   1.000  N
  N43      1.0000 0.86977  0.07140  0.14561  Biso   1.000  N
  N44      1.0000 0.63023  0.92860  0.64561  Biso   1.000  N
  N45      1.0000 0.86977  0.42860  0.64561  Biso   1.000  N
  N46      1.0000 0.63023  0.57140  0.14561  Biso   1.000  N
  N47      1.0000 0.13023  0.92860  0.85439  Biso   1.000  N
  N48      1.0000 0.36977  0.07140  0.35439  Biso   1.000  N
  N49      1.0000 0.10276  0.07661  0.72250  Biso   1.000  N
  N50      1.0000 0.39724  0.92339  0.22250  Biso   1.000  N
  N51      1.0000 0.89724  0.57661  0.77750  Biso   1.000  N
  N52      1.0000 0.60276  0.42339  0.27750  Biso   1.000  N
  N53      1.0000 0.89724  0.92339  0.27750  Biso   1.000  N
  N54      1.0000 0.60276  0.07661  0.77750  Biso   1.000  N
  N55      1.0000 0.10276  0.42339  0.22250  Biso   1.000  N
  N56      1.0000 0.39724  0.57661  0.72250  Biso   1.000  N
  N57      1.0000 0.07376  0.31174  0.63508  Biso   1.000  N
  N58      1.0000 0.42624  0.68826  0.13508  Biso   1.000  N
  N59      1.0000 0.92624  0.81174  0.86492  Biso   1.000  N
  N60      1.0000 0.57376  0.18826  0.36492  Biso   1.000  N
  N61      1.0000 0.92624  0.68826  0.36492  Biso   1.000  N
  N62      1.0000 0.57376  0.31174  0.86492  Biso   1.000  N
  N63      1.0000 0.07376  0.18826  0.13508  Biso   1.000  N
  N64      1.0000 0.42624  0.81174  0.63508  Biso   1.000  N
  N65      1.0000 0.06776  0.35775  0.58570  Biso   1.000  N
  N66      1.0000 0.43224  0.64225  0.08570  Biso   1.000  N
  N67      1.0000 0.93224  0.85775  0.91430  Biso   1.000  N
  N68      1.0000 0.56776  0.14225  0.41430  Biso   1.000  N
  N69      1.0000 0.93224  0.64225  0.41430  Biso   1.000  N
  N70      1.0000 0.56776  0.35775  0.91430  Biso   1.000  N
  N71      1.0000 0.06776  0.14225  0.08570  Biso   1.000  N
  N72      1.0000 0.43224  0.85775  0.58570  Biso   1.000  N
  N73      1.0000 0.08334  0.25789  0.54343  Biso   1.000  N
  N74      1.0000 0.41666  0.74211  0.04343  Biso   1.000  N
  N75      1.0000 0.91666  0.75789  0.95657  Biso   1.000  N
  N76      1.0000 0.58334  0.24211  0.45657  Biso   1.000  N
  N77      1.0000 0.91666  0.74211  0.45657  Biso   1.000  N
  N78      1.0000 0.58334  0.25789  0.95657  Biso   1.000  N
  N79      1.0000 0.08334  0.24211  0.04343  Biso   1.000  N
  N80      1.0000 0.41666  0.75789  0.54343  Biso   1.000  N
  N81      1.0000 0.08842  0.20664  0.49674  Biso   1.000  N
  N82      1.0000 0.41158  0.79336  0.99674  Biso   1.000  N
  N83      1.0000 0.91158  0.70664  0.00326  Biso   1.000  N
  N84      1.0000 0.58842  0.29336  0.50326  Biso   1.000  N
  N85      1.0000 0.91158  0.79336  0.50326  Biso   1.000  N
  N86      1.0000 0.58842  0.20664  0.00326  Biso   1.000  N
  N87      1.0000 0.08842  0.29336  0.99674  Biso   1.000  N
  N88      1.0000 0.41158  0.70664  0.49674  Biso   1.000  N
  H145     1.0000 0.06710  0.17170  0.51170  Biso   1.000  H
  H146     1.0000 0.43290  0.82830  0.01170  Biso   1.000  H
  H147     1.0000 0.93290  0.67170  0.98830  Biso   1.000  H
  H148     1.0000 0.56710  0.32830  0.48830  Biso   1.000  H
  H149     1.0000 0.93290  0.82830  0.48830  Biso   1.000  H
  H150     1.0000 0.56710  0.17170  0.98830  Biso   1.000  H
  H151     1.0000 0.06710  0.32830  0.01170  Biso   1.000  H
  H152     1.0000 0.43290  0.67170  0.51170  Biso   1.000  H
  H153     1.0000 0.13770  0.19790  0.49260  Biso   1.000  H
  H154     1.0000 0.36230  0.80210  0.99260  Biso   1.000  H
  H155     1.0000 0.86230  0.69790  0.00740  Biso   1.000  H
  H156     1.0000 0.63770  0.30210  0.50740  Biso   1.000  H
  H157     1.0000 0.86230  0.80210  0.50740  Biso   1.000  H
  H158     1.0000 0.63770  0.19790  0.00740  Biso   1.000  H
  H159     1.0000 0.13770  0.30210  0.99260  Biso   1.000  H
  H160     1.0000 0.36230  0.69790  0.49260  Biso   1.000  H
  N89      1.0000 0.08662  0.43471  0.35765  Biso   1.000  N
  N90      1.0000 0.41338  0.56529  0.85765  Biso   1.000  N
  N91      1.0000 0.91338  0.93471  0.14235  Biso   1.000  N
  N92      1.0000 0.58662  0.06529  0.64235  Biso   1.000  N
  N93      1.0000 0.91338  0.56529  0.64235  Biso   1.000  N
  N94      1.0000 0.58662  0.43471  0.14235  Biso   1.000  N
  N95      1.0000 0.08662  0.06529  0.85765  Biso   1.000  N
  N96      1.0000 0.41338  0.93471  0.35765  Biso   1.000  N
  N97      1.0000 0.09541  0.72449  0.69924  Biso   1.000  N
  N98      1.0000 0.40459  0.27551  0.19924  Biso   1.000  N
  N99      1.0000 0.90459  0.22449  0.80076  Biso   1.000  N
  N100     1.0000 0.59541  0.77551  0.30076  Biso   1.000  N
  N101     1.0000 0.90459  0.27551  0.30076  Biso   1.000  N
  N102     1.0000 0.59541  0.72449  0.80076  Biso   1.000  N
  N103     1.0000 0.09541  0.77551  0.19924  Biso   1.000  N
  N104     1.0000 0.40459  0.22449  0.69924  Biso   1.000  N
  N105     1.0000 0.02183  0.92460  0.42487  Biso   1.000  N
  N106     1.0000 0.47817  0.07540  0.92487  Biso   1.000  N
  N107     1.0000 0.97817  0.42460  0.07513  Biso   1.000  N
  N108     1.0000 0.52183  0.57540  0.57513  Biso   1.000  N
  N109     1.0000 0.97817  0.07540  0.57513  Biso   1.000  N
  N110     1.0000 0.52183  0.92460  0.07513  Biso   1.000  N
  N111     1.0000 0.02183  0.57540  0.92487  Biso   1.000  N
  N112     1.0000 0.47817  0.42460  0.42487  Biso   1.000  N
  O1       1.0000 0.98680  0.97267  0.77501  Biso   1.000  O
  O2       1.0000 0.51320  0.02733  0.27501  Biso   1.000  O
  O3       1.0000 0.01320  0.47267  0.72499  Biso   1.000  O
  O4       1.0000 0.48680  0.52733  0.22499  Biso   1.000  O
  O5       1.0000 0.01320  0.02733  0.22499  Biso   1.000  O
  O6       1.0000 0.48680  0.97267  0.72499  Biso   1.000  O
  O7       1.0000 0.98680  0.52733  0.27501  Biso   1.000  O
  O8       1.0000 0.51320  0.47267  0.77501  Biso   1.000  O
  H161     1.0000 0.97560  0.93520  0.75870  Biso   1.000  H
  H162     1.0000 0.52440  0.06480  0.25870  Biso   1.000  H
  H163     1.0000 0.02440  0.43520  0.74130  Biso   1.000  H
  H164     1.0000 0.47560  0.56480  0.24130  Biso   1.000  H
  H165     1.0000 0.02440  0.06480  0.24130  Biso   1.000  H
  H166     1.0000 0.47560  0.93520  0.74130  Biso   1.000  H
  H167     1.0000 0.97560  0.56480  0.25870  Biso   1.000  H
  H168     1.0000 0.52440  0.43520  0.75870  Biso   1.000  H
  H169     1.0000 0.95040  0.99780  0.78210  Biso   1.000  H
  H170     1.0000 0.54960  0.00220  0.28210  Biso   1.000  H
  H171     1.0000 0.04960  0.49780  0.71790  Biso   1.000  H
  H172     1.0000 0.45040  0.50220  0.21790  Biso   1.000  H
  H173     1.0000 0.04960  0.00220  0.21790  Biso   1.000  H
  H174     1.0000 0.45040  0.99780  0.71790  Biso   1.000  H
  H175     1.0000 0.95040  0.50220  0.28210  Biso   1.000  H
  H176     1.0000 0.54960  0.49780  0.78210  Biso   1.000  H
  O9       1.0000 0.04409  0.87038  0.44588  Biso   1.000  O
  O10      1.0000 0.45591  0.12962  0.94588  Biso   1.000  O
  O11      1.0000 0.95591  0.37038  0.05412  Biso   1.000  O
  O12      1.0000 0.54409  0.62962  0.55412  Biso   1.000  O
  O13      1.0000 0.95591  0.12962  0.55412  Biso   1.000  O
  O14      1.0000 0.54409  0.87038  0.05412  Biso   1.000  O
  O15      1.0000 0.04409  0.62962  0.94588  Biso   1.000  O
  O16      1.0000 0.45591  0.37038  0.44588  Biso   1.000  O
  O17      1.0000 0.05720  0.95418  0.38301  Biso   1.000  O
  O18      1.0000 0.44280  0.04582  0.88301  Biso   1.000  O
  O19      1.0000 0.94280  0.45418  0.11699  Biso   1.000  O
  O20      1.0000 0.55720  0.54582  0.61699  Biso   1.000  O
  O21      1.0000 0.94280  0.04582  0.61699  Biso   1.000  O
  O22      1.0000 0.55720  0.95418  0.11699  Biso   1.000  O
  O23      1.0000 0.05720  0.54582  0.88301  Biso   1.000  O
  O24      1.0000 0.44280  0.45418  0.38301  Biso   1.000  O
  O25      1.0000 0.96325  0.94661  0.44356  Biso   1.000  O
  O26      1.0000 0.53675  0.05339  0.94356  Biso   1.000  O
  O27      1.0000 0.03675  0.44661  0.05644  Biso   1.000  O
  O28      1.0000 0.46325  0.55339  0.55644  Biso   1.000  O
  O29      1.0000 0.03675  0.05339  0.55644  Biso   1.000  O
  O30      1.0000 0.46325  0.94661  0.05644  Biso   1.000  O
  O31      1.0000 0.96325  0.55339  0.94356  Biso   1.000  O
  O32      1.0000 0.53675  0.44661  0.44356  Biso   1.000  O
  O33      1.0000 0.13899  0.68917  0.66869  Biso   1.000  O
  O34      1.0000 0.36101  0.31083  0.16869  Biso   1.000  O
  O35      1.0000 0.86101  0.18917  0.83131  Biso   1.000  O
  O36      1.0000 0.63899  0.81083  0.33131  Biso   1.000  O
  O37      1.0000 0.86101  0.31083  0.33131  Biso   1.000  O
  O38      1.0000 0.63899  0.68917  0.83131  Biso   1.000  O
  O39      1.0000 0.13899  0.81083  0.16869  Biso   1.000  O
  O40      1.0000 0.36101  0.18917  0.66869  Biso   1.000  O
  O41      1.0000 0.10954  0.74474  0.75427  Biso   1.000  O
  O42      1.0000 0.39046  0.25526  0.25427  Biso   1.000  O
  O43      1.0000 0.89046  0.24474  0.74573  Biso   1.000  O
  O44      1.0000 0.60954  0.75526  0.24573  Biso   1.000  O
  O45      1.0000 0.89046  0.25526  0.24573  Biso   1.000  O
  O46      1.0000 0.60954  0.74474  0.74573  Biso   1.000  O
  O47      1.0000 0.10954  0.75526  0.25427  Biso   1.000  O
  O48      1.0000 0.39046  0.24474  0.75427  Biso   1.000  O
  O49      1.0000 0.03617  0.74168  0.67374  Biso   1.000  O
  O50      1.0000 0.46383  0.25832  0.17374  Biso   1.000  O
  O51      1.0000 0.96383  0.24168  0.82626  Biso   1.000  O
  O52      1.0000 0.53617  0.75832  0.32626  Biso   1.000  O
  O53      1.0000 0.96383  0.25832  0.32626  Biso   1.000  O
  O54      1.0000 0.53617  0.74168  0.82626  Biso   1.000  O
  O55      1.0000 0.03617  0.75832  0.17374  Biso   1.000  O
  O56      1.0000 0.46383  0.24168  0.67374  Biso   1.000  O
  O57      1.0000 0.74711  0.72629  0.68106  Biso   1.000  O
  O58      1.0000 0.75289  0.27371  0.18106  Biso   1.000  O
  O59      1.0000 0.25289  0.22629  0.81894  Biso   1.000  O
  O60      1.0000 0.24711  0.77371  0.31894  Biso   1.000  O
  O61      1.0000 0.25289  0.27371  0.31894  Biso   1.000  O
  O62      1.0000 0.24711  0.72629  0.81894  Biso   1.000  O
  O63      1.0000 0.74711  0.77371  0.18106  Biso   1.000  O
  O64      1.0000 0.75289  0.22629  0.68106  Biso   1.000  O
  H177     1.0000 0.71080  0.73140  0.70580  Biso   1.000  H
  H178     1.0000 0.78920  0.26860  0.20580  Biso   1.000  H
  H179     1.0000 0.28920  0.23140  0.79420  Biso   1.000  H
  H180     1.0000 0.21080  0.76860  0.29420  Biso   1.000  H
  H181     1.0000 0.28920  0.26860  0.29420  Biso   1.000  H
  H182     1.0000 0.21080  0.73140  0.79420  Biso   1.000  H
  H183     1.0000 0.71080  0.76860  0.20580  Biso   1.000  H
  H184     1.0000 0.78920  0.23140  0.70580  Biso   1.000  H
  H185     1.0000 0.76460  0.76540  0.67560  Biso   1.000  H
  H186     1.0000 0.73540  0.23460  0.17560  Biso   1.000  H
  H187     1.0000 0.23540  0.26540  0.82440  Biso   1.000  H
  H188     1.0000 0.26460  0.73460  0.32440  Biso   1.000  H
  H189     1.0000 0.23540  0.23460  0.32440  Biso   1.000  H
  H190     1.0000 0.26460  0.76540  0.82440  Biso   1.000  H
  H191     1.0000 0.76460  0.73460  0.17560  Biso   1.000  H
  H192     1.0000 0.73540  0.26540  0.67560  Biso   1.000  H
  O65      1.0000 0.20172  0.87781  0.39427  Biso   1.000  O
  O66      1.0000 0.29828  0.12219  0.89427  Biso   1.000  O
  O67      1.0000 0.79828  0.37781  0.10573  Biso   1.000  O
  O68      1.0000 0.70172  0.62219  0.60573  Biso   1.000  O
  O69      1.0000 0.79828  0.12219  0.60573  Biso   1.000  O
  O70      1.0000 0.70172  0.87781  0.10573  Biso   1.000  O
  O71      1.0000 0.20172  0.62219  0.89427  Biso   1.000  O
  O72      1.0000 0.29828  0.37781  0.39427  Biso   1.000  O
  H193     1.0000 0.21230  0.84130  0.37530  Biso   1.000  H
  H194     1.0000 0.28770  0.15870  0.87530  Biso   1.000  H
  H195     1.0000 0.78770  0.34130  0.12470  Biso   1.000  H
  H196     1.0000 0.71230  0.65870  0.62470  Biso   1.000  H
  H197     1.0000 0.78770  0.15870  0.62470  Biso   1.000  H
  H198     1.0000 0.71230  0.84130  0.12470  Biso   1.000  H
  H199     1.0000 0.21230  0.65870  0.87530  Biso   1.000  H
  H200     1.0000 0.28770  0.34130  0.37530  Biso   1.000  H
  H201     1.0000 0.15550  0.87860  0.39750  Biso   1.000  H
  H202     1.0000 0.34450  0.12140  0.89750  Biso   1.000  H
  H203     1.0000 0.84450  0.37860  0.10250  Biso   1.000  H
  H204     1.0000 0.65550  0.62140  0.60250  Biso   1.000  H
  H205     1.0000 0.84450  0.12140  0.60250  Biso   1.000  H
  H206     1.0000 0.65550  0.87860  0.10250  Biso   1.000  H
  H207     1.0000 0.15550  0.62140  0.89750  Biso   1.000  H
  H208     1.0000 0.34450  0.37860  0.39750  Biso   1.000  H
  O73      1.0000 0.23169  0.95657  0.50439  Biso   1.000  O
  O74      1.0000 0.26831  0.04343  0.00439  Biso   1.000  O
  O75      1.0000 0.76831  0.45657  0.99561  Biso   1.000  O
  O76      1.0000 0.73169  0.54343  0.49561  Biso   1.000  O
  O77      1.0000 0.76831  0.04343  0.49561  Biso   1.000  O
  O78      1.0000 0.73169  0.95657  0.99561  Biso   1.000  O
  O79      1.0000 0.23169  0.54343  0.00439  Biso   1.000  O
  O80      1.0000 0.26831  0.45657  0.50439  Biso   1.000  O
  H209     1.0000 0.20110  0.98650  0.49340  Biso   1.000  H
  H210     1.0000 0.29890  0.01350  0.99340  Biso   1.000  H
  H211     1.0000 0.79890  0.48650  0.00660  Biso   1.000  H
  H212     1.0000 0.70110  0.51350  0.50660  Biso   1.000  H
  H213     1.0000 0.79890  0.01350  0.50660  Biso   1.000  H
  H214     1.0000 0.70110  0.98650  0.00660  Biso   1.000  H
  H215     1.0000 0.20110  0.51350  0.99340  Biso   1.000  H
  H216     1.0000 0.29890  0.48650  0.49340  Biso   1.000  H
  H217     1.0000 0.22730  0.92450  0.47790  Biso   1.000  H
  H218     1.0000 0.27270  0.07550  0.97790  Biso   1.000  H
  H219     1.0000 0.77270  0.42450  0.02210  Biso   1.000  H
  H220     1.0000 0.72730  0.57550  0.52210  Biso   1.000  H
  H221     1.0000 0.77270  0.07550  0.52210  Biso   1.000  H
  H222     1.0000 0.72730  0.92450  0.02210  Biso   1.000  H
  H223     1.0000 0.22730  0.57550  0.97790  Biso   1.000  H
  H224     1.0000 0.27270  0.42450  0.47790  Biso   1.000  H
  O81      1.0000 0.35238  0.98404  0.58233  Biso   1.000  O
  O82      1.0000 0.14762  0.01596  0.08233  Biso   1.000  O
  O83      1.0000 0.64762  0.48404  0.91767  Biso   1.000  O
  O84      1.0000 0.85238  0.51596  0.41767  Biso   1.000  O
  O85      1.0000 0.64762  0.01596  0.41767  Biso   1.000  O
  O86      1.0000 0.85238  0.98404  0.91767  Biso   1.000  O
  O87      1.0000 0.35238  0.51596  0.08233  Biso   1.000  O
  O88      1.0000 0.14762  0.48404  0.58233  Biso   1.000  O
  H225     1.0000 0.31060  0.97620  0.56510  Biso   1.000  H
  H226     1.0000 0.18940  0.02380  0.06510  Biso   1.000  H
  H227     1.0000 0.68940  0.47620  0.93490  Biso   1.000  H
  H228     1.0000 0.81060  0.52380  0.43490  Biso   1.000  H
  H229     1.0000 0.68940  0.02380  0.43490  Biso   1.000  H
  H230     1.0000 0.81060  0.97620  0.93490  Biso   1.000  H
  H231     1.0000 0.31060  0.52380  0.06510  Biso   1.000  H
  H232     1.0000 0.18940  0.47620  0.56510  Biso   1.000  H
  H233     1.0000 0.37740  0.94790  0.58610  Biso   1.000  H
  H234     1.0000 0.12260  0.05210  0.08610  Biso   1.000  H
  H235     1.0000 0.62260  0.44790  0.91390  Biso   1.000  H
  H236     1.0000 0.87740  0.55210  0.41390  Biso   1.000  H
  H237     1.0000 0.62260  0.05210  0.41390  Biso   1.000  H
  H238     1.0000 0.87740  0.94790  0.91390  Biso   1.000  H
  H239     1.0000 0.37740  0.55210  0.08610  Biso   1.000  H
  H240     1.0000 0.12260  0.44790  0.58610  Biso   1.000  H
  O89      1.0000 0.25017  0.02966  0.79681  Biso   1.000  O
  O90      1.0000 0.24983  0.97034  0.29681  Biso   1.000  O
  O91      1.0000 0.74983  0.52966  0.70319  Biso   1.000  O
  O92      1.0000 0.75017  0.47034  0.20319  Biso   1.000  O
  O93      1.0000 0.74983  0.97034  0.20319  Biso   1.000  O
  O94      1.0000 0.75017  0.02966  0.70319  Biso   1.000  O
  O95      1.0000 0.25017  0.47034  0.29681  Biso   1.000  O
  O96      1.0000 0.24983  0.52966  0.79681  Biso   1.000  O
  H241     1.0000 0.28090  0.02980  0.76590  Biso   1.000  H
  H242     1.0000 0.21910  0.97020  0.26590  Biso   1.000  H
  H243     1.0000 0.71910  0.52980  0.73410  Biso   1.000  H
  H244     1.0000 0.78090  0.47020  0.23410  Biso   1.000  H
  H245     1.0000 0.71910  0.97020  0.23410  Biso   1.000  H
  H246     1.0000 0.78090  0.02980  0.73410  Biso   1.000  H
  H247     1.0000 0.28090  0.47020  0.26590  Biso   1.000  H
  H248     1.0000 0.21910  0.52980  0.76590  Biso   1.000  H
  H249     1.0000 0.26680  0.05320  0.82760  Biso   1.000  H
  H250     1.0000 0.23320  0.94680  0.32760  Biso   1.000  H
  H251     1.0000 0.73320  0.55320  0.67240  Biso   1.000  H
  H252     1.0000 0.76680  0.44680  0.17240  Biso   1.000  H
  H253     1.0000 0.73320  0.94680  0.17240  Biso   1.000  H
  H254     1.0000 0.76680  0.05320  0.67240  Biso   1.000  H
  H255     1.0000 0.26680  0.44680  0.32760  Biso   1.000  H
  H256     1.0000 0.23320  0.55320  0.82760  Biso   1.000  H
  O97      1.0000 0.35624  0.04739  0.69674  Biso   1.000  O
  O98      1.0000 0.14376  0.95261  0.19674  Biso   1.000  O
  O99      1.0000 0.64376  0.54739  0.80326  Biso   1.000  O
  O100     1.0000 0.85624  0.45261  0.30326  Biso   1.000  O
  O101     1.0000 0.64376  0.95261  0.30326  Biso   1.000  O
  O102     1.0000 0.85624  0.04739  0.80326  Biso   1.000  O
  O103     1.0000 0.35624  0.45261  0.19674  Biso   1.000  O
  O104     1.0000 0.14376  0.54739  0.69674  Biso   1.000  O
  H257     1.0000 0.34890  0.02790  0.66100  Biso   1.000  H
  H258     1.0000 0.15110  0.97210  0.16100  Biso   1.000  H
  H259     1.0000 0.65110  0.52790  0.83900  Biso   1.000  H
  H260     1.0000 0.84890  0.47210  0.33900  Biso   1.000  H
  H261     1.0000 0.65110  0.97210  0.33900  Biso   1.000  H
  H262     1.0000 0.84890  0.02790  0.83900  Biso   1.000  H
  H263     1.0000 0.34890  0.47210  0.16100  Biso   1.000  H
  H264     1.0000 0.15110  0.52790  0.66100  Biso   1.000  H
  H265     1.0000 0.35660  0.08980  0.69380  Biso   1.000  H
  H266     1.0000 0.14340  0.91020  0.19380  Biso   1.000  H
  H267     1.0000 0.64340  0.58980  0.80620  Biso   1.000  H
  H268     1.0000 0.85660  0.41020  0.30620  Biso   1.000  H
  H269     1.0000 0.64340  0.91020  0.30620  Biso   1.000  H
  H270     1.0000 0.85660  0.08980  0.80620  Biso   1.000  H
  H271     1.0000 0.35660  0.41020  0.19380  Biso   1.000  H
  H272     1.0000 0.14340  0.58980  0.69380  Biso   1.000  H
  O105     1.0000 0.86946  0.94301  0.55042  Biso   1.000  O
  O106     1.0000 0.63054  0.05699  0.05042  Biso   1.000  O
  O107     1.0000 0.13054  0.44301  0.94958  Biso   1.000  O
  O108     1.0000 0.36946  0.55699  0.44958  Biso   1.000  O
  O109     1.0000 0.13054  0.05699  0.44958  Biso   1.000  O
  O110     1.0000 0.36946  0.94301  0.94958  Biso   1.000  O
  O111     1.0000 0.86946  0.55699  0.05042  Biso   1.000  O
  O112     1.0000 0.63054  0.44301  0.55042  Biso   1.000  O
  H273     1.0000 0.89270  0.94410  0.51480  Biso   1.000  H
  H274     1.0000 0.60730  0.05590  0.01480  Biso   1.000  H
  H275     1.0000 0.10730  0.44410  0.98520  Biso   1.000  H
  H276     1.0000 0.39270  0.55590  0.48520  Biso   1.000  H
  H277     1.0000 0.10730  0.05590  0.48520  Biso   1.000  H
  H278     1.0000 0.39270  0.94410  0.98520  Biso   1.000  H
  H279     1.0000 0.89270  0.55590  0.01480  Biso   1.000  H
  H280     1.0000 0.60730  0.44410  0.51480  Biso   1.000  H
  H281     1.0000 0.88620  0.96890  0.57970  Biso   1.000  H
  H282     1.0000 0.61380  0.03110  0.07970  Biso   1.000  H
  H283     1.0000 0.11380  0.46890  0.92030  Biso   1.000  H
  H284     1.0000 0.38620  0.53110  0.42030  Biso   1.000  H
  H285     1.0000 0.11380  0.03110  0.42030  Biso   1.000  H
  H286     1.0000 0.38620  0.96890  0.92030  Biso   1.000  H
  H287     1.0000 0.88620  0.53110  0.07970  Biso   1.000  H
  H288     1.0000 0.61380  0.46890  0.57970  Biso   1.000  H
  O113     1.0000 0.94931  0.84292  0.73373  Biso   1.000  O
  O114     1.0000 0.55069  0.15708  0.23373  Biso   1.000  O
  O115     1.0000 0.05069  0.34292  0.76627  Biso   1.000  O
  O116     1.0000 0.44931  0.65708  0.26627  Biso   1.000  O
  O117     1.0000 0.05069  0.15708  0.26627  Biso   1.000  O
  O118     1.0000 0.44931  0.84292  0.76627  Biso   1.000  O
  O119     1.0000 0.94931  0.65708  0.23373  Biso   1.000  O
  O120     1.0000 0.55069  0.34292  0.73373  Biso   1.000  O
  H289     1.0000 0.93780  0.83240  0.77210  Biso   1.000  H
  H290     1.0000 0.56220  0.16760  0.27210  Biso   1.000  H
  H291     1.0000 0.06220  0.33240  0.72790  Biso   1.000  H
  H292     1.0000 0.43780  0.66760  0.22790  Biso   1.000  H
  H293     1.0000 0.06220  0.16760  0.22790  Biso   1.000  H
  H294     1.0000 0.43780  0.83240  0.72790  Biso   1.000  H
  H295     1.0000 0.93780  0.66760  0.27210  Biso   1.000  H
  H296     1.0000 0.56220  0.33240  0.77210  Biso   1.000  H
  H297     1.0000 0.97680  0.81350  0.71680  Biso   1.000  H
  H298     1.0000 0.52320  0.18650  0.21680  Biso   1.000  H
  H299     1.0000 0.02320  0.31350  0.78320  Biso   1.000  H
  H300     1.0000 0.47680  0.68650  0.28320  Biso   1.000  H
  H301     1.0000 0.02320  0.18650  0.28320  Biso   1.000  H
  H302     1.0000 0.47680  0.81350  0.78320  Biso   1.000  H
  H303     1.0000 0.97680  0.68650  0.21680  Biso   1.000  H
  H304     1.0000 0.52320  0.31350  0.71680  Biso   1.000  H
  O121     1.0000 0.82085  0.84615  0.65950  Biso   1.000  O
  O122     1.0000 0.67915  0.15385  0.15950  Biso   1.000  O
  O123     1.0000 0.17915  0.34615  0.84050  Biso   1.000  O
  O124     1.0000 0.32085  0.65385  0.34050  Biso   1.000  O
  O125     1.0000 0.17915  0.15385  0.34050  Biso   1.000  O
  O126     1.0000 0.32085  0.84615  0.84050  Biso   1.000  O
  O127     1.0000 0.82085  0.65385  0.15950  Biso   1.000  O
  O128     1.0000 0.67915  0.34615  0.65950  Biso   1.000  O
  H305     1.0000 0.82830  0.87550  0.63050  Biso   1.000  H
  H306     1.0000 0.67170  0.12450  0.13050  Biso   1.000  H
  H307     1.0000 0.17170  0.37550  0.86950  Biso   1.000  H
  H308     1.0000 0.32830  0.62450  0.36950  Biso   1.000  H
  H309     1.0000 0.17170  0.12450  0.36950  Biso   1.000  H
  H310     1.0000 0.32830  0.87550  0.86950  Biso   1.000  H
  H311     1.0000 0.82830  0.62450  0.13050  Biso   1.000  H
  H312     1.0000 0.67170  0.37550  0.63050  Biso   1.000  H
  H313     1.0000 0.86170  0.84280  0.67870  Biso   1.000  H
  H314     1.0000 0.63830  0.15720  0.17870  Biso   1.000  H
  H315     1.0000 0.13830  0.34280  0.82130  Biso   1.000  H
  H316     1.0000 0.36170  0.65720  0.32130  Biso   1.000  H
  H317     1.0000 0.13830  0.15720  0.32130  Biso   1.000  H
  H318     1.0000 0.36170  0.84280  0.82130  Biso   1.000  H
  H319     1.0000 0.86170  0.65720  0.17870  Biso   1.000  H
  H320     1.0000 0.63830  0.34280  0.67870  Biso   1.000  H
