data_image0
_cell_length_a       28.0524
_cell_length_b       14.8658
_cell_length_c       28.7818
_cell_angle_alpha    90
_cell_angle_beta     90
_cell_angle_gamma    90

_symmetry_space_group_name_H-M    "P 1"
_symmetry_int_tables_number       1

loop_
  _symmetry_equiv_pos_as_xyz
  'x, y, z'

loop_
  _atom_site_label
  _atom_site_occupancy
  _atom_site_fract_x
  _atom_site_fract_y
  _atom_site_fract_z
  _atom_site_thermal_displace_type
  _atom_site_B_iso_or_equiv
  _atom_site_type_symbol
  O1       1.0000 0.23510  0.36250  0.38300  Biso   1.000  O
  O2       1.0000 0.76490  0.63750  0.88300  Biso   1.000  O
  O3       1.0000 0.23510  0.13750  0.61700  Biso   1.000  O
  O4       1.0000 0.76490  0.86250  0.11700  Biso   1.000  O
  O5       1.0000 0.76490  0.63750  0.61700  Biso   1.000  O
  O6       1.0000 0.23510  0.36250  0.11700  Biso   1.000  O
  O7       1.0000 0.76490  0.86250  0.38300  Biso   1.000  O
  O8       1.0000 0.23510  0.13750  0.88300  Biso   1.000  O
  H1       1.0000 0.26850  0.36250  0.38300  Biso   1.000  H
  H2       1.0000 0.73150  0.63750  0.88300  Biso   1.000  H
  H3       1.0000 0.26850  0.13750  0.61700  Biso   1.000  H
  H4       1.0000 0.73150  0.86250  0.11700  Biso   1.000  H
  H5       1.0000 0.73150  0.63750  0.61700  Biso   1.000  H
  H6       1.0000 0.26850  0.36250  0.11700  Biso   1.000  H
  H7       1.0000 0.73150  0.86250  0.38300  Biso   1.000  H
  H8       1.0000 0.26850  0.13750  0.88300  Biso   1.000  H
  O9       1.0000 0.55460  0.41300  0.71560  Biso   1.000  O
  O10      1.0000 0.44540  0.58700  0.21560  Biso   1.000  O
  O11      1.0000 0.55460  0.08700  0.28440  Biso   1.000  O
  O12      1.0000 0.44540  0.91300  0.78440  Biso   1.000  O
  O13      1.0000 0.44540  0.58700  0.28440  Biso   1.000  O
  O14      1.0000 0.55460  0.41300  0.78440  Biso   1.000  O
  O15      1.0000 0.44540  0.91300  0.71560  Biso   1.000  O
  O16      1.0000 0.55460  0.08700  0.21560  Biso   1.000  O
  O17      1.0000 0.30390  0.62400  0.02330  Biso   1.000  O
  O18      1.0000 0.69610  0.37600  0.52330  Biso   1.000  O
  O19      1.0000 0.30390  0.87600  0.97670  Biso   1.000  O
  O20      1.0000 0.69610  0.12400  0.47670  Biso   1.000  O
  O21      1.0000 0.69610  0.37600  0.97670  Biso   1.000  O
  O22      1.0000 0.30390  0.62400  0.47670  Biso   1.000  O
  O23      1.0000 0.69610  0.12400  0.02330  Biso   1.000  O
  O24      1.0000 0.30390  0.87600  0.52330  Biso   1.000  O
  O25      1.0000 0.30000  0.76800  0.93400  Biso   1.000  O
  O26      1.0000 0.70000  0.23200  0.43400  Biso   1.000  O
  O27      1.0000 0.30000  0.73200  0.06600  Biso   1.000  O
  O28      1.0000 0.70000  0.26800  0.56600  Biso   1.000  O
  O29      1.0000 0.70000  0.23200  0.06600  Biso   1.000  O
  O30      1.0000 0.30000  0.76800  0.56600  Biso   1.000  O
  O31      1.0000 0.70000  0.26800  0.93400  Biso   1.000  O
  O32      1.0000 0.30000  0.73200  0.43400  Biso   1.000  O
  O33      1.0000 0.89300  0.72900  0.25000  Biso   1.000  O
  O34      1.0000 0.10700  0.27100  0.75000  Biso   1.000  O
  O35      1.0000 0.89300  0.77100  0.75000  Biso   1.000  O
  O36      1.0000 0.10700  0.22900  0.25000  Biso   1.000  O
  H9       1.0000 0.89300  0.72900  0.21690  Biso   1.000  H
  H10      1.0000 0.10700  0.27100  0.71690  Biso   1.000  H
  H11      1.0000 0.89300  0.77100  0.78310  Biso   1.000  H
  H12      1.0000 0.10700  0.22900  0.28310  Biso   1.000  H
  H13      1.0000 0.10700  0.27100  0.78310  Biso   1.000  H
  H14      1.0000 0.89300  0.72900  0.28310  Biso   1.000  H
  H15      1.0000 0.10700  0.22900  0.21690  Biso   1.000  H
  H16      1.0000 0.89300  0.77100  0.71690  Biso   1.000  H
  O37      1.0000 0.87000  0.87800  0.16860  Biso   1.000  O
  O38      1.0000 0.13000  0.12200  0.66860  Biso   1.000  O
  O39      1.0000 0.87000  0.62200  0.83140  Biso   1.000  O
  O40      1.0000 0.13000  0.37800  0.33140  Biso   1.000  O
  O41      1.0000 0.13000  0.12200  0.83140  Biso   1.000  O
  O42      1.0000 0.87000  0.87800  0.33140  Biso   1.000  O
  O43      1.0000 0.13000  0.37800  0.16860  Biso   1.000  O
  O44      1.0000 0.87000  0.62200  0.66860  Biso   1.000  O
  H17      1.0000 0.90415  0.90800  0.16860  Biso   1.000  H
  H18      1.0000 0.09585  0.09200  0.66860  Biso   1.000  H
  H19      1.0000 0.90415  0.59200  0.83140  Biso   1.000  H
  H20      1.0000 0.09585  0.40800  0.33140  Biso   1.000  H
  H21      1.0000 0.09585  0.09200  0.83140  Biso   1.000  H
  H22      1.0000 0.90415  0.90800  0.33140  Biso   1.000  H
  H23      1.0000 0.09585  0.40800  0.16860  Biso   1.000  H
  H24      1.0000 0.90415  0.59200  0.66860  Biso   1.000  H
  Cu1      1.0000 0.28350  0.66903  0.75000  Biso   1.000  Cu
  Cu2      1.0000 0.71650  0.33097  0.25000  Biso   1.000  Cu
  Cu3      1.0000 0.28350  0.83097  0.25000  Biso   1.000  Cu
  Cu4      1.0000 0.71650  0.16903  0.75000  Biso   1.000  Cu
  O45      1.0000 0.36500  0.78100  0.70200  Biso   1.000  O
  O46      1.0000 0.63500  0.21900  0.20200  Biso   1.000  O
  O47      1.0000 0.36500  0.71900  0.29800  Biso   1.000  O
  O48      1.0000 0.63500  0.28100  0.79800  Biso   1.000  O
  O49      1.0000 0.63500  0.21900  0.29800  Biso   1.000  O
  O50      1.0000 0.36500  0.78100  0.79800  Biso   1.000  O
  O51      1.0000 0.63500  0.28100  0.70200  Biso   1.000  O
  O52      1.0000 0.36500  0.71900  0.20200  Biso   1.000  O
  C1       1.0000 0.35840  0.70510  0.68440  Biso   1.000  C
  C2       1.0000 0.64160  0.29490  0.18440  Biso   1.000  C
  C3       1.0000 0.35840  0.79490  0.31560  Biso   1.000  C
  C4       1.0000 0.64160  0.20510  0.81560  Biso   1.000  C
  C5       1.0000 0.64160  0.29490  0.31560  Biso   1.000  C
  C6       1.0000 0.35840  0.70510  0.81560  Biso   1.000  C
  C7       1.0000 0.64160  0.20510  0.68440  Biso   1.000  C
  C8       1.0000 0.35840  0.79490  0.18440  Biso   1.000  C
  Cu5      1.0000 0.32219  0.82713  0.75000  Biso   1.000  Cu
  Cu6      1.0000 0.67781  0.17287  0.25000  Biso   1.000  Cu
  Cu7      1.0000 0.32219  0.67287  0.25000  Biso   1.000  Cu
  Cu8      1.0000 0.67781  0.32713  0.75000  Biso   1.000  Cu
  O53      1.0000 0.33000  0.64660  0.70040  Biso   1.000  O
  O54      1.0000 0.67000  0.35340  0.20040  Biso   1.000  O
  O55      1.0000 0.33000  0.85340  0.29960  Biso   1.000  O
  O56      1.0000 0.67000  0.14660  0.79960  Biso   1.000  O
  O57      1.0000 0.67000  0.35340  0.29960  Biso   1.000  O
  O58      1.0000 0.33000  0.64660  0.79960  Biso   1.000  O
  O59      1.0000 0.67000  0.14660  0.70040  Biso   1.000  O
  O60      1.0000 0.33000  0.85340  0.20040  Biso   1.000  O
  C9       1.0000 0.38550  0.68190  0.64120  Biso   1.000  C
  C10      1.0000 0.61450  0.31810  0.14120  Biso   1.000  C
  C11      1.0000 0.38550  0.81810  0.35880  Biso   1.000  C
  C12      1.0000 0.61450  0.18190  0.85880  Biso   1.000  C
  C13      1.0000 0.61450  0.31810  0.35880  Biso   1.000  C
  C14      1.0000 0.38550  0.68190  0.85880  Biso   1.000  C
  C15      1.0000 0.61450  0.18190  0.64120  Biso   1.000  C
  C16      1.0000 0.38550  0.81810  0.14120  Biso   1.000  C
  Cu9      1.0000 0.26863  0.31085  0.25000  Biso   1.000  Cu
  Cu10     1.0000 0.73137  0.68915  0.75000  Biso   1.000  Cu
  Cu11     1.0000 0.26863  0.18915  0.75000  Biso   1.000  Cu
  Cu12     1.0000 0.73137  0.81085  0.25000  Biso   1.000  Cu
  O61      1.0000 0.24110  0.71680  0.70190  Biso   1.000  O
  O62      1.0000 0.75890  0.28320  0.20190  Biso   1.000  O
  O63      1.0000 0.24110  0.78320  0.29810  Biso   1.000  O
  O64      1.0000 0.75890  0.21680  0.79810  Biso   1.000  O
  O65      1.0000 0.75890  0.28320  0.29810  Biso   1.000  O
  O66      1.0000 0.24110  0.71680  0.79810  Biso   1.000  O
  O67      1.0000 0.75890  0.21680  0.70190  Biso   1.000  O
  O68      1.0000 0.24110  0.78320  0.20190  Biso   1.000  O
  C17      1.0000 0.37160  0.60940  0.61440  Biso   1.000  C
  C18      1.0000 0.62840  0.39060  0.11440  Biso   1.000  C
  C19      1.0000 0.37160  0.89060  0.38560  Biso   1.000  C
  C20      1.0000 0.62840  0.10940  0.88560  Biso   1.000  C
  C21      1.0000 0.62840  0.39060  0.38560  Biso   1.000  C
  C22      1.0000 0.37160  0.60940  0.88560  Biso   1.000  C
  C23      1.0000 0.62840  0.10940  0.61440  Biso   1.000  C
  C24      1.0000 0.37160  0.89060  0.11440  Biso   1.000  C
  H25      1.0000 0.34670  0.57110  0.62480  Biso   1.000  H
  H26      1.0000 0.65330  0.42890  0.12480  Biso   1.000  H
  H27      1.0000 0.34670  0.92890  0.37520  Biso   1.000  H
  H28      1.0000 0.65330  0.07110  0.87520  Biso   1.000  H
  H29      1.0000 0.65330  0.42890  0.37520  Biso   1.000  H
  H30      1.0000 0.34670  0.57110  0.87520  Biso   1.000  H
  H31      1.0000 0.65330  0.07110  0.62480  Biso   1.000  H
  H32      1.0000 0.34670  0.92890  0.12480  Biso   1.000  H
  Cu13     1.0000 0.33567  0.18831  0.25000  Biso   1.000  Cu
  Cu14     1.0000 0.66433  0.81169  0.75000  Biso   1.000  Cu
  Cu15     1.0000 0.33567  0.31169  0.75000  Biso   1.000  Cu
  Cu16     1.0000 0.66433  0.68831  0.25000  Biso   1.000  Cu
  O69      1.0000 0.27570  0.85190  0.70080  Biso   1.000  O
  O70      1.0000 0.72430  0.14810  0.20080  Biso   1.000  O
  O71      1.0000 0.27570  0.64810  0.29920  Biso   1.000  O
  O72      1.0000 0.72430  0.35190  0.79920  Biso   1.000  O
  O73      1.0000 0.72430  0.14810  0.29920  Biso   1.000  O
  O74      1.0000 0.27570  0.85190  0.79920  Biso   1.000  O
  O75      1.0000 0.72430  0.35190  0.70080  Biso   1.000  O
  O76      1.0000 0.27570  0.64810  0.20080  Biso   1.000  O
  C25      1.0000 0.39420  0.59190  0.57190  Biso   1.000  C
  C26      1.0000 0.60580  0.40810  0.07190  Biso   1.000  C
  C27      1.0000 0.39420  0.90810  0.42810  Biso   1.000  C
  C28      1.0000 0.60580  0.09190  0.92810  Biso   1.000  C
  C29      1.0000 0.60580  0.40810  0.42810  Biso   1.000  C
  C30      1.0000 0.39420  0.59190  0.92810  Biso   1.000  C
  C31      1.0000 0.60580  0.09190  0.57190  Biso   1.000  C
  C32      1.0000 0.39420  0.90810  0.07190  Biso   1.000  C
  H33      1.0000 0.38340  0.54360  0.55290  Biso   1.000  H
  H34      1.0000 0.61660  0.45640  0.05290  Biso   1.000  H
  H35      1.0000 0.38340  0.95640  0.44710  Biso   1.000  H
  H36      1.0000 0.61660  0.04360  0.94710  Biso   1.000  H
  H37      1.0000 0.61660  0.45640  0.44710  Biso   1.000  H
  H38      1.0000 0.38340  0.54360  0.94710  Biso   1.000  H
  H39      1.0000 0.61660  0.04360  0.55290  Biso   1.000  H
  H40      1.0000 0.38340  0.95640  0.05290  Biso   1.000  H
  O77      1.0000 0.36490  0.26570  0.29730  Biso   1.000  O
  O78      1.0000 0.63510  0.73430  0.79730  Biso   1.000  O
  O79      1.0000 0.36490  0.23430  0.70270  Biso   1.000  O
  O80      1.0000 0.63510  0.76570  0.20270  Biso   1.000  O
  O81      1.0000 0.63510  0.73430  0.70270  Biso   1.000  O
  O82      1.0000 0.36490  0.26570  0.20270  Biso   1.000  O
  O83      1.0000 0.63510  0.76570  0.29730  Biso   1.000  O
  O84      1.0000 0.36490  0.23430  0.79730  Biso   1.000  O
  C33      1.0000 0.43230  0.64470  0.55720  Biso   1.000  C
  C34      1.0000 0.56770  0.35530  0.05720  Biso   1.000  C
  C35      1.0000 0.43230  0.85530  0.44280  Biso   1.000  C
  C36      1.0000 0.56770  0.14470  0.94280  Biso   1.000  C
  C37      1.0000 0.56770  0.35530  0.44280  Biso   1.000  C
  C38      1.0000 0.43230  0.64470  0.94280  Biso   1.000  C
  C39      1.0000 0.56770  0.14470  0.55720  Biso   1.000  C
  C40      1.0000 0.43230  0.85530  0.05720  Biso   1.000  C
  O85      1.0000 0.30830  0.36900  0.29720  Biso   1.000  O
  O86      1.0000 0.69170  0.63100  0.79720  Biso   1.000  O
  O87      1.0000 0.30830  0.13100  0.70280  Biso   1.000  O
  O88      1.0000 0.69170  0.86900  0.20280  Biso   1.000  O
  O89      1.0000 0.69170  0.63100  0.70280  Biso   1.000  O
  O90      1.0000 0.30830  0.36900  0.20280  Biso   1.000  O
  O91      1.0000 0.69170  0.86900  0.29720  Biso   1.000  O
  O92      1.0000 0.30830  0.13100  0.79720  Biso   1.000  O
  C41      1.0000 0.44630  0.71630  0.58480  Biso   1.000  C
  C42      1.0000 0.55370  0.28370  0.08480  Biso   1.000  C
  C43      1.0000 0.44630  0.78370  0.41520  Biso   1.000  C
  C44      1.0000 0.55370  0.21630  0.91520  Biso   1.000  C
  C45      1.0000 0.55370  0.28370  0.41520  Biso   1.000  C
  C46      1.0000 0.44630  0.71630  0.91520  Biso   1.000  C
  C47      1.0000 0.55370  0.21630  0.58480  Biso   1.000  C
  C48      1.0000 0.44630  0.78370  0.08480  Biso   1.000  C
  H41      1.0000 0.47220  0.75300  0.57530  Biso   1.000  H
  H42      1.0000 0.52780  0.24700  0.07530  Biso   1.000  H
  H43      1.0000 0.47220  0.74700  0.42470  Biso   1.000  H
  H44      1.0000 0.52780  0.25300  0.92470  Biso   1.000  H
  H45      1.0000 0.52780  0.24700  0.42470  Biso   1.000  H
  H46      1.0000 0.47220  0.75300  0.92470  Biso   1.000  H
  H47      1.0000 0.52780  0.25300  0.57530  Biso   1.000  H
  H48      1.0000 0.47220  0.74700  0.07530  Biso   1.000  H
  O93      1.0000 0.24030  0.23540  0.29680  Biso   1.000  O
  O94      1.0000 0.75970  0.76460  0.79680  Biso   1.000  O
  O95      1.0000 0.24030  0.26460  0.70320  Biso   1.000  O
  O96      1.0000 0.75970  0.73540  0.20320  Biso   1.000  O
  O97      1.0000 0.75970  0.76460  0.70320  Biso   1.000  O
  O98      1.0000 0.24030  0.23540  0.20320  Biso   1.000  O
  O99      1.0000 0.75970  0.73540  0.29680  Biso   1.000  O
  O100     1.0000 0.24030  0.26460  0.79680  Biso   1.000  O
  C49      1.0000 0.42270  0.73550  0.62660  Biso   1.000  C
  C50      1.0000 0.57730  0.26450  0.12660  Biso   1.000  C
  C51      1.0000 0.42270  0.76450  0.37340  Biso   1.000  C
  C52      1.0000 0.57730  0.23550  0.87340  Biso   1.000  C
  C53      1.0000 0.57730  0.26450  0.37340  Biso   1.000  C
  C54      1.0000 0.42270  0.73550  0.87340  Biso   1.000  C
  C55      1.0000 0.57730  0.23550  0.62660  Biso   1.000  C
  C56      1.0000 0.42270  0.76450  0.12660  Biso   1.000  C
  H49      1.0000 0.43240  0.78540  0.64500  Biso   1.000  H
  H50      1.0000 0.56760  0.21460  0.14500  Biso   1.000  H
  H51      1.0000 0.43240  0.71460  0.35500  Biso   1.000  H
  H52      1.0000 0.56760  0.28540  0.85500  Biso   1.000  H
  H53      1.0000 0.56760  0.21460  0.35500  Biso   1.000  H
  H54      1.0000 0.43240  0.78540  0.85500  Biso   1.000  H
  H55      1.0000 0.56760  0.28540  0.64500  Biso   1.000  H
  H56      1.0000 0.43240  0.71460  0.14500  Biso   1.000  H
  O101     1.0000 0.29540  0.13080  0.29660  Biso   1.000  O
  O102     1.0000 0.70460  0.86920  0.79660  Biso   1.000  O
  O103     1.0000 0.29540  0.36920  0.70340  Biso   1.000  O
  O104     1.0000 0.70460  0.63080  0.20340  Biso   1.000  O
  O105     1.0000 0.70460  0.86920  0.70340  Biso   1.000  O
  O106     1.0000 0.29540  0.13080  0.20340  Biso   1.000  O
  O107     1.0000 0.70460  0.63080  0.29660  Biso   1.000  O
  O108     1.0000 0.29540  0.36920  0.79660  Biso   1.000  O
  C57      1.0000 0.45730  0.62470  0.51300  Biso   1.000  C
  C58      1.0000 0.54270  0.37530  0.01300  Biso   1.000  C
  C59      1.0000 0.45730  0.87530  0.48700  Biso   1.000  C
  C60      1.0000 0.54270  0.12470  0.98700  Biso   1.000  C
  C61      1.0000 0.54270  0.37530  0.48700  Biso   1.000  C
  C62      1.0000 0.45730  0.62470  0.98700  Biso   1.000  C
  C63      1.0000 0.54270  0.12470  0.51300  Biso   1.000  C
  C64      1.0000 0.45730  0.87530  0.01300  Biso   1.000  C
  O109     1.0000 0.75620  0.61670  0.49770  Biso   1.000  O
  O110     1.0000 0.24380  0.38330  0.99770  Biso   1.000  O
  O111     1.0000 0.75620  0.88330  0.50230  Biso   1.000  O
  O112     1.0000 0.24380  0.11670  0.00230  Biso   1.000  O
  O113     1.0000 0.24380  0.38330  0.50230  Biso   1.000  O
  O114     1.0000 0.75620  0.61670  0.00230  Biso   1.000  O
  O115     1.0000 0.24380  0.11670  0.49770  Biso   1.000  O
  O116     1.0000 0.75620  0.88330  0.99770  Biso   1.000  O
  H57      1.0000 0.79025  0.61671  0.49765  Biso   1.000  H
  H58      1.0000 0.20975  0.38329  0.99765  Biso   1.000  H
  H59      1.0000 0.79025  0.88329  0.50235  Biso   1.000  H
  H60      1.0000 0.20975  0.11671  0.00235  Biso   1.000  H
  H61      1.0000 0.20975  0.38329  0.50235  Biso   1.000  H
  H62      1.0000 0.79025  0.61671  0.00235  Biso   1.000  H
  H63      1.0000 0.20975  0.11671  0.49765  Biso   1.000  H
  H64      1.0000 0.79025  0.88329  0.99765  Biso   1.000  H
  C65      1.0000 0.43340  0.58410  0.47580  Biso   1.000  C
  C66      1.0000 0.56660  0.41590  0.97580  Biso   1.000  C
  C67      1.0000 0.43340  0.91590  0.52420  Biso   1.000  C
  C68      1.0000 0.56660  0.08410  0.02420  Biso   1.000  C
  C69      1.0000 0.56660  0.41590  0.52420  Biso   1.000  C
  C70      1.0000 0.43340  0.58410  0.02420  Biso   1.000  C
  C71      1.0000 0.56660  0.08410  0.47580  Biso   1.000  C
  C72      1.0000 0.43340  0.91590  0.97580  Biso   1.000  C
  H65      1.0000 0.40010  0.57340  0.47810  Biso   1.000  H
  H66      1.0000 0.59990  0.42660  0.97810  Biso   1.000  H
  H67      1.0000 0.40010  0.92660  0.52190  Biso   1.000  H
  H68      1.0000 0.59990  0.07340  0.02190  Biso   1.000  H
  H69      1.0000 0.59990  0.42660  0.52190  Biso   1.000  H
  H70      1.0000 0.40010  0.57340  0.02190  Biso   1.000  H
  H71      1.0000 0.59990  0.07340  0.47810  Biso   1.000  H
  H72      1.0000 0.40010  0.92660  0.97810  Biso   1.000  H
  O117     1.0000 0.75540  0.71160  0.43750  Biso   1.000  O
  O118     1.0000 0.24460  0.28840  0.93750  Biso   1.000  O
  O119     1.0000 0.75540  0.78840  0.56250  Biso   1.000  O
  O120     1.0000 0.24460  0.21160  0.06250  Biso   1.000  O
  O121     1.0000 0.24460  0.28840  0.56250  Biso   1.000  O
  O122     1.0000 0.75540  0.71160  0.06250  Biso   1.000  O
  O123     1.0000 0.24460  0.21160  0.43750  Biso   1.000  O
  O124     1.0000 0.75540  0.78840  0.93750  Biso   1.000  O
  C73      1.0000 0.45740  0.55900  0.43560  Biso   1.000  C
  C74      1.0000 0.54260  0.44100  0.93560  Biso   1.000  C
  C75      1.0000 0.45740  0.94100  0.56440  Biso   1.000  C
  C76      1.0000 0.54260  0.05900  0.06440  Biso   1.000  C
  C77      1.0000 0.54260  0.44100  0.56440  Biso   1.000  C
  C78      1.0000 0.45740  0.55900  0.06440  Biso   1.000  C
  C79      1.0000 0.54260  0.05900  0.43560  Biso   1.000  C
  C80      1.0000 0.45740  0.94100  0.93560  Biso   1.000  C
  O125     1.0000 0.35180  0.96370  0.75000  Biso   1.000  O
  O126     1.0000 0.64820  0.03630  0.25000  Biso   1.000  O
  O127     1.0000 0.35180  0.53630  0.25000  Biso   1.000  O
  O128     1.0000 0.64820  0.46370  0.75000  Biso   1.000  O
  C81      1.0000 0.50580  0.57580  0.43150  Biso   1.000  C
  C82      1.0000 0.49420  0.42420  0.93150  Biso   1.000  C
  C83      1.0000 0.50580  0.92420  0.56850  Biso   1.000  C
  C84      1.0000 0.49420  0.07580  0.06850  Biso   1.000  C
  C85      1.0000 0.49420  0.42420  0.56850  Biso   1.000  C
  C86      1.0000 0.50580  0.57580  0.06850  Biso   1.000  C
  C87      1.0000 0.49420  0.07580  0.43150  Biso   1.000  C
  C88      1.0000 0.50580  0.92420  0.93150  Biso   1.000  C
  H73      1.0000 0.52230  0.55840  0.40410  Biso   1.000  H
  H74      1.0000 0.47770  0.44160  0.90410  Biso   1.000  H
  H75      1.0000 0.52230  0.94160  0.59590  Biso   1.000  H
  H76      1.0000 0.47770  0.05840  0.09590  Biso   1.000  H
  H77      1.0000 0.47770  0.44160  0.59590  Biso   1.000  H
  H78      1.0000 0.52230  0.55840  0.09590  Biso   1.000  H
  H79      1.0000 0.47770  0.05840  0.40410  Biso   1.000  H
  H80      1.0000 0.52230  0.94160  0.90410  Biso   1.000  H
  O129     1.0000 0.25520  0.53630  0.75000  Biso   1.000  O
  O130     1.0000 0.74480  0.46370  0.25000  Biso   1.000  O
  O131     1.0000 0.25520  0.96370  0.25000  Biso   1.000  O
  O132     1.0000 0.74480  0.03630  0.75000  Biso   1.000  O
  C89      1.0000 0.53060  0.61850  0.46790  Biso   1.000  C
  C90      1.0000 0.46940  0.38150  0.96790  Biso   1.000  C
  C91      1.0000 0.53060  0.88150  0.53210  Biso   1.000  C
  C92      1.0000 0.46940  0.11850  0.03210  Biso   1.000  C
  C93      1.0000 0.46940  0.38150  0.53210  Biso   1.000  C
  C94      1.0000 0.53060  0.61850  0.03210  Biso   1.000  C
  C95      1.0000 0.46940  0.11850  0.46790  Biso   1.000  C
  C96      1.0000 0.53060  0.88150  0.96790  Biso   1.000  C
  O133     1.0000 0.84560  0.85600  0.48390  Biso   1.000  O
  O134     1.0000 0.15440  0.14400  0.98390  Biso   1.000  O
  O135     1.0000 0.84560  0.64400  0.51610  Biso   1.000  O
  O136     1.0000 0.15440  0.35600  0.01610  Biso   1.000  O
  O137     1.0000 0.15440  0.14400  0.51610  Biso   1.000  O
  O138     1.0000 0.84560  0.85600  0.01610  Biso   1.000  O
  O139     1.0000 0.15440  0.35600  0.48390  Biso   1.000  O
  O140     1.0000 0.84560  0.64400  0.98390  Biso   1.000  O
  C97      1.0000 0.50530  0.64130  0.50790  Biso   1.000  C
  C98      1.0000 0.49470  0.35870  0.00790  Biso   1.000  C
  C99      1.0000 0.50530  0.85870  0.49210  Biso   1.000  C
  C100     1.0000 0.49470  0.14130  0.99210  Biso   1.000  C
  C101     1.0000 0.49470  0.35870  0.49210  Biso   1.000  C
  C102     1.0000 0.50530  0.64130  0.99210  Biso   1.000  C
  C103     1.0000 0.49470  0.14130  0.50790  Biso   1.000  C
  C104     1.0000 0.50530  0.85870  0.00790  Biso   1.000  C
  H81      1.0000 0.52200  0.66950  0.53270  Biso   1.000  H
  H82      1.0000 0.47800  0.33050  0.03270  Biso   1.000  H
  H83      1.0000 0.52200  0.83050  0.46730  Biso   1.000  H
  H84      1.0000 0.47800  0.16950  0.96730  Biso   1.000  H
  H85      1.0000 0.47800  0.33050  0.46730  Biso   1.000  H
  H86      1.0000 0.52200  0.66950  0.96730  Biso   1.000  H
  H87      1.0000 0.47800  0.16950  0.53270  Biso   1.000  H
  H88      1.0000 0.52200  0.83050  0.03270  Biso   1.000  H
  O141     1.0000 0.85670  0.82600  0.40850  Biso   1.000  O
  O142     1.0000 0.14330  0.17400  0.90850  Biso   1.000  O
  O143     1.0000 0.85670  0.67400  0.59150  Biso   1.000  O
  O144     1.0000 0.14330  0.32600  0.09150  Biso   1.000  O
  O145     1.0000 0.14330  0.17400  0.59150  Biso   1.000  O
  O146     1.0000 0.85670  0.82600  0.09150  Biso   1.000  O
  O147     1.0000 0.14330  0.32600  0.40850  Biso   1.000  O
  O148     1.0000 0.85670  0.67400  0.90850  Biso   1.000  O
  H89      1.0000 0.82358  0.82640  0.39990  Biso   1.000  H
  H90      1.0000 0.17642  0.17360  0.89990  Biso   1.000  H
  H91      1.0000 0.82358  0.67360  0.60010  Biso   1.000  H
  H92      1.0000 0.17642  0.32640  0.10010  Biso   1.000  H
  H93      1.0000 0.17642  0.17360  0.60010  Biso   1.000  H
  H94      1.0000 0.82358  0.82640  0.10010  Biso   1.000  H
  H95      1.0000 0.17642  0.32640  0.39990  Biso   1.000  H
  H96      1.0000 0.82358  0.67360  0.89990  Biso   1.000  H
  C105     1.0000 0.43060  0.50750  0.39960  Biso   1.000  C
  C106     1.0000 0.56940  0.49250  0.89960  Biso   1.000  C
  C107     1.0000 0.43060  0.99250  0.60040  Biso   1.000  C
  C108     1.0000 0.56940  0.00750  0.10040  Biso   1.000  C
  C109     1.0000 0.56940  0.49250  0.60040  Biso   1.000  C
  C110     1.0000 0.43060  0.50750  0.10040  Biso   1.000  C
  C111     1.0000 0.56940  0.00750  0.39960  Biso   1.000  C
  C112     1.0000 0.43060  0.99250  0.89960  Biso   1.000  C
  O149     1.0000 0.20880  0.39840  0.25000  Biso   1.000  O
  O150     1.0000 0.79120  0.60160  0.75000  Biso   1.000  O
  O151     1.0000 0.20880  0.10160  0.75000  Biso   1.000  O
  O152     1.0000 0.79120  0.89840  0.25000  Biso   1.000  O
  C113     1.0000 0.38300  0.52750  0.39000  Biso   1.000  C
  C114     1.0000 0.61700  0.47250  0.89000  Biso   1.000  C
  C115     1.0000 0.38300  0.97250  0.61000  Biso   1.000  C
  C116     1.0000 0.61700  0.02750  0.11000  Biso   1.000  C
  C117     1.0000 0.61700  0.47250  0.61000  Biso   1.000  C
  C118     1.0000 0.38300  0.52750  0.11000  Biso   1.000  C
  C119     1.0000 0.61700  0.02750  0.39000  Biso   1.000  C
  C120     1.0000 0.38300  0.97250  0.89000  Biso   1.000  C
  H97      1.0000 0.36860  0.57920  0.40350  Biso   1.000  H
  H98      1.0000 0.63140  0.42080  0.90350  Biso   1.000  H
  H99      1.0000 0.36860  0.92080  0.59650  Biso   1.000  H
  H100     1.0000 0.63140  0.07920  0.09650  Biso   1.000  H
  H101     1.0000 0.63140  0.42080  0.59650  Biso   1.000  H
  H102     1.0000 0.36860  0.57920  0.09650  Biso   1.000  H
  H103     1.0000 0.63140  0.07920  0.40350  Biso   1.000  H
  H104     1.0000 0.36860  0.92080  0.90350  Biso   1.000  H
  O153     1.0000 0.39090  0.09500  0.25000  Biso   1.000  O
  O154     1.0000 0.60910  0.90500  0.75000  Biso   1.000  O
  O155     1.0000 0.39090  0.40500  0.75000  Biso   1.000  O
  O156     1.0000 0.60910  0.59500  0.25000  Biso   1.000  O
  C121     1.0000 0.35680  0.47320  0.36120  Biso   1.000  C
  C122     1.0000 0.64320  0.52680  0.86120  Biso   1.000  C
  C123     1.0000 0.35680  0.02680  0.63880  Biso   1.000  C
  C124     1.0000 0.64320  0.97320  0.13880  Biso   1.000  C
  C125     1.0000 0.64320  0.52680  0.63880  Biso   1.000  C
  C126     1.0000 0.35680  0.47320  0.13880  Biso   1.000  C
  C127     1.0000 0.64320  0.97320  0.36120  Biso   1.000  C
  C128     1.0000 0.35680  0.02680  0.86120  Biso   1.000  C
  H105     1.0000 0.32460  0.48790  0.35470  Biso   1.000  H
  H106     1.0000 0.67540  0.51210  0.85470  Biso   1.000  H
  H107     1.0000 0.32460  0.01210  0.64530  Biso   1.000  H
  H108     1.0000 0.67540  0.98790  0.14530  Biso   1.000  H
  H109     1.0000 0.67540  0.51210  0.64530  Biso   1.000  H
  H110     1.0000 0.32460  0.48790  0.14530  Biso   1.000  H
  H111     1.0000 0.67540  0.98790  0.35470  Biso   1.000  H
  H112     1.0000 0.32460  0.01210  0.85470  Biso   1.000  H
  C129     1.0000 0.37680  0.39680  0.34140  Biso   1.000  C
  C130     1.0000 0.62320  0.60320  0.84140  Biso   1.000  C
  C131     1.0000 0.37680  0.10320  0.65860  Biso   1.000  C
  C132     1.0000 0.62320  0.89680  0.15860  Biso   1.000  C
  C133     1.0000 0.62320  0.60320  0.65860  Biso   1.000  C
  C134     1.0000 0.37680  0.39680  0.15860  Biso   1.000  C
  C135     1.0000 0.62320  0.89680  0.34140  Biso   1.000  C
  C136     1.0000 0.37680  0.10320  0.84140  Biso   1.000  C
  C137     1.0000 0.42420  0.37700  0.34920  Biso   1.000  C
  C138     1.0000 0.57580  0.62300  0.84920  Biso   1.000  C
  C139     1.0000 0.42420  0.12300  0.65080  Biso   1.000  C
  C140     1.0000 0.57580  0.87700  0.15080  Biso   1.000  C
  C141     1.0000 0.57580  0.62300  0.65080  Biso   1.000  C
  C142     1.0000 0.42420  0.37700  0.15080  Biso   1.000  C
  C143     1.0000 0.57580  0.87700  0.34920  Biso   1.000  C
  C144     1.0000 0.42420  0.12300  0.84920  Biso   1.000  C
  H113     1.0000 0.43830  0.32580  0.33510  Biso   1.000  H
  H114     1.0000 0.56170  0.67420  0.83510  Biso   1.000  H
  H115     1.0000 0.43830  0.17420  0.66490  Biso   1.000  H
  H116     1.0000 0.56170  0.82580  0.16490  Biso   1.000  H
  H117     1.0000 0.56170  0.67420  0.66490  Biso   1.000  H
  H118     1.0000 0.43830  0.32580  0.16490  Biso   1.000  H
  H119     1.0000 0.56170  0.82580  0.33510  Biso   1.000  H
  H120     1.0000 0.43830  0.17420  0.83510  Biso   1.000  H
  C145     1.0000 0.45140  0.43300  0.37820  Biso   1.000  C
  C146     1.0000 0.54860  0.56700  0.87820  Biso   1.000  C
  C147     1.0000 0.45140  0.06700  0.62180  Biso   1.000  C
  C148     1.0000 0.54860  0.93300  0.12180  Biso   1.000  C
  C149     1.0000 0.54860  0.56700  0.62180  Biso   1.000  C
  C150     1.0000 0.45140  0.43300  0.12180  Biso   1.000  C
  C151     1.0000 0.54860  0.93300  0.37820  Biso   1.000  C
  C152     1.0000 0.45140  0.06700  0.87820  Biso   1.000  C
  H121     1.0000 0.48420  0.42010  0.38320  Biso   1.000  H
  H122     1.0000 0.51580  0.57990  0.88320  Biso   1.000  H
  H123     1.0000 0.48420  0.07990  0.61680  Biso   1.000  H
  H124     1.0000 0.51580  0.92010  0.11680  Biso   1.000  H
  H125     1.0000 0.51580  0.57990  0.61680  Biso   1.000  H
  H126     1.0000 0.48420  0.42010  0.11680  Biso   1.000  H
  H127     1.0000 0.51580  0.92010  0.38320  Biso   1.000  H
  H128     1.0000 0.48420  0.07990  0.88320  Biso   1.000  H
  C153     1.0000 0.34780  0.33910  0.31000  Biso   1.000  C
  C154     1.0000 0.65220  0.66090  0.81000  Biso   1.000  C
  C155     1.0000 0.34780  0.16090  0.69000  Biso   1.000  C
  C156     1.0000 0.65220  0.83910  0.19000  Biso   1.000  C
  C157     1.0000 0.65220  0.66090  0.69000  Biso   1.000  C
  C158     1.0000 0.34780  0.33910  0.19000  Biso   1.000  C
  C159     1.0000 0.65220  0.83910  0.31000  Biso   1.000  C
  C160     1.0000 0.34780  0.16090  0.81000  Biso   1.000  C
  C161     1.0000 0.58300  0.63470  0.46510  Biso   1.000  C
  C162     1.0000 0.41700  0.36530  0.96510  Biso   1.000  C
  C163     1.0000 0.58300  0.86530  0.53490  Biso   1.000  C
  C164     1.0000 0.41700  0.13470  0.03490  Biso   1.000  C
  C165     1.0000 0.41700  0.36530  0.53490  Biso   1.000  C
  C166     1.0000 0.58300  0.63470  0.03490  Biso   1.000  C
  C167     1.0000 0.41700  0.13470  0.46510  Biso   1.000  C
  C168     1.0000 0.58300  0.86530  0.96510  Biso   1.000  C
  C169     1.0000 0.60660  0.65750  0.42320  Biso   1.000  C
  C170     1.0000 0.39340  0.34250  0.92320  Biso   1.000  C
  C171     1.0000 0.60660  0.84250  0.57680  Biso   1.000  C
  C172     1.0000 0.39340  0.15750  0.07680  Biso   1.000  C
  C173     1.0000 0.39340  0.34250  0.57680  Biso   1.000  C
  C174     1.0000 0.60660  0.65750  0.07680  Biso   1.000  C
  C175     1.0000 0.39340  0.15750  0.42320  Biso   1.000  C
  C176     1.0000 0.60660  0.84250  0.92320  Biso   1.000  C
  H129     1.0000 0.58880  0.66580  0.39540  Biso   1.000  H
  H130     1.0000 0.41120  0.33420  0.89540  Biso   1.000  H
  H131     1.0000 0.58880  0.83420  0.60460  Biso   1.000  H
  H132     1.0000 0.41120  0.16580  0.10460  Biso   1.000  H
  H133     1.0000 0.41120  0.33420  0.60460  Biso   1.000  H
  H134     1.0000 0.58880  0.66580  0.10460  Biso   1.000  H
  H135     1.0000 0.41120  0.16580  0.39540  Biso   1.000  H
  H136     1.0000 0.58880  0.83420  0.89540  Biso   1.000  H
  C177     1.0000 0.65530  0.66760  0.42290  Biso   1.000  C
  C178     1.0000 0.34470  0.33240  0.92290  Biso   1.000  C
  C179     1.0000 0.65530  0.83240  0.57710  Biso   1.000  C
  C180     1.0000 0.34470  0.16760  0.07710  Biso   1.000  C
  C181     1.0000 0.34470  0.33240  0.57710  Biso   1.000  C
  C182     1.0000 0.65530  0.66760  0.07710  Biso   1.000  C
  C183     1.0000 0.34470  0.16760  0.42290  Biso   1.000  C
  C184     1.0000 0.65530  0.83240  0.92290  Biso   1.000  C
  H137     1.0000 0.67090  0.68580  0.39510  Biso   1.000  H
  H138     1.0000 0.32910  0.31420  0.89510  Biso   1.000  H
  H139     1.0000 0.67090  0.81420  0.60490  Biso   1.000  H
  H140     1.0000 0.32910  0.18580  0.10490  Biso   1.000  H
  H141     1.0000 0.32910  0.31420  0.60490  Biso   1.000  H
  H142     1.0000 0.67090  0.68580  0.10490  Biso   1.000  H
  H143     1.0000 0.32910  0.18580  0.39510  Biso   1.000  H
  H144     1.0000 0.67090  0.81420  0.89510  Biso   1.000  H
  C185     1.0000 0.68230  0.65180  0.46260  Biso   1.000  C
  C186     1.0000 0.31770  0.34820  0.96260  Biso   1.000  C
  C187     1.0000 0.68230  0.84820  0.53740  Biso   1.000  C
  C188     1.0000 0.31770  0.15180  0.03740  Biso   1.000  C
  C189     1.0000 0.31770  0.34820  0.53740  Biso   1.000  C
  C190     1.0000 0.68230  0.65180  0.03740  Biso   1.000  C
  C191     1.0000 0.31770  0.15180  0.46260  Biso   1.000  C
  C192     1.0000 0.68230  0.84820  0.96260  Biso   1.000  C
  C193     1.0000 0.65920  0.62960  0.50460  Biso   1.000  C
  C194     1.0000 0.34080  0.37040  0.00460  Biso   1.000  C
  C195     1.0000 0.65920  0.87040  0.49540  Biso   1.000  C
  C196     1.0000 0.34080  0.12960  0.99540  Biso   1.000  C
  C197     1.0000 0.34080  0.37040  0.49540  Biso   1.000  C
  C198     1.0000 0.65920  0.62960  0.99540  Biso   1.000  C
  C199     1.0000 0.34080  0.12960  0.50460  Biso   1.000  C
  C200     1.0000 0.65920  0.87040  0.00460  Biso   1.000  C
  H145     1.0000 0.67730  0.61920  0.53200  Biso   1.000  H
  H146     1.0000 0.32270  0.38080  0.03200  Biso   1.000  H
  H147     1.0000 0.67730  0.88080  0.46800  Biso   1.000  H
  H148     1.0000 0.32270  0.11920  0.96800  Biso   1.000  H
  H149     1.0000 0.32270  0.38080  0.46800  Biso   1.000  H
  H150     1.0000 0.67730  0.61920  0.96800  Biso   1.000  H
  H151     1.0000 0.32270  0.11920  0.53200  Biso   1.000  H
  H152     1.0000 0.67730  0.88080  0.03200  Biso   1.000  H
  C201     1.0000 0.61040  0.62300  0.50550  Biso   1.000  C
  C202     1.0000 0.38960  0.37700  0.00550  Biso   1.000  C
  C203     1.0000 0.61040  0.87700  0.49450  Biso   1.000  C
  C204     1.0000 0.38960  0.12300  0.99450  Biso   1.000  C
  C205     1.0000 0.38960  0.37700  0.49450  Biso   1.000  C
  C206     1.0000 0.61040  0.62300  0.99450  Biso   1.000  C
  C207     1.0000 0.38960  0.12300  0.50550  Biso   1.000  C
  C208     1.0000 0.61040  0.87700  0.00550  Biso   1.000  C
  H153     1.0000 0.59480  0.61030  0.53400  Biso   1.000  H
  H154     1.0000 0.40520  0.38970  0.03400  Biso   1.000  H
  H155     1.0000 0.59480  0.88970  0.46600  Biso   1.000  H
  H156     1.0000 0.40520  0.11030  0.96600  Biso   1.000  H
  H157     1.0000 0.40520  0.38970  0.46600  Biso   1.000  H
  H158     1.0000 0.59480  0.61030  0.96600  Biso   1.000  H
  H159     1.0000 0.40520  0.11030  0.53400  Biso   1.000  H
  H160     1.0000 0.59480  0.88970  0.03400  Biso   1.000  H
  C209     1.0000 0.73520  0.66360  0.46340  Biso   1.000  C
  C210     1.0000 0.26480  0.33640  0.96340  Biso   1.000  C
  C211     1.0000 0.73520  0.83640  0.53660  Biso   1.000  C
  C212     1.0000 0.26480  0.16360  0.03660  Biso   1.000  C
  C213     1.0000 0.26480  0.33640  0.53660  Biso   1.000  C
  C214     1.0000 0.73520  0.66360  0.03660  Biso   1.000  C
  C215     1.0000 0.26480  0.16360  0.46340  Biso   1.000  C
  C216     1.0000 0.73520  0.83640  0.96340  Biso   1.000  C
  C217     1.0000 0.24720  0.79330  0.68560  Biso   1.000  C
  C218     1.0000 0.75280  0.20670  0.18560  Biso   1.000  C
  C219     1.0000 0.24720  0.70670  0.31440  Biso   1.000  C
  C220     1.0000 0.75280  0.29330  0.81440  Biso   1.000  C
  C221     1.0000 0.75280  0.20670  0.31440  Biso   1.000  C
  C222     1.0000 0.24720  0.79330  0.81440  Biso   1.000  C
  C223     1.0000 0.75280  0.29330  0.68560  Biso   1.000  C
  C224     1.0000 0.24720  0.70670  0.18560  Biso   1.000  C
  C225     1.0000 0.21830  0.81930  0.64340  Biso   1.000  C
  C226     1.0000 0.78170  0.18070  0.14340  Biso   1.000  C
  C227     1.0000 0.21830  0.68070  0.35660  Biso   1.000  C
  C228     1.0000 0.78170  0.31930  0.85660  Biso   1.000  C
  C229     1.0000 0.78170  0.18070  0.35660  Biso   1.000  C
  C230     1.0000 0.21830  0.81930  0.85660  Biso   1.000  C
  C231     1.0000 0.78170  0.31930  0.64340  Biso   1.000  C
  C232     1.0000 0.21830  0.68070  0.14340  Biso   1.000  C
  C233     1.0000 0.18640  0.75920  0.62400  Biso   1.000  C
  C234     1.0000 0.81360  0.24080  0.12400  Biso   1.000  C
  C235     1.0000 0.18640  0.74080  0.37600  Biso   1.000  C
  C236     1.0000 0.81360  0.25920  0.87600  Biso   1.000  C
  C237     1.0000 0.81360  0.24080  0.37600  Biso   1.000  C
  C238     1.0000 0.18640  0.75920  0.87600  Biso   1.000  C
  C239     1.0000 0.81360  0.25920  0.62400  Biso   1.000  C
  C240     1.0000 0.18640  0.74080  0.12400  Biso   1.000  C
  H161     1.0000 0.18130  0.70230  0.63820  Biso   1.000  H
  H162     1.0000 0.81870  0.29770  0.13820  Biso   1.000  H
  H163     1.0000 0.18130  0.79770  0.36180  Biso   1.000  H
  H164     1.0000 0.81870  0.20230  0.86180  Biso   1.000  H
  H165     1.0000 0.81870  0.29770  0.36180  Biso   1.000  H
  H166     1.0000 0.18130  0.70230  0.86180  Biso   1.000  H
  H167     1.0000 0.81870  0.20230  0.63820  Biso   1.000  H
  H168     1.0000 0.18130  0.79770  0.13820  Biso   1.000  H
  C241     1.0000 0.16170  0.78150  0.58380  Biso   1.000  C
  C242     1.0000 0.83830  0.21850  0.08380  Biso   1.000  C
  C243     1.0000 0.16170  0.71850  0.41620  Biso   1.000  C
  C244     1.0000 0.83830  0.28150  0.91620  Biso   1.000  C
  C245     1.0000 0.83830  0.21850  0.41620  Biso   1.000  C
  C246     1.0000 0.16170  0.78150  0.91620  Biso   1.000  C
  C247     1.0000 0.83830  0.28150  0.58380  Biso   1.000  C
  C248     1.0000 0.16170  0.71850  0.08380  Biso   1.000  C
  H169     1.0000 0.13950  0.74020  0.57090  Biso   1.000  H
  H170     1.0000 0.86050  0.25980  0.07090  Biso   1.000  H
  H171     1.0000 0.13950  0.75980  0.42910  Biso   1.000  H
  H172     1.0000 0.86050  0.24020  0.92910  Biso   1.000  H
  H173     1.0000 0.86050  0.25980  0.42910  Biso   1.000  H
  H174     1.0000 0.13950  0.74020  0.92910  Biso   1.000  H
  H175     1.0000 0.86050  0.24020  0.57090  Biso   1.000  H
  H176     1.0000 0.13950  0.75980  0.07090  Biso   1.000  H
  C249     1.0000 0.16930  0.86400  0.56230  Biso   1.000  C
  C250     1.0000 0.83070  0.13600  0.06230  Biso   1.000  C
  C251     1.0000 0.16930  0.63600  0.43770  Biso   1.000  C
  C252     1.0000 0.83070  0.36400  0.93770  Biso   1.000  C
  C253     1.0000 0.83070  0.13600  0.43770  Biso   1.000  C
  C254     1.0000 0.16930  0.86400  0.93770  Biso   1.000  C
  C255     1.0000 0.83070  0.36400  0.56230  Biso   1.000  C
  C256     1.0000 0.16930  0.63600  0.06230  Biso   1.000  C
  C257     1.0000 0.20170  0.92500  0.58220  Biso   1.000  C
  C258     1.0000 0.79830  0.07500  0.08220  Biso   1.000  C
  C259     1.0000 0.20170  0.57500  0.41780  Biso   1.000  C
  C260     1.0000 0.79830  0.42500  0.91780  Biso   1.000  C
  C261     1.0000 0.79830  0.07500  0.41780  Biso   1.000  C
  C262     1.0000 0.20170  0.92500  0.91780  Biso   1.000  C
  C263     1.0000 0.79830  0.42500  0.58220  Biso   1.000  C
  C264     1.0000 0.20170  0.57500  0.08220  Biso   1.000  C
  H177     1.0000 0.20700  0.98180  0.56790  Biso   1.000  H
  H178     1.0000 0.79300  0.01820  0.06790  Biso   1.000  H
  H179     1.0000 0.20700  0.51820  0.43210  Biso   1.000  H
  H180     1.0000 0.79300  0.48180  0.93210  Biso   1.000  H
  H181     1.0000 0.79300  0.01820  0.43210  Biso   1.000  H
  H182     1.0000 0.20700  0.98180  0.93210  Biso   1.000  H
  H183     1.0000 0.79300  0.48180  0.56790  Biso   1.000  H
  H184     1.0000 0.20700  0.51820  0.06790  Biso   1.000  H
  C265     1.0000 0.22570  0.90250  0.62230  Biso   1.000  C
  C266     1.0000 0.77430  0.09750  0.12230  Biso   1.000  C
  C267     1.0000 0.22570  0.59750  0.37770  Biso   1.000  C
  C268     1.0000 0.77430  0.40250  0.87770  Biso   1.000  C
  C269     1.0000 0.77430  0.09750  0.37770  Biso   1.000  C
  C270     1.0000 0.22570  0.90250  0.87770  Biso   1.000  C
  C271     1.0000 0.77430  0.40250  0.62230  Biso   1.000  C
  C272     1.0000 0.22570  0.59750  0.12230  Biso   1.000  C
  H185     1.0000 0.24740  0.94400  0.63570  Biso   1.000  H
  H186     1.0000 0.75260  0.05600  0.13570  Biso   1.000  H
  H187     1.0000 0.24740  0.55600  0.36430  Biso   1.000  H
  H188     1.0000 0.75260  0.44400  0.86430  Biso   1.000  H
  H189     1.0000 0.75260  0.05600  0.36430  Biso   1.000  H
  H190     1.0000 0.24740  0.94400  0.86430  Biso   1.000  H
  H191     1.0000 0.75260  0.44400  0.63570  Biso   1.000  H
  H192     1.0000 0.24740  0.55600  0.13570  Biso   1.000  H
  C273     1.0000 0.14460  0.88690  0.51820  Biso   1.000  C
  C274     1.0000 0.85540  0.11310  0.01820  Biso   1.000  C
  C275     1.0000 0.14460  0.61310  0.48180  Biso   1.000  C
  C276     1.0000 0.85540  0.38690  0.98180  Biso   1.000  C
  C277     1.0000 0.85540  0.11310  0.48180  Biso   1.000  C
  C278     1.0000 0.14460  0.88690  0.98180  Biso   1.000  C
  C279     1.0000 0.85540  0.38690  0.51820  Biso   1.000  C
  C280     1.0000 0.14460  0.61310  0.01820  Biso   1.000  C
  C281     1.0000 0.09710  0.86690  0.51150  Biso   1.000  C
  C282     1.0000 0.90290  0.13310  0.01150  Biso   1.000  C
  C283     1.0000 0.09710  0.63310  0.48850  Biso   1.000  C
  C284     1.0000 0.90290  0.36690  0.98850  Biso   1.000  C
  C285     1.0000 0.90290  0.13310  0.48850  Biso   1.000  C
  C286     1.0000 0.09710  0.86690  0.98850  Biso   1.000  C
  C287     1.0000 0.90290  0.36690  0.51150  Biso   1.000  C
  C288     1.0000 0.09710  0.63310  0.01150  Biso   1.000  C
  H193     1.0000 0.08010  0.83590  0.53510  Biso   1.000  H
  H194     1.0000 0.91990  0.16410  0.03510  Biso   1.000  H
  H195     1.0000 0.08010  0.66410  0.46490  Biso   1.000  H
  H196     1.0000 0.91990  0.33590  0.96490  Biso   1.000  H
  H197     1.0000 0.91990  0.16410  0.46490  Biso   1.000  H
  H198     1.0000 0.08010  0.83590  0.96490  Biso   1.000  H
  H199     1.0000 0.91990  0.33590  0.53510  Biso   1.000  H
  H200     1.0000 0.08010  0.66410  0.03510  Biso   1.000  H
  C289     1.0000 0.07320  0.89140  0.47040  Biso   1.000  C
  C290     1.0000 0.92680  0.10860  0.97040  Biso   1.000  C
  C291     1.0000 0.07320  0.60860  0.52960  Biso   1.000  C
  C292     1.0000 0.92680  0.39140  0.02960  Biso   1.000  C
  C293     1.0000 0.92680  0.10860  0.52960  Biso   1.000  C
  C294     1.0000 0.07320  0.89140  0.02960  Biso   1.000  C
  C295     1.0000 0.92680  0.39140  0.47040  Biso   1.000  C
  C296     1.0000 0.07320  0.60860  0.97040  Biso   1.000  C
  C297     1.0000 0.09840  0.93550  0.43560  Biso   1.000  C
  C298     1.0000 0.90160  0.06450  0.93560  Biso   1.000  C
  C299     1.0000 0.09840  0.56450  0.56440  Biso   1.000  C
  C300     1.0000 0.90160  0.43550  0.06440  Biso   1.000  C
  C301     1.0000 0.90160  0.06450  0.56440  Biso   1.000  C
  C302     1.0000 0.09840  0.93550  0.06440  Biso   1.000  C
  C303     1.0000 0.90160  0.43550  0.43560  Biso   1.000  C
  C304     1.0000 0.09840  0.56450  0.93560  Biso   1.000  C
  H201     1.0000 0.08260  0.95220  0.40770  Biso   1.000  H
  H202     1.0000 0.91740  0.04780  0.90770  Biso   1.000  H
  H203     1.0000 0.08260  0.54780  0.59230  Biso   1.000  H
  H204     1.0000 0.91740  0.45220  0.09230  Biso   1.000  H
  H205     1.0000 0.91740  0.04780  0.59230  Biso   1.000  H
  H206     1.0000 0.08260  0.95220  0.09230  Biso   1.000  H
  H207     1.0000 0.91740  0.45220  0.40770  Biso   1.000  H
  H208     1.0000 0.08260  0.54780  0.90770  Biso   1.000  H
  C305     1.0000 0.14710  0.95560  0.44140  Biso   1.000  C
  C306     1.0000 0.85290  0.04440  0.94140  Biso   1.000  C
  C307     1.0000 0.14710  0.54440  0.55860  Biso   1.000  C
  C308     1.0000 0.85290  0.45560  0.05860  Biso   1.000  C
  C309     1.0000 0.85290  0.04440  0.55860  Biso   1.000  C
  C310     1.0000 0.14710  0.95560  0.05860  Biso   1.000  C
  C311     1.0000 0.85290  0.45560  0.44140  Biso   1.000  C
  C312     1.0000 0.14710  0.54440  0.94140  Biso   1.000  C
  C313     1.0000 0.16960  0.93130  0.48290  Biso   1.000  C
  C314     1.0000 0.83040  0.06870  0.98290  Biso   1.000  C
  C315     1.0000 0.16960  0.56870  0.51710  Biso   1.000  C
  C316     1.0000 0.83040  0.43130  0.01710  Biso   1.000  C
  C317     1.0000 0.83040  0.06870  0.51710  Biso   1.000  C
  C318     1.0000 0.16960  0.93130  0.01710  Biso   1.000  C
  C319     1.0000 0.83040  0.43130  0.48290  Biso   1.000  C
  C320     1.0000 0.16960  0.56870  0.98290  Biso   1.000  C
  H209     1.0000 0.20230  0.94510  0.48720  Biso   1.000  H
  H210     1.0000 0.79770  0.05490  0.98720  Biso   1.000  H
  H211     1.0000 0.20230  0.55490  0.51280  Biso   1.000  H
  H212     1.0000 0.79770  0.44510  0.01280  Biso   1.000  H
  H213     1.0000 0.79770  0.05490  0.51280  Biso   1.000  H
  H214     1.0000 0.20230  0.94510  0.01280  Biso   1.000  H
  H215     1.0000 0.79770  0.44510  0.48720  Biso   1.000  H
  H216     1.0000 0.20230  0.55490  0.98720  Biso   1.000  H
  C321     1.0000 0.02160  0.87370  0.46490  Biso   1.000  C
  C322     1.0000 0.97840  0.12630  0.96490  Biso   1.000  C
  C323     1.0000 0.02160  0.62630  0.53510  Biso   1.000  C
  C324     1.0000 0.97840  0.37370  0.03510  Biso   1.000  C
  C325     1.0000 0.97840  0.12630  0.53510  Biso   1.000  C
  C326     1.0000 0.02160  0.87370  0.03510  Biso   1.000  C
  C327     1.0000 0.97840  0.37370  0.46490  Biso   1.000  C
  C328     1.0000 0.02160  0.62630  0.96490  Biso   1.000  C
  C329     1.0000 0.99120  0.88330  0.50320  Biso   1.000  C
  C330     1.0000 0.00880  0.11670  0.00320  Biso   1.000  C
  C331     1.0000 0.99120  0.61670  0.49680  Biso   1.000  C
  C332     1.0000 0.00880  0.38330  0.99680  Biso   1.000  C
  C333     1.0000 0.00880  0.11670  0.49680  Biso   1.000  C
  C334     1.0000 0.99120  0.88330  0.99680  Biso   1.000  C
  C335     1.0000 0.00880  0.38330  0.50320  Biso   1.000  C
  C336     1.0000 0.99120  0.61670  0.00320  Biso   1.000  C
  H217     1.0000 0.00390  0.89790  0.53280  Biso   1.000  H
  H218     1.0000 0.99610  0.10210  0.03280  Biso   1.000  H
  H219     1.0000 0.00390  0.60210  0.46720  Biso   1.000  H
  H220     1.0000 0.99610  0.39790  0.96720  Biso   1.000  H
  H221     1.0000 0.99610  0.10210  0.46720  Biso   1.000  H
  H222     1.0000 0.00390  0.89790  0.96720  Biso   1.000  H
  H223     1.0000 0.99610  0.39790  0.53280  Biso   1.000  H
  H224     1.0000 0.00390  0.60210  0.03280  Biso   1.000  H
  C337     1.0000 0.94280  0.87140  0.49760  Biso   1.000  C
  C338     1.0000 0.05720  0.12860  0.99760  Biso   1.000  C
  C339     1.0000 0.94280  0.62860  0.50240  Biso   1.000  C
  C340     1.0000 0.05720  0.37140  0.00240  Biso   1.000  C
  C341     1.0000 0.05720  0.12860  0.50240  Biso   1.000  C
  C342     1.0000 0.94280  0.87140  0.00240  Biso   1.000  C
  C343     1.0000 0.05720  0.37140  0.49760  Biso   1.000  C
  C344     1.0000 0.94280  0.62860  0.99760  Biso   1.000  C
  H225     1.0000 0.92240  0.87850  0.52370  Biso   1.000  H
  H226     1.0000 0.07760  0.12150  0.02370  Biso   1.000  H
  H227     1.0000 0.92240  0.62150  0.47630  Biso   1.000  H
  H228     1.0000 0.07760  0.37850  0.97630  Biso   1.000  H
  H229     1.0000 0.07760  0.12150  0.47630  Biso   1.000  H
  H230     1.0000 0.92240  0.87850  0.97630  Biso   1.000  H
  H231     1.0000 0.07760  0.37850  0.52370  Biso   1.000  H
  H232     1.0000 0.92240  0.62150  0.02370  Biso   1.000  H
  C345     1.0000 0.92330  0.84900  0.45500  Biso   1.000  C
  C346     1.0000 0.07670  0.15100  0.95500  Biso   1.000  C
  C347     1.0000 0.92330  0.65100  0.54500  Biso   1.000  C
  C348     1.0000 0.07670  0.34900  0.04500  Biso   1.000  C
  C349     1.0000 0.07670  0.15100  0.54500  Biso   1.000  C
  C350     1.0000 0.92330  0.84900  0.04500  Biso   1.000  C
  C351     1.0000 0.07670  0.34900  0.45500  Biso   1.000  C
  C352     1.0000 0.92330  0.65100  0.95500  Biso   1.000  C
  C353     1.0000 0.95360  0.83600  0.41760  Biso   1.000  C
  C354     1.0000 0.04640  0.16400  0.91760  Biso   1.000  C
  C355     1.0000 0.95360  0.66400  0.58240  Biso   1.000  C
  C356     1.0000 0.04640  0.33600  0.08240  Biso   1.000  C
  C357     1.0000 0.04640  0.16400  0.58240  Biso   1.000  C
  C358     1.0000 0.95360  0.83600  0.08240  Biso   1.000  C
  C359     1.0000 0.04640  0.33600  0.41760  Biso   1.000  C
  C360     1.0000 0.95360  0.66400  0.91760  Biso   1.000  C
  H233     1.0000 0.94110  0.82020  0.38800  Biso   1.000  H
  H234     1.0000 0.05890  0.17980  0.88800  Biso   1.000  H
  H235     1.0000 0.94110  0.67980  0.61200  Biso   1.000  H
  H236     1.0000 0.05890  0.32020  0.11200  Biso   1.000  H
  H237     1.0000 0.05890  0.17980  0.61200  Biso   1.000  H
  H238     1.0000 0.94110  0.82020  0.11200  Biso   1.000  H
  H239     1.0000 0.05890  0.32020  0.38800  Biso   1.000  H
  H240     1.0000 0.94110  0.67980  0.88800  Biso   1.000  H
  C361     1.0000 0.00180  0.84680  0.42360  Biso   1.000  C
  C362     1.0000 0.99820  0.15320  0.92360  Biso   1.000  C
  C363     1.0000 0.00180  0.65320  0.57640  Biso   1.000  C
  C364     1.0000 0.99820  0.34680  0.07640  Biso   1.000  C
  C365     1.0000 0.99820  0.15320  0.57640  Biso   1.000  C
  C366     1.0000 0.00180  0.84680  0.07640  Biso   1.000  C
  C367     1.0000 0.99820  0.34680  0.42360  Biso   1.000  C
  C368     1.0000 0.00180  0.65320  0.92360  Biso   1.000  C
  H241     1.0000 0.02230  0.83490  0.39810  Biso   1.000  H
  H242     1.0000 0.97770  0.16510  0.89810  Biso   1.000  H
  H243     1.0000 0.02230  0.66510  0.60190  Biso   1.000  H
  H244     1.0000 0.97770  0.33490  0.10190  Biso   1.000  H
  H245     1.0000 0.97770  0.16510  0.60190  Biso   1.000  H
  H246     1.0000 0.02230  0.83490  0.10190  Biso   1.000  H
  H247     1.0000 0.97770  0.33490  0.39810  Biso   1.000  H
  H248     1.0000 0.02230  0.66510  0.89810  Biso   1.000  H
  C369     1.0000 0.87130  0.84200  0.45120  Biso   1.000  C
  C370     1.0000 0.12870  0.15800  0.95120  Biso   1.000  C
  C371     1.0000 0.87130  0.65800  0.54880  Biso   1.000  C
  C372     1.0000 0.12870  0.34200  0.04880  Biso   1.000  C
  C373     1.0000 0.12870  0.15800  0.54880  Biso   1.000  C
  C374     1.0000 0.87130  0.84200  0.04880  Biso   1.000  C
  C375     1.0000 0.12870  0.34200  0.45120  Biso   1.000  C
  C376     1.0000 0.87130  0.65800  0.95120  Biso   1.000  C
  C377     1.0000 0.25660  0.16130  0.31010  Biso   1.000  C
  C378     1.0000 0.74340  0.83870  0.81010  Biso   1.000  C
  C379     1.0000 0.25660  0.33870  0.68990  Biso   1.000  C
  C380     1.0000 0.74340  0.66130  0.18990  Biso   1.000  C
  C381     1.0000 0.74340  0.83870  0.68990  Biso   1.000  C
  C382     1.0000 0.25660  0.16130  0.18990  Biso   1.000  C
  C383     1.0000 0.74340  0.66130  0.31010  Biso   1.000  C
  C384     1.0000 0.25660  0.33870  0.81010  Biso   1.000  C
  C385     1.0000 0.22720  0.10710  0.34250  Biso   1.000  C
  C386     1.0000 0.77280  0.89290  0.84250  Biso   1.000  C
  C387     1.0000 0.22720  0.39290  0.65750  Biso   1.000  C
  C388     1.0000 0.77280  0.60710  0.15750  Biso   1.000  C
  C389     1.0000 0.77280  0.89290  0.65750  Biso   1.000  C
  C390     1.0000 0.22720  0.10710  0.15750  Biso   1.000  C
  C391     1.0000 0.77280  0.60710  0.34250  Biso   1.000  C
  C392     1.0000 0.22720  0.39290  0.84250  Biso   1.000  C
  C393     1.0000 0.24710  0.03090  0.36330  Biso   1.000  C
  C394     1.0000 0.75290  0.96910  0.86330  Biso   1.000  C
  C395     1.0000 0.24710  0.46910  0.63670  Biso   1.000  C
  C396     1.0000 0.75290  0.53090  0.13670  Biso   1.000  C
  C397     1.0000 0.75290  0.96910  0.63670  Biso   1.000  C
  C398     1.0000 0.24710  0.03090  0.13670  Biso   1.000  C
  C399     1.0000 0.75290  0.53090  0.36330  Biso   1.000  C
  C400     1.0000 0.24710  0.46910  0.86330  Biso   1.000  C
  H249     1.0000 0.27860  0.01300  0.35570  Biso   1.000  H
  H250     1.0000 0.72140  0.98700  0.85570  Biso   1.000  H
  H251     1.0000 0.27860  0.48700  0.64430  Biso   1.000  H
  H252     1.0000 0.72140  0.51300  0.14430  Biso   1.000  H
  H253     1.0000 0.72140  0.98700  0.64430  Biso   1.000  H
  H254     1.0000 0.27860  0.01300  0.14430  Biso   1.000  H
  H255     1.0000 0.72140  0.51300  0.35570  Biso   1.000  H
  H256     1.0000 0.27860  0.48700  0.85570  Biso   1.000  H
  C401     1.0000 0.22080  0.98160  0.39480  Biso   1.000  C
  C402     1.0000 0.77920  0.01840  0.89480  Biso   1.000  C
  C403     1.0000 0.22080  0.51840  0.60520  Biso   1.000  C
  C404     1.0000 0.77920  0.48160  0.10520  Biso   1.000  C
  C405     1.0000 0.77920  0.01840  0.60520  Biso   1.000  C
  C406     1.0000 0.22080  0.98160  0.10520  Biso   1.000  C
  C407     1.0000 0.77920  0.48160  0.39480  Biso   1.000  C
  C408     1.0000 0.22080  0.51840  0.89480  Biso   1.000  C
  H257     1.0000 0.23470  0.93040  0.40920  Biso   1.000  H
  H258     1.0000 0.76530  0.06960  0.90920  Biso   1.000  H
  H259     1.0000 0.23470  0.56960  0.59080  Biso   1.000  H
  H260     1.0000 0.76530  0.43040  0.09080  Biso   1.000  H
  H261     1.0000 0.76530  0.06960  0.59080  Biso   1.000  H
  H262     1.0000 0.23470  0.93040  0.09080  Biso   1.000  H
  H263     1.0000 0.76530  0.43040  0.40920  Biso   1.000  H
  H264     1.0000 0.23470  0.56960  0.90920  Biso   1.000  H
  C409     1.0000 0.17420  0.00560  0.40600  Biso   1.000  C
  C410     1.0000 0.82580  0.99440  0.90600  Biso   1.000  C
  C411     1.0000 0.17420  0.49440  0.59400  Biso   1.000  C
  C412     1.0000 0.82580  0.50560  0.09400  Biso   1.000  C
  C413     1.0000 0.82580  0.99440  0.59400  Biso   1.000  C
  C414     1.0000 0.17420  0.00560  0.09400  Biso   1.000  C
  C415     1.0000 0.82580  0.50560  0.40600  Biso   1.000  C
  C416     1.0000 0.17420  0.49440  0.90600  Biso   1.000  C
  C417     1.0000 0.15480  0.08040  0.38400  Biso   1.000  C
  C418     1.0000 0.84520  0.91960  0.88400  Biso   1.000  C
  C419     1.0000 0.15480  0.41960  0.61600  Biso   1.000  C
  C420     1.0000 0.84520  0.58040  0.11600  Biso   1.000  C
  C421     1.0000 0.84520  0.91960  0.61600  Biso   1.000  C
  C422     1.0000 0.15480  0.08040  0.11600  Biso   1.000  C
  C423     1.0000 0.84520  0.58040  0.38400  Biso   1.000  C
  C424     1.0000 0.15480  0.41960  0.88400  Biso   1.000  C
  H265     1.0000 0.12280  0.09740  0.39040  Biso   1.000  H
  H266     1.0000 0.87720  0.90260  0.89040  Biso   1.000  H
  H267     1.0000 0.12280  0.40260  0.60960  Biso   1.000  H
  H268     1.0000 0.87720  0.59740  0.10960  Biso   1.000  H
  H269     1.0000 0.87720  0.90260  0.60960  Biso   1.000  H
  H270     1.0000 0.12280  0.09740  0.10960  Biso   1.000  H
  H271     1.0000 0.87720  0.59740  0.39040  Biso   1.000  H
  H272     1.0000 0.12280  0.40260  0.89040  Biso   1.000  H
  C425     1.0000 0.18130  0.13040  0.35280  Biso   1.000  C
  C426     1.0000 0.81870  0.86960  0.85280  Biso   1.000  C
  C427     1.0000 0.18130  0.36960  0.64720  Biso   1.000  C
  C428     1.0000 0.81870  0.63040  0.14720  Biso   1.000  C
  C429     1.0000 0.81870  0.86960  0.64720  Biso   1.000  C
  C430     1.0000 0.18130  0.13040  0.14720  Biso   1.000  C
  C431     1.0000 0.81870  0.63040  0.35280  Biso   1.000  C
  C432     1.0000 0.18130  0.36960  0.85280  Biso   1.000  C
  H273     1.0000 0.16740  0.18160  0.33840  Biso   1.000  H
  H274     1.0000 0.83260  0.81840  0.83840  Biso   1.000  H
  H275     1.0000 0.16740  0.31840  0.66160  Biso   1.000  H
  H276     1.0000 0.83260  0.68160  0.16160  Biso   1.000  H
  H277     1.0000 0.83260  0.81840  0.66160  Biso   1.000  H
  H278     1.0000 0.16740  0.18160  0.16160  Biso   1.000  H
  H279     1.0000 0.83260  0.68160  0.33840  Biso   1.000  H
  H280     1.0000 0.16740  0.31840  0.83840  Biso   1.000  H
  C433     1.0000 0.17900  0.47600  0.25000  Biso   1.000  C
  C434     1.0000 0.82100  0.52400  0.75000  Biso   1.000  C
  C435     1.0000 0.17900  0.02400  0.75000  Biso   1.000  C
  C436     1.0000 0.82100  0.97600  0.25000  Biso   1.000  C
  C437     1.0000 0.16900  0.57700  0.25000  Biso   1.000  C
  C438     1.0000 0.83100  0.42300  0.75000  Biso   1.000  C
  C439     1.0000 0.16900  0.92300  0.75000  Biso   1.000  C
  C440     1.0000 0.83100  0.07700  0.25000  Biso   1.000  C
  C441     1.0000 0.40200  0.02200  0.25000  Biso   1.000  C
  C442     1.0000 0.59800  0.97800  0.75000  Biso   1.000  C
  C443     1.0000 0.40200  0.47800  0.75000  Biso   1.000  C
  C444     1.0000 0.59800  0.52200  0.25000  Biso   1.000  C
  C445     1.0000 0.45260  0.04150  0.26700  Biso   1.000  C
  C446     1.0000 0.54740  0.95850  0.76700  Biso   1.000  C
  C447     1.0000 0.45260  0.45850  0.73300  Biso   1.000  C
  C448     1.0000 0.54740  0.54150  0.23300  Biso   1.000  C
  C449     1.0000 0.54740  0.95850  0.73300  Biso   1.000  C
  C450     1.0000 0.45260  0.04150  0.23300  Biso   1.000  C
  C451     1.0000 0.54740  0.54150  0.26700  Biso   1.000  C
  C452     1.0000 0.45260  0.45850  0.76700  Biso   1.000  C
  O157     1.0000 0.47530  0.31500  0.71480  Biso   1.000  O
  O158     1.0000 0.52470  0.68500  0.21480  Biso   1.000  O
  O159     1.0000 0.47530  0.18500  0.28520  Biso   1.000  O
  O160     1.0000 0.52470  0.81500  0.78520  Biso   1.000  O
  O161     1.0000 0.52470  0.68500  0.28520  Biso   1.000  O
  O162     1.0000 0.47530  0.31500  0.78520  Biso   1.000  O
  O163     1.0000 0.52470  0.81500  0.71480  Biso   1.000  O
  O164     1.0000 0.47530  0.18500  0.21480  Biso   1.000  O
  H281     1.0000 0.50060  0.34480  0.71440  Biso   1.000  H
  H282     1.0000 0.49940  0.65520  0.21440  Biso   1.000  H
  H283     1.0000 0.50060  0.15520  0.28560  Biso   1.000  H
  H284     1.0000 0.49940  0.84480  0.78560  Biso   1.000  H
  H285     1.0000 0.49940  0.65520  0.28560  Biso   1.000  H
  H286     1.0000 0.50060  0.34480  0.78560  Biso   1.000  H
  H287     1.0000 0.49940  0.84480  0.71440  Biso   1.000  H
  H288     1.0000 0.50060  0.15520  0.21440  Biso   1.000  H
  H289     1.0000 0.19850  0.57700  0.23160  Biso   1.000  H
  H290     1.0000 0.80150  0.42300  0.73160  Biso   1.000  H
  H291     1.0000 0.19850  0.92300  0.76840  Biso   1.000  H
  H292     1.0000 0.80150  0.07700  0.26840  Biso   1.000  H
  H293     1.0000 0.80150  0.42300  0.76840  Biso   1.000  H
  H294     1.0000 0.19850  0.57700  0.26840  Biso   1.000  H
  H295     1.0000 0.80150  0.07700  0.23160  Biso   1.000  H
  H296     1.0000 0.19850  0.92300  0.73160  Biso   1.000  H
  H297     1.0000 0.14020  0.57700  0.23160  Biso   1.000  H
  H298     1.0000 0.85980  0.42300  0.73160  Biso   1.000  H
  H299     1.0000 0.14020  0.92300  0.76840  Biso   1.000  H
  H300     1.0000 0.85980  0.07700  0.26840  Biso   1.000  H
  H301     1.0000 0.85980  0.42300  0.76840  Biso   1.000  H
  H302     1.0000 0.14020  0.57700  0.26840  Biso   1.000  H
  H303     1.0000 0.85980  0.07700  0.23160  Biso   1.000  H
  H304     1.0000 0.14020  0.92300  0.73160  Biso   1.000  H
  H305     1.0000 0.45350  0.07790  0.30190  Biso   1.000  H
  H306     1.0000 0.54650  0.92210  0.80190  Biso   1.000  H
  H307     1.0000 0.45350  0.42210  0.69810  Biso   1.000  H
  H308     1.0000 0.54650  0.57790  0.19810  Biso   1.000  H
  H309     1.0000 0.54650  0.92210  0.69810  Biso   1.000  H
  H310     1.0000 0.45350  0.07790  0.19810  Biso   1.000  H
  H311     1.0000 0.54650  0.57790  0.30190  Biso   1.000  H
  H312     1.0000 0.45350  0.42210  0.80190  Biso   1.000  H
  C453     1.0000 0.51760  0.18100  0.75000  Biso   1.000  C
  C454     1.0000 0.48240  0.81900  0.25000  Biso   1.000  C
  C455     1.0000 0.51760  0.31900  0.25000  Biso   1.000  C
  C456     1.0000 0.48240  0.68100  0.75000  Biso   1.000  C
  H313     1.0000 0.50950  0.13070  0.72950  Biso   1.000  H
  H314     1.0000 0.49050  0.86930  0.22950  Biso   1.000  H
  H315     1.0000 0.50950  0.36930  0.27050  Biso   1.000  H
  H316     1.0000 0.49050  0.63070  0.77050  Biso   1.000  H
  H317     1.0000 0.49050  0.86930  0.27050  Biso   1.000  H
  H318     1.0000 0.50950  0.13070  0.77050  Biso   1.000  H
  H319     1.0000 0.49050  0.63070  0.72950  Biso   1.000  H
  H320     1.0000 0.50950  0.36930  0.22950  Biso   1.000  H
  H321     1.0000 0.52260  0.15850  0.78160  Biso   1.000  H
  H322     1.0000 0.47740  0.84150  0.28160  Biso   1.000  H
  H323     1.0000 0.52260  0.34150  0.21840  Biso   1.000  H
  H324     1.0000 0.47740  0.65850  0.71840  Biso   1.000  H
  H325     1.0000 0.47740  0.84150  0.21840  Biso   1.000  H
  H326     1.0000 0.52260  0.15850  0.71840  Biso   1.000  H
  H327     1.0000 0.47740  0.65850  0.78160  Biso   1.000  H
  H328     1.0000 0.52260  0.34150  0.28160  Biso   1.000  H
  H329     1.0000 0.54680  0.21010  0.73890  Biso   1.000  H
  H330     1.0000 0.45320  0.78990  0.23890  Biso   1.000  H
  H331     1.0000 0.54680  0.28990  0.26110  Biso   1.000  H
  H332     1.0000 0.45320  0.71010  0.76110  Biso   1.000  H
  H333     1.0000 0.45320  0.78990  0.26110  Biso   1.000  H
  H334     1.0000 0.54680  0.21010  0.76110  Biso   1.000  H
  H335     1.0000 0.45320  0.71010  0.73890  Biso   1.000  H
  H336     1.0000 0.54680  0.28990  0.23890  Biso   1.000  H
  C457     1.0000 0.47850  0.24600  0.75000  Biso   1.000  C
  C458     1.0000 0.52150  0.75400  0.25000  Biso   1.000  C
  C459     1.0000 0.47850  0.25400  0.25000  Biso   1.000  C
  C460     1.0000 0.52150  0.74600  0.75000  Biso   1.000  C
  H337     1.0000 0.15850  0.48656  0.28160  Biso   1.000  H
  H338     1.0000 0.84150  0.51344  0.78160  Biso   1.000  H
  H339     1.0000 0.15850  0.01344  0.71840  Biso   1.000  H
  H340     1.0000 0.84150  0.98656  0.21840  Biso   1.000  H
  H341     1.0000 0.84150  0.51344  0.71840  Biso   1.000  H
  H342     1.0000 0.15850  0.48656  0.21840  Biso   1.000  H
  H343     1.0000 0.84150  0.98656  0.28160  Biso   1.000  H
  H344     1.0000 0.15850  0.01344  0.78160  Biso   1.000  H
