data_image0
_cell_length_a       14.7097
_cell_length_b       21.832
_cell_length_c       26.719
_cell_angle_alpha    90
_cell_angle_beta     90
_cell_angle_gamma    90

_symmetry_space_group_name_H-M    "P 1"
_symmetry_int_tables_number       1

loop_
  _symmetry_equiv_pos_as_xyz
  'x, y, z'

loop_
  _atom_site_label
  _atom_site_occupancy
  _atom_site_fract_x
  _atom_site_fract_y
  _atom_site_fract_z
  _atom_site_thermal_displace_type
  _atom_site_B_iso_or_equiv
  _atom_site_type_symbol
  N1       1.0000 0.07560  0.09588  0.55948  Biso   1.000  N
  N2       1.0000 0.42440  0.40412  0.55948  Biso   1.000  N
  N3       1.0000 0.57560  0.90412  0.94052  Biso   1.000  N
  N4       1.0000 0.92440  0.59588  0.94052  Biso   1.000  N
  N5       1.0000 0.92440  0.90412  0.44052  Biso   1.000  N
  N6       1.0000 0.57560  0.59588  0.44052  Biso   1.000  N
  N7       1.0000 0.42440  0.09588  0.05948  Biso   1.000  N
  N8       1.0000 0.07560  0.40412  0.05948  Biso   1.000  N
  O1       1.0000 0.11380  0.06127  0.52676  Biso   1.000  O
  O2       1.0000 0.38620  0.43873  0.52676  Biso   1.000  O
  O3       1.0000 0.61380  0.93873  0.97324  Biso   1.000  O
  O4       1.0000 0.88620  0.56127  0.97324  Biso   1.000  O
  O5       1.0000 0.88620  0.93873  0.47324  Biso   1.000  O
  O6       1.0000 0.61380  0.56127  0.47324  Biso   1.000  O
  O7       1.0000 0.38620  0.06127  0.02676  Biso   1.000  O
  O8       1.0000 0.11380  0.43873  0.02676  Biso   1.000  O
  O9       1.0000 0.09160  0.15052  0.55982  Biso   1.000  O
  O10      1.0000 0.40840  0.34948  0.55982  Biso   1.000  O
  O11      1.0000 0.59160  0.84948  0.94018  Biso   1.000  O
  O12      1.0000 0.90840  0.65052  0.94018  Biso   1.000  O
  O13      1.0000 0.90840  0.84948  0.44018  Biso   1.000  O
  O14      1.0000 0.59160  0.65052  0.44018  Biso   1.000  O
  O15      1.0000 0.40840  0.15052  0.05982  Biso   1.000  O
  O16      1.0000 0.09160  0.34948  0.05982  Biso   1.000  O
  O17      1.0000 0.02630  0.07114  0.59135  Biso   1.000  O
  O18      1.0000 0.47370  0.42886  0.59135  Biso   1.000  O
  O19      1.0000 0.52630  0.92886  0.90865  Biso   1.000  O
  O20      1.0000 0.97370  0.57114  0.90865  Biso   1.000  O
  O21      1.0000 0.97370  0.92886  0.40865  Biso   1.000  O
  O22      1.0000 0.52630  0.57114  0.40865  Biso   1.000  O
  O23      1.0000 0.47370  0.07114  0.09135  Biso   1.000  O
  O24      1.0000 0.02630  0.42886  0.09135  Biso   1.000  O
  N9       1.0000 0.42610  0.91076  0.57151  Biso   1.000  N
  N10      1.0000 0.07390  0.58924  0.57151  Biso   1.000  N
  N11      1.0000 0.92610  0.08924  0.92849  Biso   1.000  N
  N12      1.0000 0.57390  0.41076  0.92849  Biso   1.000  N
  N13      1.0000 0.57390  0.08924  0.42849  Biso   1.000  N
  N14      1.0000 0.92610  0.41076  0.42849  Biso   1.000  N
  N15      1.0000 0.07390  0.91076  0.07151  Biso   1.000  N
  N16      1.0000 0.42610  0.58924  0.07151  Biso   1.000  N
  O25      1.0000 0.38670  0.93799  0.53579  Biso   1.000  O
  O26      1.0000 0.11330  0.56201  0.53579  Biso   1.000  O
  O27      1.0000 0.88670  0.06201  0.96421  Biso   1.000  O
  O28      1.0000 0.61330  0.43799  0.96421  Biso   1.000  O
  O29      1.0000 0.61330  0.06201  0.46421  Biso   1.000  O
  O30      1.0000 0.88670  0.43799  0.46421  Biso   1.000  O
  O31      1.0000 0.11330  0.93799  0.03579  Biso   1.000  O
  O32      1.0000 0.38670  0.56201  0.03579  Biso   1.000  O
  O33      1.0000 0.48240  0.94040  0.59763  Biso   1.000  O
  O34      1.0000 0.01760  0.55960  0.59763  Biso   1.000  O
  O35      1.0000 0.98240  0.05960  0.90237  Biso   1.000  O
  O36      1.0000 0.51760  0.44040  0.90237  Biso   1.000  O
  O37      1.0000 0.51760  0.05960  0.40237  Biso   1.000  O
  O38      1.0000 0.98240  0.44040  0.40237  Biso   1.000  O
  O39      1.0000 0.01760  0.94040  0.09763  Biso   1.000  O
  O40      1.0000 0.48240  0.55960  0.09763  Biso   1.000  O
  O41      1.0000 0.40930  0.85672  0.58121  Biso   1.000  O
  O42      1.0000 0.09070  0.64328  0.58121  Biso   1.000  O
  O43      1.0000 0.90930  0.14328  0.91879  Biso   1.000  O
  O44      1.0000 0.59070  0.35672  0.91879  Biso   1.000  O
  O45      1.0000 0.59070  0.14328  0.41879  Biso   1.000  O
  O46      1.0000 0.90930  0.35672  0.41879  Biso   1.000  O
  O47      1.0000 0.09070  0.85672  0.08121  Biso   1.000  O
  O48      1.0000 0.40930  0.64328  0.08121  Biso   1.000  O
  N17      1.0000 0.32530  0.07688  0.53315  Biso   1.000  N
  N18      1.0000 0.17470  0.42312  0.53315  Biso   1.000  N
  N19      1.0000 0.82530  0.92312  0.96685  Biso   1.000  N
  N20      1.0000 0.67470  0.57688  0.96685  Biso   1.000  N
  N21      1.0000 0.67470  0.92312  0.46685  Biso   1.000  N
  N22      1.0000 0.82530  0.57688  0.46685  Biso   1.000  N
  N23      1.0000 0.17470  0.07688  0.03315  Biso   1.000  N
  N24      1.0000 0.32530  0.42312  0.03315  Biso   1.000  N
  N25      1.0000 0.66870  0.42411  0.45864  Biso   1.000  N
  N26      1.0000 0.83130  0.07589  0.45864  Biso   1.000  N
  N27      1.0000 0.16870  0.57589  0.04136  Biso   1.000  N
  N28      1.0000 0.33130  0.92411  0.04136  Biso   1.000  N
  N29      1.0000 0.33130  0.57589  0.54136  Biso   1.000  N
  N30      1.0000 0.16870  0.92411  0.54136  Biso   1.000  N
  N31      1.0000 0.83130  0.42411  0.95864  Biso   1.000  N
  N32      1.0000 0.66870  0.07589  0.95864  Biso   1.000  N
  C1       1.0000 0.29820  0.12510  0.50591  Biso   1.000  C
  C2       1.0000 0.20180  0.37490  0.50591  Biso   1.000  C
  C3       1.0000 0.79820  0.87490  0.99409  Biso   1.000  C
  C4       1.0000 0.70180  0.62510  0.99409  Biso   1.000  C
  C5       1.0000 0.70180  0.87490  0.49409  Biso   1.000  C
  C6       1.0000 0.79820  0.62510  0.49409  Biso   1.000  C
  C7       1.0000 0.20180  0.12510  0.00591  Biso   1.000  C
  C8       1.0000 0.29820  0.37490  0.00591  Biso   1.000  C
  C9       1.0000 0.35430  0.17640  0.49920  Biso   1.000  C
  C10      1.0000 0.14570  0.32360  0.49920  Biso   1.000  C
  C11      1.0000 0.85430  0.82360  0.00080  Biso   1.000  C
  C12      1.0000 0.64570  0.67640  0.00080  Biso   1.000  C
  C13      1.0000 0.64570  0.82360  0.50080  Biso   1.000  C
  C14      1.0000 0.85430  0.67640  0.50080  Biso   1.000  C
  C15      1.0000 0.14570  0.17640  0.99920  Biso   1.000  C
  C16      1.0000 0.35430  0.32360  0.99920  Biso   1.000  C
  C17      1.0000 0.44150  0.17640  0.51875  Biso   1.000  C
  C18      1.0000 0.05850  0.32360  0.51875  Biso   1.000  C
  C19      1.0000 0.94150  0.82360  0.98125  Biso   1.000  C
  C20      1.0000 0.55850  0.67640  0.98125  Biso   1.000  C
  C21      1.0000 0.55850  0.82360  0.48125  Biso   1.000  C
  C22      1.0000 0.94150  0.67640  0.48125  Biso   1.000  C
  C23      1.0000 0.05850  0.17640  0.01875  Biso   1.000  C
  C24      1.0000 0.44150  0.32360  0.01875  Biso   1.000  C
  C25      1.0000 0.46950  0.12530  0.54565  Biso   1.000  C
  C26      1.0000 0.03050  0.37470  0.54565  Biso   1.000  C
  C27      1.0000 0.96950  0.87470  0.95435  Biso   1.000  C
  C28      1.0000 0.53050  0.62530  0.95435  Biso   1.000  C
  C29      1.0000 0.53050  0.87470  0.45435  Biso   1.000  C
  C30      1.0000 0.96950  0.62530  0.45435  Biso   1.000  C
  C31      1.0000 0.03050  0.12530  0.04565  Biso   1.000  C
  C32      1.0000 0.46950  0.37470  0.04565  Biso   1.000  C
  C33      1.0000 0.40860  0.07690  0.55186  Biso   1.000  C
  C34      1.0000 0.09140  0.42310  0.55186  Biso   1.000  C
  C35      1.0000 0.90860  0.92310  0.94814  Biso   1.000  C
  C36      1.0000 0.59140  0.57690  0.94814  Biso   1.000  C
  C37      1.0000 0.59140  0.92310  0.44814  Biso   1.000  C
  C38      1.0000 0.90860  0.57690  0.44814  Biso   1.000  C
  C39      1.0000 0.09140  0.07690  0.05186  Biso   1.000  C
  C40      1.0000 0.40860  0.42310  0.05186  Biso   1.000  C
  C41      1.0000 0.50640  0.22940  0.51198  Biso   1.000  C
  C42      1.0000 0.99360  0.27060  0.51198  Biso   1.000  C
  C43      1.0000 0.00640  0.77060  0.98802  Biso   1.000  C
  C44      1.0000 0.49360  0.72940  0.98802  Biso   1.000  C
  C45      1.0000 0.49360  0.77060  0.48802  Biso   1.000  C
  C46      1.0000 0.00640  0.72940  0.48802  Biso   1.000  C
  C47      1.0000 0.99360  0.22940  0.01198  Biso   1.000  C
  C48      1.0000 0.50640  0.27060  0.01198  Biso   1.000  C
  C49      1.0000 0.49360  0.26710  0.46520  Biso   1.000  C
  C50      1.0000 0.00640  0.23290  0.46520  Biso   1.000  C
  C51      1.0000 0.99360  0.73290  0.03480  Biso   1.000  C
  C52      1.0000 0.50640  0.76710  0.03480  Biso   1.000  C
  C53      1.0000 0.50640  0.73290  0.53480  Biso   1.000  C
  C54      1.0000 0.99360  0.76710  0.53480  Biso   1.000  C
  C55      1.0000 0.00640  0.26710  0.96520  Biso   1.000  C
  C56      1.0000 0.49360  0.23290  0.96520  Biso   1.000  C
  C57      1.0000 0.55630  0.32160  0.46202  Biso   1.000  C
  C58      1.0000 0.94370  0.17840  0.46202  Biso   1.000  C
  C59      1.0000 0.05630  0.67840  0.03798  Biso   1.000  C
  C60      1.0000 0.44370  0.82160  0.03798  Biso   1.000  C
  C61      1.0000 0.44370  0.67840  0.53798  Biso   1.000  C
  C62      1.0000 0.05630  0.82160  0.53798  Biso   1.000  C
  C63      1.0000 0.94370  0.32160  0.96202  Biso   1.000  C
  C64      1.0000 0.55630  0.17840  0.96202  Biso   1.000  C
  C65      1.0000 0.52350  0.37720  0.44466  Biso   1.000  C
  C66      1.0000 0.97650  0.12280  0.44466  Biso   1.000  C
  C67      1.0000 0.02350  0.62280  0.05534  Biso   1.000  C
  C68      1.0000 0.47650  0.87720  0.05534  Biso   1.000  C
  C69      1.0000 0.47650  0.62280  0.55534  Biso   1.000  C
  C70      1.0000 0.02350  0.87720  0.55534  Biso   1.000  C
  C71      1.0000 0.97650  0.37720  0.94466  Biso   1.000  C
  C72      1.0000 0.52350  0.12280  0.94466  Biso   1.000  C
  C73      1.0000 0.58210  0.42770  0.44373  Biso   1.000  C
  C74      1.0000 0.91790  0.07230  0.44373  Biso   1.000  C
  C75      1.0000 0.08210  0.57230  0.05627  Biso   1.000  C
  C76      1.0000 0.41790  0.92770  0.05627  Biso   1.000  C
  C77      1.0000 0.41790  0.57230  0.55627  Biso   1.000  C
  C78      1.0000 0.08210  0.92770  0.55627  Biso   1.000  C
  C79      1.0000 0.91790  0.42770  0.94373  Biso   1.000  C
  C80      1.0000 0.58210  0.07230  0.94373  Biso   1.000  C
  C81      1.0000 0.70080  0.37150  0.47593  Biso   1.000  C
  C82      1.0000 0.79920  0.12850  0.47593  Biso   1.000  C
  C83      1.0000 0.20080  0.62850  0.02407  Biso   1.000  C
  C84      1.0000 0.29920  0.87150  0.02407  Biso   1.000  C
  C85      1.0000 0.29920  0.62850  0.52407  Biso   1.000  C
  C86      1.0000 0.20080  0.87150  0.52407  Biso   1.000  C
  C87      1.0000 0.79920  0.37150  0.97593  Biso   1.000  C
  C88      1.0000 0.70080  0.12850  0.97593  Biso   1.000  C
  C89      1.0000 0.64680  0.31740  0.47620  Biso   1.000  C
  C90      1.0000 0.85320  0.18260  0.47620  Biso   1.000  C
  C91      1.0000 0.14680  0.68260  0.02380  Biso   1.000  C
  C92      1.0000 0.35320  0.81740  0.02380  Biso   1.000  C
  C93      1.0000 0.35320  0.68260  0.52380  Biso   1.000  C
  C94      1.0000 0.14680  0.81740  0.52380  Biso   1.000  C
  C95      1.0000 0.85320  0.31740  0.97620  Biso   1.000  C
  C96      1.0000 0.64680  0.18260  0.97620  Biso   1.000  C
  N33      1.0000 0.24950  0.99284  0.46217  Biso   1.000  N
  N34      1.0000 0.25050  0.50716  0.46217  Biso   1.000  N
  N35      1.0000 0.74950  0.00716  0.03783  Biso   1.000  N
  N36      1.0000 0.75050  0.49284  0.03783  Biso   1.000  N
  N37      1.0000 0.75050  0.00716  0.53783  Biso   1.000  N
  N38      1.0000 0.74950  0.49284  0.53783  Biso   1.000  N
  N39      1.0000 0.25050  0.99284  0.96217  Biso   1.000  N
  N40      1.0000 0.24950  0.50716  0.96217  Biso   1.000  N
  N41      1.0000 0.25330  0.00684  0.11312  Biso   1.000  N
  N42      1.0000 0.24670  0.49316  0.11312  Biso   1.000  N
  N43      1.0000 0.75330  0.99316  0.38688  Biso   1.000  N
  N44      1.0000 0.74670  0.50684  0.38688  Biso   1.000  N
  N45      1.0000 0.74670  0.99316  0.88688  Biso   1.000  N
  N46      1.0000 0.75330  0.50684  0.88688  Biso   1.000  N
  N47      1.0000 0.24670  0.00684  0.61312  Biso   1.000  N
  N48      1.0000 0.25330  0.49316  0.61312  Biso   1.000  N
  C97      1.0000 0.32870  0.99390  0.43719  Biso   1.000  C
  C98      1.0000 0.17130  0.50610  0.43719  Biso   1.000  C
  C99      1.0000 0.82870  0.00610  0.06281  Biso   1.000  C
  C100     1.0000 0.67130  0.49390  0.06281  Biso   1.000  C
  C101     1.0000 0.67130  0.00610  0.56281  Biso   1.000  C
  C102     1.0000 0.82870  0.49390  0.56281  Biso   1.000  C
  C103     1.0000 0.17130  0.99390  0.93719  Biso   1.000  C
  C104     1.0000 0.32870  0.50610  0.93719  Biso   1.000  C
  C105     1.0000 0.33350  0.98220  0.38614  Biso   1.000  C
  C106     1.0000 0.16650  0.51780  0.38614  Biso   1.000  C
  C107     1.0000 0.83350  0.01780  0.11386  Biso   1.000  C
  C108     1.0000 0.66650  0.48220  0.11386  Biso   1.000  C
  C109     1.0000 0.66650  0.01780  0.61386  Biso   1.000  C
  C110     1.0000 0.83350  0.48220  0.61386  Biso   1.000  C
  C111     1.0000 0.16650  0.98220  0.88614  Biso   1.000  C
  C112     1.0000 0.33350  0.51780  0.88614  Biso   1.000  C
  C113     1.0000 0.25460  0.97210  0.35880  Biso   1.000  C
  C114     1.0000 0.24540  0.52790  0.35880  Biso   1.000  C
  C115     1.0000 0.75460  0.02790  0.14120  Biso   1.000  C
  C116     1.0000 0.74540  0.47210  0.14120  Biso   1.000  C
  C117     1.0000 0.74540  0.02790  0.64120  Biso   1.000  C
  C118     1.0000 0.75460  0.47210  0.64120  Biso   1.000  C
  C119     1.0000 0.24540  0.97210  0.85880  Biso   1.000  C
  C120     1.0000 0.25460  0.52790  0.85880  Biso   1.000  C
  C121     1.0000 0.17250  0.97330  0.38384  Biso   1.000  C
  C122     1.0000 0.32750  0.52670  0.38384  Biso   1.000  C
  C123     1.0000 0.67250  0.02670  0.11616  Biso   1.000  C
  C124     1.0000 0.82750  0.47330  0.11616  Biso   1.000  C
  C125     1.0000 0.82750  0.02670  0.61616  Biso   1.000  C
  C126     1.0000 0.67250  0.47330  0.61616  Biso   1.000  C
  C127     1.0000 0.32750  0.97330  0.88384  Biso   1.000  C
  C128     1.0000 0.17250  0.52670  0.88384  Biso   1.000  C
  C129     1.0000 0.17210  0.98280  0.43654  Biso   1.000  C
  C130     1.0000 0.32790  0.51720  0.43654  Biso   1.000  C
  C131     1.0000 0.67210  0.01720  0.06346  Biso   1.000  C
  C132     1.0000 0.82790  0.48280  0.06346  Biso   1.000  C
  C133     1.0000 0.82790  0.01720  0.56346  Biso   1.000  C
  C134     1.0000 0.67210  0.48280  0.56346  Biso   1.000  C
  C135     1.0000 0.32790  0.98280  0.93654  Biso   1.000  C
  C136     1.0000 0.17210  0.51720  0.93654  Biso   1.000  C
  C137     1.0000 0.25630  0.96020  0.30296  Biso   1.000  C
  C138     1.0000 0.24370  0.53980  0.30296  Biso   1.000  C
  C139     1.0000 0.75630  0.03980  0.19704  Biso   1.000  C
  C140     1.0000 0.74370  0.46020  0.19704  Biso   1.000  C
  C141     1.0000 0.74370  0.03980  0.69704  Biso   1.000  C
  C142     1.0000 0.75630  0.46020  0.69704  Biso   1.000  C
  C143     1.0000 0.24370  0.96020  0.80296  Biso   1.000  C
  C144     1.0000 0.25630  0.53980  0.80296  Biso   1.000  C
  C145     1.0000 0.25290  0.02000  0.27442  Biso   1.000  C
  C146     1.0000 0.24710  0.48000  0.27442  Biso   1.000  C
  C147     1.0000 0.75290  0.98000  0.22558  Biso   1.000  C
  C148     1.0000 0.74710  0.52000  0.22558  Biso   1.000  C
  C149     1.0000 0.74710  0.98000  0.72558  Biso   1.000  C
  C150     1.0000 0.75290  0.52000  0.72558  Biso   1.000  C
  C151     1.0000 0.24710  0.02000  0.77442  Biso   1.000  C
  C152     1.0000 0.25290  0.48000  0.77442  Biso   1.000  C
  C153     1.0000 0.25440  0.01380  0.21787  Biso   1.000  C
  C154     1.0000 0.24560  0.48620  0.21787  Biso   1.000  C
  C155     1.0000 0.75440  0.98620  0.28213  Biso   1.000  C
  C156     1.0000 0.74560  0.51380  0.28213  Biso   1.000  C
  C157     1.0000 0.74560  0.98620  0.78213  Biso   1.000  C
  C158     1.0000 0.75440  0.51380  0.78213  Biso   1.000  C
  C159     1.0000 0.24560  0.01380  0.71787  Biso   1.000  C
  C160     1.0000 0.25440  0.48620  0.71787  Biso   1.000  C
  C161     1.0000 0.24010  0.95900  0.19312  Biso   1.000  C
  C162     1.0000 0.25990  0.54100  0.19312  Biso   1.000  C
  C163     1.0000 0.74010  0.04100  0.30688  Biso   1.000  C
  C164     1.0000 0.75990  0.45900  0.30688  Biso   1.000  C
  C165     1.0000 0.75990  0.04100  0.80688  Biso   1.000  C
  C166     1.0000 0.74010  0.45900  0.80688  Biso   1.000  C
  C167     1.0000 0.25990  0.95900  0.69312  Biso   1.000  C
  C168     1.0000 0.24010  0.54100  0.69312  Biso   1.000  C
  C169     1.0000 0.24060  0.95720  0.14143  Biso   1.000  C
  C170     1.0000 0.25940  0.54280  0.14143  Biso   1.000  C
  C171     1.0000 0.74060  0.04280  0.35857  Biso   1.000  C
  C172     1.0000 0.75940  0.45720  0.35857  Biso   1.000  C
  C173     1.0000 0.75940  0.04280  0.85857  Biso   1.000  C
  C174     1.0000 0.74060  0.45720  0.85857  Biso   1.000  C
  C175     1.0000 0.25940  0.95720  0.64143  Biso   1.000  C
  C176     1.0000 0.24060  0.54280  0.64143  Biso   1.000  C
  C177     1.0000 0.26580  0.06020  0.13692  Biso   1.000  C
  C178     1.0000 0.23420  0.43980  0.13692  Biso   1.000  C
  C179     1.0000 0.76580  0.93980  0.36308  Biso   1.000  C
  C180     1.0000 0.73420  0.56020  0.36308  Biso   1.000  C
  C181     1.0000 0.73420  0.93980  0.86308  Biso   1.000  C
  C182     1.0000 0.76580  0.56020  0.86308  Biso   1.000  C
  C183     1.0000 0.23420  0.06020  0.63692  Biso   1.000  C
  C184     1.0000 0.26580  0.43980  0.63692  Biso   1.000  C
  C185     1.0000 0.26780  0.06540  0.18815  Biso   1.000  C
  C186     1.0000 0.23220  0.43460  0.18815  Biso   1.000  C
  C187     1.0000 0.76780  0.93460  0.31185  Biso   1.000  C
  C188     1.0000 0.73220  0.56540  0.31185  Biso   1.000  C
  C189     1.0000 0.73220  0.93460  0.81185  Biso   1.000  C
  C190     1.0000 0.76780  0.56540  0.81185  Biso   1.000  C
  C191     1.0000 0.23220  0.06540  0.68815  Biso   1.000  C
  C192     1.0000 0.26780  0.43460  0.68815  Biso   1.000  C
  Cu1      1.0000 0.24634  0.00134  0.53760  Biso   1.000  Cu
  Cu2      1.0000 0.25366  0.49866  0.53760  Biso   1.000  Cu
  Cu3      1.0000 0.74634  0.99866  0.96240  Biso   1.000  Cu
  Cu4      1.0000 0.75366  0.50134  0.96240  Biso   1.000  Cu
  Cu5      1.0000 0.75366  0.99866  0.46240  Biso   1.000  Cu
  Cu6      1.0000 0.74634  0.50134  0.46240  Biso   1.000  Cu
  Cu7      1.0000 0.25366  0.00134  0.03761  Biso   1.000  Cu
  Cu8      1.0000 0.24634  0.49866  0.03761  Biso   1.000  Cu
  H1       1.0000 0.23500  0.12500  0.49000  Biso   1.000  H
  H2       1.0000 0.26500  0.37500  0.49000  Biso   1.000  H
  H3       1.0000 0.73500  0.87500  0.01000  Biso   1.000  H
  H4       1.0000 0.76500  0.62500  0.01000  Biso   1.000  H
  H5       1.0000 0.76500  0.87500  0.51000  Biso   1.000  H
  H6       1.0000 0.73500  0.62500  0.51000  Biso   1.000  H
  H7       1.0000 0.26500  0.12500  0.99000  Biso   1.000  H
  H8       1.0000 0.23500  0.37500  0.99000  Biso   1.000  H
  H9       1.0000 0.33200  0.21300  0.48000  Biso   1.000  H
  H10      1.0000 0.16800  0.28700  0.48000  Biso   1.000  H
  H11      1.0000 0.83200  0.78700  0.02000  Biso   1.000  H
  H12      1.0000 0.66800  0.71300  0.02000  Biso   1.000  H
  H13      1.0000 0.66800  0.78700  0.52000  Biso   1.000  H
  H14      1.0000 0.83200  0.71300  0.52000  Biso   1.000  H
  H15      1.0000 0.16800  0.21300  0.98000  Biso   1.000  H
  H16      1.0000 0.33200  0.28700  0.98000  Biso   1.000  H
  H17      1.0000 0.53300  0.12400  0.56100  Biso   1.000  H
  H18      1.0000 0.96700  0.37600  0.56100  Biso   1.000  H
  H19      1.0000 0.03300  0.87600  0.93900  Biso   1.000  H
  H20      1.0000 0.46700  0.62400  0.93900  Biso   1.000  H
  H21      1.0000 0.46700  0.87600  0.43900  Biso   1.000  H
  H22      1.0000 0.03300  0.62400  0.43900  Biso   1.000  H
  H23      1.0000 0.96700  0.12400  0.06100  Biso   1.000  H
  H24      1.0000 0.53300  0.37600  0.06100  Biso   1.000  H
  H25      1.0000 0.43100  0.04000  0.57000  Biso   1.000  H
  H26      1.0000 0.06900  0.46000  0.57000  Biso   1.000  H
  H27      1.0000 0.93100  0.96000  0.93000  Biso   1.000  H
  H28      1.0000 0.56900  0.54000  0.93000  Biso   1.000  H
  H29      1.0000 0.56900  0.96000  0.43000  Biso   1.000  H
  H30      1.0000 0.93100  0.54000  0.43000  Biso   1.000  H
  H31      1.0000 0.06900  0.04000  0.07000  Biso   1.000  H
  H32      1.0000 0.43100  0.46000  0.07000  Biso   1.000  H
  H33      1.0000 0.50100  0.25800  0.54200  Biso   1.000  H
  H34      1.0000 0.99900  0.24200  0.54200  Biso   1.000  H
  H35      1.0000 0.00100  0.74200  0.95800  Biso   1.000  H
  H36      1.0000 0.49900  0.75800  0.95800  Biso   1.000  H
  H37      1.0000 0.49900  0.74200  0.45800  Biso   1.000  H
  H38      1.0000 0.00100  0.75800  0.45800  Biso   1.000  H
  H39      1.0000 0.99900  0.25800  0.04200  Biso   1.000  H
  H40      1.0000 0.50100  0.24200  0.04200  Biso   1.000  H
  H41      1.0000 0.57100  0.21300  0.51200  Biso   1.000  H
  H42      1.0000 0.92900  0.28700  0.51200  Biso   1.000  H
  H43      1.0000 0.07100  0.78700  0.98800  Biso   1.000  H
  H44      1.0000 0.42900  0.71300  0.98800  Biso   1.000  H
  H45      1.0000 0.42900  0.78700  0.48800  Biso   1.000  H
  H46      1.0000 0.07100  0.71300  0.48800  Biso   1.000  H
  H47      1.0000 0.92900  0.21300  0.01200  Biso   1.000  H
  H48      1.0000 0.57100  0.28700  0.01200  Biso   1.000  H
  H49      1.0000 0.50400  0.24000  0.43400  Biso   1.000  H
  H50      1.0000 0.99600  0.26000  0.43400  Biso   1.000  H
  H51      1.0000 0.00400  0.76000  0.06600  Biso   1.000  H
  H52      1.0000 0.49600  0.74000  0.06600  Biso   1.000  H
  H53      1.0000 0.49600  0.76000  0.56600  Biso   1.000  H
  H54      1.0000 0.00400  0.74000  0.56600  Biso   1.000  H
  H55      1.0000 0.99600  0.24000  0.93400  Biso   1.000  H
  H56      1.0000 0.50400  0.26000  0.93400  Biso   1.000  H
  H57      1.0000 0.42800  0.28100  0.46300  Biso   1.000  H
  H58      1.0000 0.07200  0.21900  0.46300  Biso   1.000  H
  H59      1.0000 0.92800  0.71900  0.03700  Biso   1.000  H
  H60      1.0000 0.57200  0.78100  0.03700  Biso   1.000  H
  H61      1.0000 0.57200  0.71900  0.53700  Biso   1.000  H
  H62      1.0000 0.92800  0.78100  0.53700  Biso   1.000  H
  H63      1.0000 0.07200  0.28100  0.96300  Biso   1.000  H
  H64      1.0000 0.42800  0.21900  0.96300  Biso   1.000  H
  H65      1.0000 0.45800  0.38100  0.43300  Biso   1.000  H
  H66      1.0000 0.04200  0.11900  0.43300  Biso   1.000  H
  H67      1.0000 0.95800  0.61900  0.06700  Biso   1.000  H
  H68      1.0000 0.54200  0.88100  0.06700  Biso   1.000  H
  H69      1.0000 0.54200  0.61900  0.56700  Biso   1.000  H
  H70      1.0000 0.95800  0.88100  0.56700  Biso   1.000  H
  H71      1.0000 0.04200  0.38100  0.93300  Biso   1.000  H
  H72      1.0000 0.45800  0.11900  0.93300  Biso   1.000  H
  H73      1.0000 0.55700  0.46900  0.43300  Biso   1.000  H
  H74      1.0000 0.94300  0.03100  0.43300  Biso   1.000  H
  H75      1.0000 0.05700  0.53100  0.06700  Biso   1.000  H
  H76      1.0000 0.44300  0.96900  0.06700  Biso   1.000  H
  H77      1.0000 0.44300  0.53100  0.56700  Biso   1.000  H
  H78      1.0000 0.05700  0.96900  0.56700  Biso   1.000  H
  H79      1.0000 0.94300  0.46900  0.93300  Biso   1.000  H
  H80      1.0000 0.55700  0.03100  0.93300  Biso   1.000  H
  H81      1.0000 0.76600  0.36900  0.48900  Biso   1.000  H
  H82      1.0000 0.73400  0.13100  0.48900  Biso   1.000  H
  H83      1.0000 0.26600  0.63100  0.01100  Biso   1.000  H
  H84      1.0000 0.23400  0.86900  0.01100  Biso   1.000  H
  H85      1.0000 0.23400  0.63100  0.51100  Biso   1.000  H
  H86      1.0000 0.26600  0.86900  0.51100  Biso   1.000  H
  H87      1.0000 0.73400  0.36900  0.98900  Biso   1.000  H
  H88      1.0000 0.76600  0.13100  0.98900  Biso   1.000  H
  H89      1.0000 0.67400  0.27700  0.48700  Biso   1.000  H
  H90      1.0000 0.82600  0.22300  0.48700  Biso   1.000  H
  H91      1.0000 0.17400  0.72300  0.01300  Biso   1.000  H
  H92      1.0000 0.32600  0.77700  0.01300  Biso   1.000  H
  H93      1.0000 0.32600  0.72300  0.51300  Biso   1.000  H
  H94      1.0000 0.17400  0.77700  0.51300  Biso   1.000  H
  H95      1.0000 0.82600  0.27700  0.98700  Biso   1.000  H
  H96      1.0000 0.67400  0.22300  0.98700  Biso   1.000  H
  H97      1.0000 0.38600  0.00200  0.45600  Biso   1.000  H
  H98      1.0000 0.11400  0.49800  0.45600  Biso   1.000  H
  H99      1.0000 0.88600  0.99800  0.04400  Biso   1.000  H
  H100     1.0000 0.61400  0.50200  0.04400  Biso   1.000  H
  H101     1.0000 0.61400  0.99800  0.54400  Biso   1.000  H
  H102     1.0000 0.88600  0.50200  0.54400  Biso   1.000  H
  H103     1.0000 0.11400  0.00200  0.95600  Biso   1.000  H
  H104     1.0000 0.38600  0.49800  0.95600  Biso   1.000  H
  H105     1.0000 0.39500  0.98200  0.36900  Biso   1.000  H
  H106     1.0000 0.10500  0.51800  0.36900  Biso   1.000  H
  H107     1.0000 0.89500  0.01800  0.13100  Biso   1.000  H
  H108     1.0000 0.60500  0.48200  0.13100  Biso   1.000  H
  H109     1.0000 0.60500  0.01800  0.63100  Biso   1.000  H
  H110     1.0000 0.89500  0.48200  0.63100  Biso   1.000  H
  H111     1.0000 0.10500  0.98200  0.86900  Biso   1.000  H
  H112     1.0000 0.39500  0.51800  0.86900  Biso   1.000  H
  H113     1.0000 0.11300  0.96600  0.36500  Biso   1.000  H
  H114     1.0000 0.38700  0.53400  0.36500  Biso   1.000  H
  H115     1.0000 0.61300  0.03400  0.13500  Biso   1.000  H
  H116     1.0000 0.88700  0.46600  0.13500  Biso   1.000  H
  H117     1.0000 0.88700  0.03400  0.63500  Biso   1.000  H
  H118     1.0000 0.61300  0.46600  0.63500  Biso   1.000  H
  H119     1.0000 0.38700  0.96600  0.86500  Biso   1.000  H
  H120     1.0000 0.11300  0.53400  0.86500  Biso   1.000  H
  H121     1.0000 0.11200  0.98300  0.45500  Biso   1.000  H
  H122     1.0000 0.38800  0.51700  0.45500  Biso   1.000  H
  H123     1.0000 0.61200  0.01700  0.04500  Biso   1.000  H
  H124     1.0000 0.88800  0.48300  0.04500  Biso   1.000  H
  H125     1.0000 0.88800  0.01700  0.54500  Biso   1.000  H
  H126     1.0000 0.61200  0.48300  0.54500  Biso   1.000  H
  H127     1.0000 0.38800  0.98300  0.95500  Biso   1.000  H
  H128     1.0000 0.11200  0.51700  0.95500  Biso   1.000  H
  H129     1.0000 0.20300  0.93400  0.29300  Biso   1.000  H
  H130     1.0000 0.29700  0.56600  0.29300  Biso   1.000  H
  H131     1.0000 0.70300  0.06600  0.20700  Biso   1.000  H
  H132     1.0000 0.79700  0.43400  0.20700  Biso   1.000  H
  H133     1.0000 0.79700  0.06600  0.70700  Biso   1.000  H
  H134     1.0000 0.70300  0.43400  0.70700  Biso   1.000  H
  H135     1.0000 0.29700  0.93400  0.79300  Biso   1.000  H
  H136     1.0000 0.20300  0.56600  0.79300  Biso   1.000  H
  H137     1.0000 0.31400  0.93800  0.29400  Biso   1.000  H
  H138     1.0000 0.18600  0.56200  0.29400  Biso   1.000  H
  H139     1.0000 0.81400  0.06200  0.20600  Biso   1.000  H
  H140     1.0000 0.68600  0.43800  0.20600  Biso   1.000  H
  H141     1.0000 0.68600  0.06200  0.70600  Biso   1.000  H
  H142     1.0000 0.81400  0.43800  0.70600  Biso   1.000  H
  H143     1.0000 0.18600  0.93800  0.79400  Biso   1.000  H
  H144     1.0000 0.31400  0.56200  0.79400  Biso   1.000  H
  H145     1.0000 0.19500  0.04200  0.28400  Biso   1.000  H
  H146     1.0000 0.30500  0.45800  0.28400  Biso   1.000  H
  H147     1.0000 0.69500  0.95800  0.21600  Biso   1.000  H
  H148     1.0000 0.80500  0.54200  0.21600  Biso   1.000  H
  H149     1.0000 0.80500  0.95800  0.71600  Biso   1.000  H
  H150     1.0000 0.69500  0.54200  0.71600  Biso   1.000  H
  H151     1.0000 0.30500  0.04200  0.78400  Biso   1.000  H
  H152     1.0000 0.19500  0.45800  0.78400  Biso   1.000  H
  H153     1.0000 0.30600  0.04600  0.28500  Biso   1.000  H
  H154     1.0000 0.19400  0.45400  0.28500  Biso   1.000  H
  H155     1.0000 0.80600  0.95400  0.21500  Biso   1.000  H
  H156     1.0000 0.69400  0.54600  0.21500  Biso   1.000  H
  H157     1.0000 0.69400  0.95400  0.71500  Biso   1.000  H
  H158     1.0000 0.80600  0.54600  0.71500  Biso   1.000  H
  H159     1.0000 0.19400  0.04600  0.78500  Biso   1.000  H
  H160     1.0000 0.30600  0.45400  0.78500  Biso   1.000  H
  H161     1.0000 0.22900  0.92000  0.21400  Biso   1.000  H
  H162     1.0000 0.27100  0.58000  0.21400  Biso   1.000  H
  H163     1.0000 0.72900  0.08000  0.28600  Biso   1.000  H
  H164     1.0000 0.77100  0.42000  0.28600  Biso   1.000  H
  H165     1.0000 0.77100  0.08000  0.78600  Biso   1.000  H
  H166     1.0000 0.72900  0.42000  0.78600  Biso   1.000  H
  H167     1.0000 0.27100  0.92000  0.71400  Biso   1.000  H
  H168     1.0000 0.22900  0.58000  0.71400  Biso   1.000  H
  H169     1.0000 0.23100  0.91600  0.12400  Biso   1.000  H
  H170     1.0000 0.26900  0.58400  0.12400  Biso   1.000  H
  H171     1.0000 0.73100  0.08400  0.37600  Biso   1.000  H
  H172     1.0000 0.76900  0.41600  0.37600  Biso   1.000  H
  H173     1.0000 0.76900  0.08400  0.87600  Biso   1.000  H
  H174     1.0000 0.73100  0.41600  0.87600  Biso   1.000  H
  H175     1.0000 0.26900  0.91600  0.62400  Biso   1.000  H
  H176     1.0000 0.23100  0.58400  0.62400  Biso   1.000  H
  H177     1.0000 0.27600  0.09900  0.11600  Biso   1.000  H
  H178     1.0000 0.22400  0.40100  0.11600  Biso   1.000  H
  H179     1.0000 0.77600  0.90100  0.38400  Biso   1.000  H
  H180     1.0000 0.72400  0.59900  0.38400  Biso   1.000  H
  H181     1.0000 0.72400  0.90100  0.88400  Biso   1.000  H
  H182     1.0000 0.77600  0.59900  0.88400  Biso   1.000  H
  H183     1.0000 0.22400  0.09900  0.61600  Biso   1.000  H
  H184     1.0000 0.27600  0.40100  0.61600  Biso   1.000  H
  H185     1.0000 0.27900  0.10700  0.20500  Biso   1.000  H
  H186     1.0000 0.22100  0.39300  0.20500  Biso   1.000  H
  H187     1.0000 0.77900  0.89300  0.29500  Biso   1.000  H
  H188     1.0000 0.72100  0.60700  0.29500  Biso   1.000  H
  H189     1.0000 0.72100  0.89300  0.79500  Biso   1.000  H
  H190     1.0000 0.77900  0.60700  0.79500  Biso   1.000  H
  H191     1.0000 0.22100  0.10700  0.70500  Biso   1.000  H
  H192     1.0000 0.27900  0.39300  0.70500  Biso   1.000  H
  C193     1.0000 0.01660  0.96320  0.70270  Biso   1.000  C
  C194     1.0000 0.48340  0.53680  0.70270  Biso   1.000  C
  C195     1.0000 0.51660  0.03680  0.79730  Biso   1.000  C
  C196     1.0000 0.98340  0.46320  0.79730  Biso   1.000  C
  C197     1.0000 0.98340  0.03680  0.29730  Biso   1.000  C
  C198     1.0000 0.51660  0.46320  0.29730  Biso   1.000  C
  C199     1.0000 0.48340  0.96320  0.20270  Biso   1.000  C
  C200     1.0000 0.01660  0.53680  0.20270  Biso   1.000  C
  C201     1.0000 0.00050  0.99290  0.74730  Biso   1.000  C
  C202     1.0000 0.49950  0.50710  0.74730  Biso   1.000  C
  C203     1.0000 0.50050  0.00710  0.75270  Biso   1.000  C
  C204     1.0000 0.99950  0.49290  0.75270  Biso   1.000  C
  C205     1.0000 0.99950  0.00710  0.25270  Biso   1.000  C
  C206     1.0000 0.50050  0.49290  0.25270  Biso   1.000  C
  C207     1.0000 0.49950  0.99290  0.24730  Biso   1.000  C
  C208     1.0000 0.00050  0.50710  0.24730  Biso   1.000  C
  C209     1.0000 0.97520  0.96480  0.79060  Biso   1.000  C
  C210     1.0000 0.52480  0.53520  0.79060  Biso   1.000  C
  C211     1.0000 0.47520  0.03520  0.70940  Biso   1.000  C
  C212     1.0000 0.02480  0.46480  0.70940  Biso   1.000  C
  C213     1.0000 0.02480  0.03520  0.20940  Biso   1.000  C
  C214     1.0000 0.47520  0.46480  0.20940  Biso   1.000  C
  C215     1.0000 0.52480  0.96480  0.29060  Biso   1.000  C
  C216     1.0000 0.97520  0.53520  0.29060  Biso   1.000  C
  C217     1.0000 0.96560  0.90780  0.78770  Biso   1.000  C
  C218     1.0000 0.53440  0.59220  0.78770  Biso   1.000  C
  C219     1.0000 0.46560  0.09220  0.71230  Biso   1.000  C
  C220     1.0000 0.03440  0.40780  0.71230  Biso   1.000  C
  C221     1.0000 0.03440  0.09220  0.21230  Biso   1.000  C
  C222     1.0000 0.46560  0.40780  0.21230  Biso   1.000  C
  C223     1.0000 0.53440  0.90780  0.28770  Biso   1.000  C
  C224     1.0000 0.96560  0.59220  0.28770  Biso   1.000  C
  C225     1.0000 0.97830  0.87410  0.74600  Biso   1.000  C
  C226     1.0000 0.52170  0.62590  0.74600  Biso   1.000  C
  C227     1.0000 0.47830  0.12590  0.75400  Biso   1.000  C
  C228     1.0000 0.02170  0.37410  0.75400  Biso   1.000  C
  C229     1.0000 0.02170  0.12590  0.25400  Biso   1.000  C
  C230     1.0000 0.47830  0.37410  0.25400  Biso   1.000  C
  C231     1.0000 0.52170  0.87410  0.24600  Biso   1.000  C
  C232     1.0000 0.97830  0.62590  0.24600  Biso   1.000  C
  C233     1.0000 0.00520  0.90710  0.70350  Biso   1.000  C
  C234     1.0000 0.49480  0.59290  0.70350  Biso   1.000  C
  C235     1.0000 0.50520  0.09290  0.79650  Biso   1.000  C
  C236     1.0000 0.99480  0.40710  0.79650  Biso   1.000  C
  C237     1.0000 0.99480  0.09290  0.29650  Biso   1.000  C
  C238     1.0000 0.50520  0.40710  0.29650  Biso   1.000  C
  C239     1.0000 0.49480  0.90710  0.20350  Biso   1.000  C
  C240     1.0000 0.00520  0.59290  0.20350  Biso   1.000  C
  H193     1.0000 0.03600  0.98900  0.67200  Biso   1.000  H
  H194     1.0000 0.46400  0.51100  0.67200  Biso   1.000  H
  H195     1.0000 0.53600  0.01100  0.82800  Biso   1.000  H
  H196     1.0000 0.96400  0.48900  0.82800  Biso   1.000  H
  H197     1.0000 0.96400  0.01100  0.32800  Biso   1.000  H
  H198     1.0000 0.53600  0.48900  0.32800  Biso   1.000  H
  H199     1.0000 0.46400  0.98900  0.17200  Biso   1.000  H
  H200     1.0000 0.03600  0.51100  0.17200  Biso   1.000  H
  H201     1.0000 0.00900  0.04100  0.74600  Biso   1.000  H
  H202     1.0000 0.49100  0.45900  0.74600  Biso   1.000  H
  H203     1.0000 0.50900  0.95900  0.75400  Biso   1.000  H
  H204     1.0000 0.99100  0.54100  0.75400  Biso   1.000  H
  H205     1.0000 0.99100  0.95900  0.25400  Biso   1.000  H
  H206     1.0000 0.50900  0.54100  0.25400  Biso   1.000  H
  H207     1.0000 0.49100  0.04100  0.24600  Biso   1.000  H
  H208     1.0000 0.00900  0.45900  0.24600  Biso   1.000  H
  H209     1.0000 0.96400  0.99400  0.82100  Biso   1.000  H
  H210     1.0000 0.53600  0.50600  0.82100  Biso   1.000  H
  H211     1.0000 0.46400  0.00600  0.67900  Biso   1.000  H
  H212     1.0000 0.03600  0.49400  0.67900  Biso   1.000  H
  H213     1.0000 0.03600  0.00600  0.17900  Biso   1.000  H
  H214     1.0000 0.46400  0.49400  0.17900  Biso   1.000  H
  H215     1.0000 0.53600  0.99400  0.32100  Biso   1.000  H
  H216     1.0000 0.96400  0.50600  0.32100  Biso   1.000  H
  H217     1.0000 0.94600  0.88700  0.82100  Biso   1.000  H
  H218     1.0000 0.55400  0.61300  0.82100  Biso   1.000  H
  H219     1.0000 0.44600  0.11300  0.67900  Biso   1.000  H
  H220     1.0000 0.05400  0.38700  0.67900  Biso   1.000  H
  H221     1.0000 0.05400  0.11300  0.17900  Biso   1.000  H
  H222     1.0000 0.44600  0.38700  0.17900  Biso   1.000  H
  H223     1.0000 0.55400  0.88700  0.32100  Biso   1.000  H
  H224     1.0000 0.94600  0.61300  0.32100  Biso   1.000  H
  H225     1.0000 0.97200  0.82700  0.74600  Biso   1.000  H
  H226     1.0000 0.52800  0.67300  0.74600  Biso   1.000  H
  H227     1.0000 0.47200  0.17300  0.75400  Biso   1.000  H
  H228     1.0000 0.02800  0.32700  0.75400  Biso   1.000  H
  H229     1.0000 0.02800  0.17300  0.25400  Biso   1.000  H
  H230     1.0000 0.47200  0.32700  0.25400  Biso   1.000  H
  H231     1.0000 0.52800  0.82700  0.24600  Biso   1.000  H
  H232     1.0000 0.97200  0.67300  0.24600  Biso   1.000  H
  H233     1.0000 0.01600  0.88300  0.67100  Biso   1.000  H
  H234     1.0000 0.48400  0.61700  0.67100  Biso   1.000  H
  H235     1.0000 0.51600  0.11700  0.82900  Biso   1.000  H
  H236     1.0000 0.98400  0.38300  0.82900  Biso   1.000  H
  H237     1.0000 0.98400  0.11700  0.32900  Biso   1.000  H
  H238     1.0000 0.51600  0.38300  0.32900  Biso   1.000  H
  H239     1.0000 0.48400  0.88300  0.17100  Biso   1.000  H
  H240     1.0000 0.01600  0.61700  0.17100  Biso   1.000  H
  C241     1.0000 0.25000  0.75000  0.64490  Biso   1.000  C
  C242     1.0000 0.75000  0.25000  0.85510  Biso   1.000  C
  C243     1.0000 0.75000  0.25000  0.35510  Biso   1.000  C
  C244     1.0000 0.25000  0.75000  0.14490  Biso   1.000  C
  C245     1.0000 0.19840  0.78470  0.66700  Biso   1.000  C
  C246     1.0000 0.30160  0.71530  0.66700  Biso   1.000  C
  C247     1.0000 0.69840  0.21530  0.83300  Biso   1.000  C
  C248     1.0000 0.80160  0.28470  0.83300  Biso   1.000  C
  C249     1.0000 0.80160  0.21530  0.33300  Biso   1.000  C
  C250     1.0000 0.69840  0.28470  0.33300  Biso   1.000  C
  C251     1.0000 0.30160  0.78470  0.16700  Biso   1.000  C
  C252     1.0000 0.19840  0.71530  0.16700  Biso   1.000  C
  C253     1.0000 0.19590  0.78730  0.72110  Biso   1.000  C
  C254     1.0000 0.30410  0.71270  0.72110  Biso   1.000  C
  C255     1.0000 0.69590  0.21270  0.77890  Biso   1.000  C
  C256     1.0000 0.80410  0.28730  0.77890  Biso   1.000  C
  C257     1.0000 0.80410  0.21270  0.27890  Biso   1.000  C
  C258     1.0000 0.69590  0.28730  0.27890  Biso   1.000  C
  C259     1.0000 0.30410  0.78730  0.22110  Biso   1.000  C
  C260     1.0000 0.19590  0.71270  0.22110  Biso   1.000  C
  C261     1.0000 0.25000  0.75000  0.74530  Biso   1.000  C
  C262     1.0000 0.75000  0.25000  0.75470  Biso   1.000  C
  C263     1.0000 0.75000  0.25000  0.25470  Biso   1.000  C
  C264     1.0000 0.25000  0.75000  0.24530  Biso   1.000  C
  H241     1.0000 0.25000  0.75000  0.60700  Biso   1.000  H
  H242     1.0000 0.75000  0.25000  0.89300  Biso   1.000  H
  H243     1.0000 0.75000  0.25000  0.39300  Biso   1.000  H
  H244     1.0000 0.25000  0.75000  0.10700  Biso   1.000  H
  H245     1.0000 0.15700  0.81600  0.64800  Biso   1.000  H
  H246     1.0000 0.34300  0.68400  0.64800  Biso   1.000  H
  H247     1.0000 0.65700  0.18400  0.85200  Biso   1.000  H
  H248     1.0000 0.84300  0.31600  0.85200  Biso   1.000  H
  H249     1.0000 0.84300  0.18400  0.35200  Biso   1.000  H
  H250     1.0000 0.65700  0.31600  0.35200  Biso   1.000  H
  H251     1.0000 0.34300  0.81600  0.14800  Biso   1.000  H
  H252     1.0000 0.15700  0.68400  0.14800  Biso   1.000  H
  H253     1.0000 0.15400  0.81400  0.74300  Biso   1.000  H
  H254     1.0000 0.34600  0.68600  0.74300  Biso   1.000  H
  H255     1.0000 0.65400  0.18600  0.75700  Biso   1.000  H
  H256     1.0000 0.84600  0.31400  0.75700  Biso   1.000  H
  H257     1.0000 0.84600  0.18600  0.25700  Biso   1.000  H
  H258     1.0000 0.65400  0.31400  0.25700  Biso   1.000  H
  H259     1.0000 0.34600  0.81400  0.24300  Biso   1.000  H
  H260     1.0000 0.15400  0.68600  0.24300  Biso   1.000  H
  H261     1.0000 0.25000  0.75000  0.78500  Biso   1.000  H
  H262     1.0000 0.75000  0.25000  0.71500  Biso   1.000  H
  H263     1.0000 0.75000  0.25000  0.21500  Biso   1.000  H
  H264     1.0000 0.25000  0.75000  0.28500  Biso   1.000  H
  C265     1.0000 0.25000  0.25000  0.22930  Biso   1.000  C
  C266     1.0000 0.75000  0.75000  0.27070  Biso   1.000  C
  C267     1.0000 0.75000  0.75000  0.77070  Biso   1.000  C
  C268     1.0000 0.25000  0.25000  0.72930  Biso   1.000  C
  C269     1.0000 0.17490  0.26730  0.20000  Biso   1.000  C
  C270     1.0000 0.32510  0.23270  0.20000  Biso   1.000  C
  C271     1.0000 0.67490  0.73270  0.30000  Biso   1.000  C
  C272     1.0000 0.82510  0.76730  0.30000  Biso   1.000  C
  C273     1.0000 0.82510  0.73270  0.80000  Biso   1.000  C
  C274     1.0000 0.67490  0.76730  0.80000  Biso   1.000  C
  C275     1.0000 0.32510  0.26730  0.70000  Biso   1.000  C
  C276     1.0000 0.17490  0.23270  0.70000  Biso   1.000  C
  C277     1.0000 0.18810  0.25950  0.14710  Biso   1.000  C
  C278     1.0000 0.31190  0.24050  0.14710  Biso   1.000  C
  C279     1.0000 0.68810  0.74050  0.35290  Biso   1.000  C
  C280     1.0000 0.81190  0.75950  0.35290  Biso   1.000  C
  C281     1.0000 0.81190  0.74050  0.85290  Biso   1.000  C
  C282     1.0000 0.68810  0.75950  0.85290  Biso   1.000  C
  C283     1.0000 0.31190  0.25950  0.64710  Biso   1.000  C
  C284     1.0000 0.18810  0.24050  0.64710  Biso   1.000  C
  C285     1.0000 0.25000  0.25000  0.13800  Biso   1.000  C
  C286     1.0000 0.75000  0.75000  0.36200  Biso   1.000  C
  C287     1.0000 0.75000  0.75000  0.86200  Biso   1.000  C
  C288     1.0000 0.25000  0.25000  0.63800  Biso   1.000  C
  H265     1.0000 0.25000  0.25000  0.26900  Biso   1.000  H
  H266     1.0000 0.75000  0.75000  0.23100  Biso   1.000  H
  H267     1.0000 0.75000  0.75000  0.73100  Biso   1.000  H
  H268     1.0000 0.25000  0.25000  0.76900  Biso   1.000  H
  H269     1.0000 0.11700  0.28600  0.22000  Biso   1.000  H
  H270     1.0000 0.38300  0.21400  0.22000  Biso   1.000  H
  H271     1.0000 0.61700  0.71400  0.28000  Biso   1.000  H
  H272     1.0000 0.88300  0.78600  0.28000  Biso   1.000  H
  H273     1.0000 0.88300  0.71400  0.78000  Biso   1.000  H
  H274     1.0000 0.61700  0.78600  0.78000  Biso   1.000  H
  H275     1.0000 0.38300  0.28600  0.72000  Biso   1.000  H
  H276     1.0000 0.11700  0.21400  0.72000  Biso   1.000  H
  H277     1.0000 0.12900  0.26200  0.12400  Biso   1.000  H
  H278     1.0000 0.37100  0.23800  0.12400  Biso   1.000  H
  H279     1.0000 0.62900  0.73800  0.37600  Biso   1.000  H
  H280     1.0000 0.87100  0.76200  0.37600  Biso   1.000  H
  H281     1.0000 0.87100  0.73800  0.87600  Biso   1.000  H
  H282     1.0000 0.62900  0.76200  0.87600  Biso   1.000  H
  H283     1.0000 0.37100  0.26200  0.62400  Biso   1.000  H
  H284     1.0000 0.12900  0.23800  0.62400  Biso   1.000  H
  H285     1.0000 0.25000  0.25000  0.09600  Biso   1.000  H
  H286     1.0000 0.75000  0.75000  0.40400  Biso   1.000  H
  H287     1.0000 0.75000  0.75000  0.90400  Biso   1.000  H
  H288     1.0000 0.25000  0.25000  0.59600  Biso   1.000  H
  O49      1.0000 0.55650  0.63060  0.17450  Biso   1.000  O
  O50      1.0000 0.94350  0.86940  0.17450  Biso   1.000  O
  O51      1.0000 0.05650  0.36940  0.32550  Biso   1.000  O
  O52      1.0000 0.44350  0.13060  0.32550  Biso   1.000  O
  O53      1.0000 0.44350  0.36940  0.82550  Biso   1.000  O
  O54      1.0000 0.05650  0.13060  0.82550  Biso   1.000  O
  O55      1.0000 0.94350  0.63060  0.67450  Biso   1.000  O
  O56      1.0000 0.55650  0.86940  0.67450  Biso   1.000  O
  C289     1.0000 0.48510  0.67360  0.19460  Biso   1.000  C
  C290     1.0000 0.01490  0.82640  0.19460  Biso   1.000  C
  C291     1.0000 0.98510  0.32640  0.30540  Biso   1.000  C
  C292     1.0000 0.51490  0.17360  0.30540  Biso   1.000  C
  C293     1.0000 0.51490  0.32640  0.80540  Biso   1.000  C
  C294     1.0000 0.98510  0.17360  0.80540  Biso   1.000  C
  C295     1.0000 0.01490  0.67360  0.69460  Biso   1.000  C
  C296     1.0000 0.48510  0.82640  0.69460  Biso   1.000  C
  O57      1.0000 0.97700  0.34750  0.17480  Biso   1.000  O
  O58      1.0000 0.52300  0.15250  0.17480  Biso   1.000  O
  O59      1.0000 0.47700  0.65250  0.32520  Biso   1.000  O
  O60      1.0000 0.02300  0.84750  0.32520  Biso   1.000  O
  O61      1.0000 0.02300  0.65250  0.82520  Biso   1.000  O
  O62      1.0000 0.47700  0.84750  0.82520  Biso   1.000  O
  O63      1.0000 0.52300  0.34750  0.67480  Biso   1.000  O
  O64      1.0000 0.97700  0.15250  0.67480  Biso   1.000  O
  C297     1.0000 0.78790  0.84710  0.63580  Biso   1.000  C
  C298     1.0000 0.71210  0.65290  0.63580  Biso   1.000  C
  C299     1.0000 0.28790  0.15290  0.86420  Biso   1.000  C
  C300     1.0000 0.21210  0.34710  0.86420  Biso   1.000  C
  C301     1.0000 0.21210  0.15290  0.36420  Biso   1.000  C
  C302     1.0000 0.28790  0.34710  0.36420  Biso   1.000  C
  C303     1.0000 0.71210  0.84710  0.13580  Biso   1.000  C
  C304     1.0000 0.78790  0.65290  0.13580  Biso   1.000  C
  C305     1.0000 0.79860  0.80950  0.59880  Biso   1.000  C
  C306     1.0000 0.70140  0.69050  0.59880  Biso   1.000  C
  C307     1.0000 0.29860  0.19050  0.90120  Biso   1.000  C
  C308     1.0000 0.20140  0.30950  0.90120  Biso   1.000  C
  C309     1.0000 0.20140  0.19050  0.40120  Biso   1.000  C
  C310     1.0000 0.29860  0.30950  0.40120  Biso   1.000  C
  C311     1.0000 0.70140  0.80950  0.09880  Biso   1.000  C
  C312     1.0000 0.79860  0.69050  0.09880  Biso   1.000  C
  C313     1.0000 0.71460  0.81560  0.63530  Biso   1.000  C
  C314     1.0000 0.78540  0.68440  0.63530  Biso   1.000  C
  C315     1.0000 0.21460  0.18440  0.86470  Biso   1.000  C
  C316     1.0000 0.28540  0.31560  0.86470  Biso   1.000  C
  C317     1.0000 0.28540  0.18440  0.36470  Biso   1.000  C
  C318     1.0000 0.21460  0.31560  0.36470  Biso   1.000  C
  C319     1.0000 0.78540  0.81560  0.13530  Biso   1.000  C
  C320     1.0000 0.71460  0.68440  0.13530  Biso   1.000  C
  C321     1.0000 0.75000  0.25000  0.09930  Biso   1.000  C
  C322     1.0000 0.25000  0.75000  0.40070  Biso   1.000  C
  C323     1.0000 0.25000  0.75000  0.90070  Biso   1.000  C
  C324     1.0000 0.75000  0.25000  0.59930  Biso   1.000  C
  C325     1.0000 0.73810  0.30470  0.11500  Biso   1.000  C
  C326     1.0000 0.76190  0.19530  0.11500  Biso   1.000  C
  C327     1.0000 0.23810  0.69530  0.38500  Biso   1.000  C
  C328     1.0000 0.26190  0.80470  0.38500  Biso   1.000  C
  C329     1.0000 0.26190  0.69530  0.88500  Biso   1.000  C
  C330     1.0000 0.23810  0.80470  0.88500  Biso   1.000  C
  C331     1.0000 0.76190  0.30470  0.61500  Biso   1.000  C
  C332     1.0000 0.73810  0.19530  0.61500  Biso   1.000  C
  C333     1.0000 0.65790  0.30990  0.13340  Biso   1.000  C
  C334     1.0000 0.84210  0.19010  0.13340  Biso   1.000  C
  C335     1.0000 0.15790  0.69010  0.36660  Biso   1.000  C
  C336     1.0000 0.34210  0.80990  0.36660  Biso   1.000  C
  C337     1.0000 0.34210  0.69010  0.86660  Biso   1.000  C
  C338     1.0000 0.15790  0.80990  0.86660  Biso   1.000  C
  C339     1.0000 0.84210  0.30990  0.63340  Biso   1.000  C
  C340     1.0000 0.65790  0.19010  0.63340  Biso   1.000  C
  C341     1.0000 0.59390  0.26030  0.13880  Biso   1.000  C
  C342     1.0000 0.90610  0.23970  0.13880  Biso   1.000  C
  C343     1.0000 0.09390  0.73970  0.36120  Biso   1.000  C
  C344     1.0000 0.40610  0.76030  0.36120  Biso   1.000  C
  C345     1.0000 0.40610  0.73970  0.86120  Biso   1.000  C
  C346     1.0000 0.09390  0.76030  0.86120  Biso   1.000  C
  C347     1.0000 0.90610  0.26030  0.63880  Biso   1.000  C
  C348     1.0000 0.59390  0.23970  0.63880  Biso   1.000  C
  C349     1.0000 0.61060  0.19710  0.12660  Biso   1.000  C
  C350     1.0000 0.88940  0.30290  0.12660  Biso   1.000  C
  C351     1.0000 0.11060  0.80290  0.37340  Biso   1.000  C
  C352     1.0000 0.38940  0.69710  0.37340  Biso   1.000  C
  C353     1.0000 0.38940  0.80290  0.87340  Biso   1.000  C
  C354     1.0000 0.11060  0.69710  0.87340  Biso   1.000  C
  C355     1.0000 0.88940  0.19710  0.62660  Biso   1.000  C
  C356     1.0000 0.61060  0.30290  0.62660  Biso   1.000  C
  C357     1.0000 0.79830  0.30700  0.10460  Biso   1.000  C
  C358     1.0000 0.70170  0.19300  0.10460  Biso   1.000  C
  C359     1.0000 0.29830  0.69300  0.39540  Biso   1.000  C
  C360     1.0000 0.20170  0.80700  0.39540  Biso   1.000  C
  C361     1.0000 0.20170  0.69300  0.89540  Biso   1.000  C
  C362     1.0000 0.29830  0.80700  0.89540  Biso   1.000  C
  C363     1.0000 0.70170  0.30700  0.60460  Biso   1.000  C
  C364     1.0000 0.79830  0.19300  0.60460  Biso   1.000  C
