data_image0
_cell_length_a       24.0967
_cell_length_b       24.0967
_cell_length_c       37.7074
_cell_angle_alpha    90
_cell_angle_beta     90
_cell_angle_gamma    120

_symmetry_space_group_name_H-M    "P 1"
_symmetry_int_tables_number       1

loop_
  _symmetry_equiv_pos_as_xyz
  'x, y, z'

loop_
  _atom_site_label
  _atom_site_occupancy
  _atom_site_fract_x
  _atom_site_fract_y
  _atom_site_fract_z
  _atom_site_thermal_displace_type
  _atom_site_B_iso_or_equiv
  _atom_site_type_symbol
  Co1      1.0000 0.00000  0.00000  0.00000  Biso   1.000  Co
  Co2      1.0000 0.00000  0.00000  0.50000  Biso   1.000  Co
  Co3      1.0000 0.66667  0.33333  0.33333  Biso   1.000  Co
  Co4      1.0000 0.66667  0.33333  0.83333  Biso   1.000  Co
  Co5      1.0000 0.33333  0.66667  0.66667  Biso   1.000  Co
  Co6      1.0000 0.33333  0.66667  0.16667  Biso   1.000  Co
  B1       1.0000 0.00000  0.00000  0.08578  Biso   1.000  B
  B2       1.0000 0.00000  0.00000  0.41422  Biso   1.000  B
  B3       1.0000 0.66667  0.33333  0.41911  Biso   1.000  B
  B4       1.0000 0.66667  0.33333  0.74755  Biso   1.000  B
  B5       1.0000 0.33333  0.66667  0.75245  Biso   1.000  B
  B6       1.0000 0.33333  0.66667  0.08089  Biso   1.000  B
  B7       1.0000 0.00000  0.00000  0.91422  Biso   1.000  B
  B8       1.0000 0.00000  0.00000  0.58578  Biso   1.000  B
  B9       1.0000 0.66667  0.33333  0.24755  Biso   1.000  B
  B10      1.0000 0.66667  0.33333  0.91911  Biso   1.000  B
  B11      1.0000 0.33333  0.66667  0.58089  Biso   1.000  B
  B12      1.0000 0.33333  0.66667  0.25245  Biso   1.000  B
  H1       1.0000 0.00000  0.00000  0.11180  Biso   1.000  H
  H2       1.0000 0.00000  0.00000  0.38820  Biso   1.000  H
  H3       1.0000 0.66667  0.33333  0.44513  Biso   1.000  H
  H4       1.0000 0.66667  0.33333  0.72153  Biso   1.000  H
  H5       1.0000 0.33333  0.66667  0.77847  Biso   1.000  H
  H6       1.0000 0.33333  0.66667  0.05487  Biso   1.000  H
  H7       1.0000 0.00000  0.00000  0.88820  Biso   1.000  H
  H8       1.0000 0.00000  0.00000  0.61180  Biso   1.000  H
  H9       1.0000 0.66667  0.33333  0.22153  Biso   1.000  H
  H10      1.0000 0.66667  0.33333  0.94513  Biso   1.000  H
  H11      1.0000 0.33333  0.66667  0.55487  Biso   1.000  H
  H12      1.0000 0.33333  0.66667  0.27847  Biso   1.000  H
  N1       1.0000 0.92072  0.94882  0.03519  Biso   1.000  N
  N2       1.0000 0.05118  0.97190  0.03519  Biso   1.000  N
  N3       1.0000 0.02810  0.07928  0.03519  Biso   1.000  N
  N4       1.0000 0.94882  0.92072  0.46481  Biso   1.000  N
  N5       1.0000 0.97190  0.05118  0.46481  Biso   1.000  N
  N6       1.0000 0.07928  0.02810  0.46481  Biso   1.000  N
  N7       1.0000 0.58739  0.28215  0.36852  Biso   1.000  N
  N8       1.0000 0.71785  0.30523  0.36852  Biso   1.000  N
  N9       1.0000 0.69477  0.41261  0.36852  Biso   1.000  N
  N10      1.0000 0.61549  0.25405  0.79814  Biso   1.000  N
  N11      1.0000 0.63857  0.38451  0.79814  Biso   1.000  N
  N12      1.0000 0.74595  0.36143  0.79814  Biso   1.000  N
  N13      1.0000 0.25405  0.61549  0.70186  Biso   1.000  N
  N14      1.0000 0.38451  0.63857  0.70186  Biso   1.000  N
  N15      1.0000 0.36143  0.74595  0.70186  Biso   1.000  N
  N16      1.0000 0.28215  0.58739  0.13148  Biso   1.000  N
  N17      1.0000 0.30523  0.71785  0.13148  Biso   1.000  N
  N18      1.0000 0.41261  0.69477  0.13148  Biso   1.000  N
  N19      1.0000 0.07928  0.05118  0.96481  Biso   1.000  N
  N20      1.0000 0.94882  0.02810  0.96481  Biso   1.000  N
  N21      1.0000 0.97190  0.92072  0.96481  Biso   1.000  N
  N22      1.0000 0.05118  0.07928  0.53519  Biso   1.000  N
  N23      1.0000 0.02810  0.94882  0.53519  Biso   1.000  N
  N24      1.0000 0.92072  0.97190  0.53519  Biso   1.000  N
  N25      1.0000 0.74595  0.38451  0.29814  Biso   1.000  N
  N26      1.0000 0.61549  0.36143  0.29814  Biso   1.000  N
  N27      1.0000 0.63857  0.25405  0.29814  Biso   1.000  N
  N28      1.0000 0.71785  0.41261  0.86852  Biso   1.000  N
  N29      1.0000 0.69477  0.28215  0.86852  Biso   1.000  N
  N30      1.0000 0.58739  0.30523  0.86852  Biso   1.000  N
  N31      1.0000 0.41261  0.71785  0.63148  Biso   1.000  N
  N32      1.0000 0.28215  0.69477  0.63148  Biso   1.000  N
  N33      1.0000 0.30523  0.58739  0.63148  Biso   1.000  N
  N34      1.0000 0.38451  0.74595  0.20186  Biso   1.000  N
  N35      1.0000 0.36143  0.61549  0.20186  Biso   1.000  N
  N36      1.0000 0.25405  0.63857  0.20186  Biso   1.000  N
  C1       1.0000 0.85831  0.91113  0.03251  Biso   1.000  C
  C2       1.0000 0.08887  0.94718  0.03251  Biso   1.000  C
  C3       1.0000 0.05282  0.14169  0.03251  Biso   1.000  C
  C4       1.0000 0.91113  0.85831  0.46749  Biso   1.000  C
  C5       1.0000 0.94718  0.08887  0.46749  Biso   1.000  C
  C6       1.0000 0.14169  0.05282  0.46749  Biso   1.000  C
  C7       1.0000 0.52498  0.24446  0.36584  Biso   1.000  C
  C8       1.0000 0.75554  0.28051  0.36584  Biso   1.000  C
  C9       1.0000 0.71949  0.47502  0.36584  Biso   1.000  C
  C10      1.0000 0.57780  0.19164  0.80082  Biso   1.000  C
  C11      1.0000 0.61385  0.42220  0.80082  Biso   1.000  C
  C12      1.0000 0.80836  0.38615  0.80082  Biso   1.000  C
  C13      1.0000 0.19164  0.57780  0.69918  Biso   1.000  C
  C14      1.0000 0.42220  0.61385  0.69918  Biso   1.000  C
  C15      1.0000 0.38615  0.80836  0.69918  Biso   1.000  C
  C16      1.0000 0.24446  0.52498  0.13416  Biso   1.000  C
  C17      1.0000 0.28051  0.75554  0.13416  Biso   1.000  C
  C18      1.0000 0.47502  0.71949  0.13416  Biso   1.000  C
  C19      1.0000 0.14169  0.08887  0.96749  Biso   1.000  C
  C20      1.0000 0.91113  0.05282  0.96749  Biso   1.000  C
  C21      1.0000 0.94718  0.85831  0.96749  Biso   1.000  C
  C22      1.0000 0.08887  0.14169  0.53251  Biso   1.000  C
  C23      1.0000 0.05282  0.91113  0.53251  Biso   1.000  C
  C24      1.0000 0.85831  0.94718  0.53251  Biso   1.000  C
  C25      1.0000 0.80836  0.42220  0.30082  Biso   1.000  C
  C26      1.0000 0.57780  0.38615  0.30082  Biso   1.000  C
  C27      1.0000 0.61385  0.19164  0.30082  Biso   1.000  C
  C28      1.0000 0.75554  0.47502  0.86584  Biso   1.000  C
  C29      1.0000 0.71949  0.24446  0.86584  Biso   1.000  C
  C30      1.0000 0.52498  0.28051  0.86584  Biso   1.000  C
  C31      1.0000 0.47502  0.75554  0.63416  Biso   1.000  C
  C32      1.0000 0.24446  0.71949  0.63416  Biso   1.000  C
  C33      1.0000 0.28051  0.52498  0.63416  Biso   1.000  C
  C34      1.0000 0.42220  0.80836  0.19918  Biso   1.000  C
  C35      1.0000 0.38615  0.57780  0.19918  Biso   1.000  C
  C36      1.0000 0.19164  0.61385  0.19918  Biso   1.000  C
  H13      1.0000 0.83710  0.89640  0.01100  Biso   1.000  H
  H14      1.0000 0.10360  0.94070  0.01100  Biso   1.000  H
  H15      1.0000 0.05930  0.16290  0.01100  Biso   1.000  H
  H16      1.0000 0.89640  0.83710  0.48900  Biso   1.000  H
  H17      1.0000 0.94070  0.10360  0.48900  Biso   1.000  H
  H18      1.0000 0.16290  0.05930  0.48900  Biso   1.000  H
  H19      1.0000 0.50377  0.22973  0.34433  Biso   1.000  H
  H20      1.0000 0.77027  0.27403  0.34433  Biso   1.000  H
  H21      1.0000 0.72597  0.49623  0.34433  Biso   1.000  H
  H22      1.0000 0.56307  0.17043  0.82233  Biso   1.000  H
  H23      1.0000 0.60737  0.43693  0.82233  Biso   1.000  H
  H24      1.0000 0.82957  0.39263  0.82233  Biso   1.000  H
  H25      1.0000 0.17043  0.56307  0.67767  Biso   1.000  H
  H26      1.0000 0.43693  0.60737  0.67767  Biso   1.000  H
  H27      1.0000 0.39263  0.82957  0.67767  Biso   1.000  H
  H28      1.0000 0.22973  0.50377  0.15567  Biso   1.000  H
  H29      1.0000 0.27403  0.77027  0.15567  Biso   1.000  H
  H30      1.0000 0.49623  0.72597  0.15567  Biso   1.000  H
  H31      1.0000 0.16290  0.10360  0.98900  Biso   1.000  H
  H32      1.0000 0.89640  0.05930  0.98900  Biso   1.000  H
  H33      1.0000 0.94070  0.83710  0.98900  Biso   1.000  H
  H34      1.0000 0.10360  0.16290  0.51100  Biso   1.000  H
  H35      1.0000 0.05930  0.89640  0.51100  Biso   1.000  H
  H36      1.0000 0.83710  0.94070  0.51100  Biso   1.000  H
  H37      1.0000 0.82957  0.43693  0.32233  Biso   1.000  H
  H38      1.0000 0.56307  0.39263  0.32233  Biso   1.000  H
  H39      1.0000 0.60737  0.17043  0.32233  Biso   1.000  H
  H40      1.0000 0.77027  0.49623  0.84433  Biso   1.000  H
  H41      1.0000 0.72597  0.22973  0.84433  Biso   1.000  H
  H42      1.0000 0.50377  0.27403  0.84433  Biso   1.000  H
  H43      1.0000 0.49623  0.77027  0.65567  Biso   1.000  H
  H44      1.0000 0.22973  0.72597  0.65567  Biso   1.000  H
  H45      1.0000 0.27403  0.50377  0.65567  Biso   1.000  H
  H46      1.0000 0.43693  0.82957  0.17767  Biso   1.000  H
  H47      1.0000 0.39263  0.56307  0.17767  Biso   1.000  H
  H48      1.0000 0.17043  0.60737  0.17767  Biso   1.000  H
  N37      1.0000 0.93162  0.95853  0.07082  Biso   1.000  N
  N38      1.0000 0.04147  0.97309  0.07082  Biso   1.000  N
  N39      1.0000 0.02691  0.06838  0.07082  Biso   1.000  N
  N40      1.0000 0.95853  0.93162  0.42918  Biso   1.000  N
  N41      1.0000 0.97309  0.04147  0.42918  Biso   1.000  N
  N42      1.0000 0.06838  0.02691  0.42918  Biso   1.000  N
  N43      1.0000 0.59829  0.29186  0.40415  Biso   1.000  N
  N44      1.0000 0.70814  0.30642  0.40415  Biso   1.000  N
  N45      1.0000 0.69358  0.40171  0.40415  Biso   1.000  N
  N46      1.0000 0.62520  0.26495  0.76251  Biso   1.000  N
  N47      1.0000 0.63976  0.37480  0.76251  Biso   1.000  N
  N48      1.0000 0.73505  0.36024  0.76251  Biso   1.000  N
  N49      1.0000 0.26495  0.62520  0.73749  Biso   1.000  N
  N50      1.0000 0.37480  0.63976  0.73749  Biso   1.000  N
  N51      1.0000 0.36024  0.73505  0.73749  Biso   1.000  N
  N52      1.0000 0.29186  0.59829  0.09585  Biso   1.000  N
  N53      1.0000 0.30642  0.70814  0.09585  Biso   1.000  N
  N54      1.0000 0.40171  0.69358  0.09585  Biso   1.000  N
  N55      1.0000 0.06838  0.04147  0.92918  Biso   1.000  N
  N56      1.0000 0.95853  0.02691  0.92918  Biso   1.000  N
  N57      1.0000 0.97309  0.93162  0.92918  Biso   1.000  N
  N58      1.0000 0.04147  0.06838  0.57082  Biso   1.000  N
  N59      1.0000 0.02691  0.95853  0.57082  Biso   1.000  N
  N60      1.0000 0.93162  0.97309  0.57082  Biso   1.000  N
  N61      1.0000 0.73505  0.37480  0.26251  Biso   1.000  N
  N62      1.0000 0.62520  0.36024  0.26251  Biso   1.000  N
  N63      1.0000 0.63976  0.26495  0.26251  Biso   1.000  N
  N64      1.0000 0.70814  0.40171  0.90415  Biso   1.000  N
  N65      1.0000 0.69358  0.29186  0.90415  Biso   1.000  N
  N66      1.0000 0.59829  0.30642  0.90415  Biso   1.000  N
  N67      1.0000 0.40171  0.70814  0.59585  Biso   1.000  N
  N68      1.0000 0.29186  0.69358  0.59585  Biso   1.000  N
  N69      1.0000 0.30642  0.59829  0.59585  Biso   1.000  N
  N70      1.0000 0.37480  0.73505  0.23749  Biso   1.000  N
  N71      1.0000 0.36024  0.62520  0.23749  Biso   1.000  N
  N72      1.0000 0.26495  0.63976  0.23749  Biso   1.000  N
  C37      1.0000 0.87580  0.92714  0.08706  Biso   1.000  C
  C38      1.0000 0.07286  0.94866  0.08706  Biso   1.000  C
  C39      1.0000 0.05134  0.12420  0.08706  Biso   1.000  C
  C40      1.0000 0.92714  0.87580  0.41294  Biso   1.000  C
  C41      1.0000 0.94866  0.07286  0.41294  Biso   1.000  C
  C42      1.0000 0.12420  0.05134  0.41294  Biso   1.000  C
  C43      1.0000 0.54247  0.26047  0.42039  Biso   1.000  C
  C44      1.0000 0.73953  0.28199  0.42039  Biso   1.000  C
  C45      1.0000 0.71801  0.45753  0.42039  Biso   1.000  C
  C46      1.0000 0.59381  0.20913  0.74627  Biso   1.000  C
  C47      1.0000 0.61533  0.40619  0.74627  Biso   1.000  C
  C48      1.0000 0.79087  0.38467  0.74627  Biso   1.000  C
  C49      1.0000 0.20913  0.59381  0.75373  Biso   1.000  C
  C50      1.0000 0.40619  0.61533  0.75373  Biso   1.000  C
  C51      1.0000 0.38467  0.79087  0.75373  Biso   1.000  C
  C52      1.0000 0.26047  0.54247  0.07961  Biso   1.000  C
  C53      1.0000 0.28199  0.73953  0.07961  Biso   1.000  C
  C54      1.0000 0.45753  0.71801  0.07961  Biso   1.000  C
  C55      1.0000 0.12420  0.07286  0.91294  Biso   1.000  C
  C56      1.0000 0.92714  0.05134  0.91294  Biso   1.000  C
  C57      1.0000 0.94866  0.87580  0.91294  Biso   1.000  C
  C58      1.0000 0.07286  0.12420  0.58706  Biso   1.000  C
  C59      1.0000 0.05134  0.92714  0.58706  Biso   1.000  C
  C60      1.0000 0.87580  0.94866  0.58706  Biso   1.000  C
  C61      1.0000 0.79087  0.40619  0.24627  Biso   1.000  C
  C62      1.0000 0.59381  0.38467  0.24627  Biso   1.000  C
  C63      1.0000 0.61533  0.20913  0.24627  Biso   1.000  C
  C64      1.0000 0.73953  0.45753  0.92039  Biso   1.000  C
  C65      1.0000 0.71801  0.26047  0.92039  Biso   1.000  C
  C66      1.0000 0.54247  0.28199  0.92039  Biso   1.000  C
  C67      1.0000 0.45753  0.73953  0.57961  Biso   1.000  C
  C68      1.0000 0.26047  0.71801  0.57961  Biso   1.000  C
  C69      1.0000 0.28199  0.54247  0.57961  Biso   1.000  C
  C70      1.0000 0.40619  0.79087  0.25373  Biso   1.000  C
  C71      1.0000 0.38467  0.59381  0.25373  Biso   1.000  C
  C72      1.0000 0.20913  0.61533  0.25373  Biso   1.000  C
  H49      1.0000 0.87050  0.92690  0.11150  Biso   1.000  H
  H50      1.0000 0.07310  0.94360  0.11150  Biso   1.000  H
  H51      1.0000 0.05640  0.12950  0.11150  Biso   1.000  H
  H52      1.0000 0.92690  0.87050  0.38850  Biso   1.000  H
  H53      1.0000 0.94360  0.07310  0.38850  Biso   1.000  H
  H54      1.0000 0.12950  0.05640  0.38850  Biso   1.000  H
  H55      1.0000 0.53717  0.26023  0.44483  Biso   1.000  H
  H56      1.0000 0.73977  0.27693  0.44483  Biso   1.000  H
  H57      1.0000 0.72307  0.46283  0.44483  Biso   1.000  H
  H58      1.0000 0.59357  0.20383  0.72183  Biso   1.000  H
  H59      1.0000 0.61027  0.40643  0.72183  Biso   1.000  H
  H60      1.0000 0.79617  0.38973  0.72183  Biso   1.000  H
  H61      1.0000 0.20383  0.59357  0.77817  Biso   1.000  H
  H62      1.0000 0.40643  0.61027  0.77817  Biso   1.000  H
  H63      1.0000 0.38973  0.79617  0.77817  Biso   1.000  H
  H64      1.0000 0.26023  0.53717  0.05517  Biso   1.000  H
  H65      1.0000 0.27693  0.73977  0.05517  Biso   1.000  H
  H66      1.0000 0.46283  0.72307  0.05517  Biso   1.000  H
  H67      1.0000 0.12950  0.07310  0.88850  Biso   1.000  H
  H68      1.0000 0.92690  0.05640  0.88850  Biso   1.000  H
  H69      1.0000 0.94360  0.87050  0.88850  Biso   1.000  H
  H70      1.0000 0.07310  0.12950  0.61150  Biso   1.000  H
  H71      1.0000 0.05640  0.92690  0.61150  Biso   1.000  H
  H72      1.0000 0.87050  0.94360  0.61150  Biso   1.000  H
  H73      1.0000 0.79617  0.40643  0.22183  Biso   1.000  H
  H74      1.0000 0.59357  0.38973  0.22183  Biso   1.000  H
  H75      1.0000 0.61027  0.20383  0.22183  Biso   1.000  H
  H76      1.0000 0.73977  0.46283  0.94483  Biso   1.000  H
  H77      1.0000 0.72307  0.26023  0.94483  Biso   1.000  H
  H78      1.0000 0.53717  0.27693  0.94483  Biso   1.000  H
  H79      1.0000 0.46283  0.73977  0.55517  Biso   1.000  H
  H80      1.0000 0.26023  0.72307  0.55517  Biso   1.000  H
  H81      1.0000 0.27693  0.53717  0.55517  Biso   1.000  H
  H82      1.0000 0.40643  0.79617  0.27817  Biso   1.000  H
  H83      1.0000 0.38973  0.59357  0.27817  Biso   1.000  H
  H84      1.0000 0.20383  0.61027  0.27817  Biso   1.000  H
  N73      1.0000 0.82816  0.89597  0.06419  Biso   1.000  N
  N74      1.0000 0.10403  0.93219  0.06419  Biso   1.000  N
  N75      1.0000 0.06781  0.17184  0.06419  Biso   1.000  N
  N76      1.0000 0.89597  0.82816  0.43581  Biso   1.000  N
  N77      1.0000 0.93219  0.10403  0.43581  Biso   1.000  N
  N78      1.0000 0.17184  0.06781  0.43581  Biso   1.000  N
  N79      1.0000 0.49483  0.22930  0.39752  Biso   1.000  N
  N80      1.0000 0.77070  0.26552  0.39752  Biso   1.000  N
  N81      1.0000 0.73448  0.50517  0.39752  Biso   1.000  N
  N82      1.0000 0.56264  0.16149  0.76914  Biso   1.000  N
  N83      1.0000 0.59886  0.43736  0.76914  Biso   1.000  N
  N84      1.0000 0.83851  0.40114  0.76914  Biso   1.000  N
  N85      1.0000 0.16149  0.56264  0.73086  Biso   1.000  N
  N86      1.0000 0.43736  0.59886  0.73086  Biso   1.000  N
  N87      1.0000 0.40114  0.83851  0.73086  Biso   1.000  N
  N88      1.0000 0.22930  0.49483  0.10248  Biso   1.000  N
  N89      1.0000 0.26552  0.77070  0.10248  Biso   1.000  N
  N90      1.0000 0.50517  0.73448  0.10248  Biso   1.000  N
  N91      1.0000 0.17184  0.10403  0.93581  Biso   1.000  N
  N92      1.0000 0.89597  0.06781  0.93581  Biso   1.000  N
  N93      1.0000 0.93219  0.82816  0.93581  Biso   1.000  N
  N94      1.0000 0.10403  0.17184  0.56419  Biso   1.000  N
  N95      1.0000 0.06781  0.89597  0.56419  Biso   1.000  N
  N96      1.0000 0.82816  0.93219  0.56419  Biso   1.000  N
  N97      1.0000 0.83851  0.43736  0.26914  Biso   1.000  N
  N98      1.0000 0.56264  0.40114  0.26914  Biso   1.000  N
  N99      1.0000 0.59886  0.16149  0.26914  Biso   1.000  N
  N100     1.0000 0.77070  0.50517  0.89752  Biso   1.000  N
  N101     1.0000 0.73448  0.22930  0.89752  Biso   1.000  N
  N102     1.0000 0.49483  0.26552  0.89752  Biso   1.000  N
  N103     1.0000 0.50517  0.77070  0.60248  Biso   1.000  N
  N104     1.0000 0.22930  0.73448  0.60248  Biso   1.000  N
  N105     1.0000 0.26552  0.49483  0.60248  Biso   1.000  N
  N106     1.0000 0.43736  0.83851  0.23086  Biso   1.000  N
  N107     1.0000 0.40114  0.56264  0.23086  Biso   1.000  N
  N108     1.0000 0.16149  0.59886  0.23086  Biso   1.000  N
  Cu1      1.0000 0.72915  0.84309  0.07629  Biso   1.000  Cu
  Cu2      1.0000 0.15691  0.88606  0.07629  Biso   1.000  Cu
  Cu3      1.0000 0.11394  0.27085  0.07629  Biso   1.000  Cu
  Cu4      1.0000 0.84309  0.72915  0.42371  Biso   1.000  Cu
  Cu5      1.0000 0.88606  0.15691  0.42371  Biso   1.000  Cu
  Cu6      1.0000 0.27085  0.11394  0.42371  Biso   1.000  Cu
  Cu7      1.0000 0.39581  0.17642  0.40962  Biso   1.000  Cu
  Cu8      1.0000 0.82358  0.21939  0.40962  Biso   1.000  Cu
  Cu9      1.0000 0.78061  0.60419  0.40962  Biso   1.000  Cu
  Cu10     1.0000 0.50976  0.06248  0.75704  Biso   1.000  Cu
  Cu11     1.0000 0.55273  0.49024  0.75704  Biso   1.000  Cu
  Cu12     1.0000 0.93752  0.44727  0.75704  Biso   1.000  Cu
  Cu13     1.0000 0.06248  0.50976  0.74296  Biso   1.000  Cu
  Cu14     1.0000 0.49024  0.55273  0.74296  Biso   1.000  Cu
  Cu15     1.0000 0.44727  0.93752  0.74296  Biso   1.000  Cu
  Cu16     1.0000 0.17642  0.39581  0.09038  Biso   1.000  Cu
  Cu17     1.0000 0.21939  0.82358  0.09038  Biso   1.000  Cu
  Cu18     1.0000 0.60419  0.78061  0.09038  Biso   1.000  Cu
  Cu19     1.0000 0.27085  0.15691  0.92371  Biso   1.000  Cu
  Cu20     1.0000 0.84309  0.11394  0.92371  Biso   1.000  Cu
  Cu21     1.0000 0.88606  0.72915  0.92371  Biso   1.000  Cu
  Cu22     1.0000 0.15691  0.27085  0.57629  Biso   1.000  Cu
  Cu23     1.0000 0.11394  0.84309  0.57629  Biso   1.000  Cu
  Cu24     1.0000 0.72915  0.88606  0.57629  Biso   1.000  Cu
  Cu25     1.0000 0.93752  0.49024  0.25704  Biso   1.000  Cu
  Cu26     1.0000 0.50976  0.44727  0.25704  Biso   1.000  Cu
  Cu27     1.0000 0.55273  0.06248  0.25704  Biso   1.000  Cu
  Cu28     1.0000 0.82358  0.60419  0.90962  Biso   1.000  Cu
  Cu29     1.0000 0.78061  0.17642  0.90962  Biso   1.000  Cu
  Cu30     1.0000 0.39581  0.21939  0.90962  Biso   1.000  Cu
  Cu31     1.0000 0.60419  0.82358  0.59038  Biso   1.000  Cu
  Cu32     1.0000 0.17642  0.78061  0.59038  Biso   1.000  Cu
  Cu33     1.0000 0.21939  0.39581  0.59038  Biso   1.000  Cu
  Cu34     1.0000 0.49024  0.93752  0.24296  Biso   1.000  Cu
  Cu35     1.0000 0.44727  0.50976  0.24296  Biso   1.000  Cu
  Cu36     1.0000 0.06248  0.55273  0.24296  Biso   1.000  Cu
  O1       1.0000 0.70986  0.78153  0.03806  Biso   1.000  O
  O2       1.0000 0.21847  0.92833  0.03806  Biso   1.000  O
  O3       1.0000 0.07167  0.29014  0.03806  Biso   1.000  O
  O4       1.0000 0.78153  0.70986  0.46194  Biso   1.000  O
  O5       1.0000 0.92833  0.21847  0.46194  Biso   1.000  O
  O6       1.0000 0.29014  0.07167  0.46194  Biso   1.000  O
  O7       1.0000 0.37653  0.11486  0.37139  Biso   1.000  O
  O8       1.0000 0.88514  0.26166  0.37139  Biso   1.000  O
  O9       1.0000 0.73834  0.62347  0.37139  Biso   1.000  O
  O10      1.0000 0.44820  0.04319  0.79527  Biso   1.000  O
  O11      1.0000 0.59500  0.55180  0.79527  Biso   1.000  O
  O12      1.0000 0.95681  0.40500  0.79527  Biso   1.000  O
  O13      1.0000 0.04319  0.44820  0.70473  Biso   1.000  O
  O14      1.0000 0.55180  0.59500  0.70473  Biso   1.000  O
  O15      1.0000 0.40500  0.95681  0.70473  Biso   1.000  O
  O16      1.0000 0.11486  0.37653  0.12861  Biso   1.000  O
  O17      1.0000 0.26166  0.88514  0.12861  Biso   1.000  O
  O18      1.0000 0.62347  0.73834  0.12861  Biso   1.000  O
  O19      1.0000 0.29014  0.21847  0.96194  Biso   1.000  O
  O20      1.0000 0.78153  0.07167  0.96194  Biso   1.000  O
  O21      1.0000 0.92833  0.70986  0.96194  Biso   1.000  O
  O22      1.0000 0.21847  0.29014  0.53806  Biso   1.000  O
  O23      1.0000 0.07167  0.78153  0.53806  Biso   1.000  O
  O24      1.0000 0.70986  0.92833  0.53806  Biso   1.000  O
  O25      1.0000 0.95681  0.55180  0.29527  Biso   1.000  O
  O26      1.0000 0.44820  0.40500  0.29527  Biso   1.000  O
  O27      1.0000 0.59500  0.04319  0.29527  Biso   1.000  O
  O28      1.0000 0.88514  0.62347  0.87139  Biso   1.000  O
  O29      1.0000 0.73834  0.11486  0.87139  Biso   1.000  O
  O30      1.0000 0.37653  0.26166  0.87139  Biso   1.000  O
  O31      1.0000 0.62347  0.88514  0.62861  Biso   1.000  O
  O32      1.0000 0.11486  0.73834  0.62861  Biso   1.000  O
  O33      1.0000 0.26166  0.37653  0.62861  Biso   1.000  O
  O34      1.0000 0.55180  0.95681  0.20473  Biso   1.000  O
  O35      1.0000 0.40500  0.44820  0.20473  Biso   1.000  O
  O36      1.0000 0.04319  0.59500  0.20473  Biso   1.000  O
  C73      1.0000 0.65889  0.72746  0.04047  Biso   1.000  C
  C74      1.0000 0.27254  0.93143  0.04047  Biso   1.000  C
  C75      1.0000 0.06857  0.34111  0.04047  Biso   1.000  C
  C76      1.0000 0.72746  0.65889  0.45953  Biso   1.000  C
  C77      1.0000 0.93143  0.27254  0.45953  Biso   1.000  C
  C78      1.0000 0.34111  0.06857  0.45953  Biso   1.000  C
  C79      1.0000 0.32556  0.06079  0.37380  Biso   1.000  C
  C80      1.0000 0.93921  0.26476  0.37380  Biso   1.000  C
  C81      1.0000 0.73524  0.67444  0.37380  Biso   1.000  C
  C82      1.0000 0.39413  0.99222  0.79286  Biso   1.000  C
  C83      1.0000 0.59810  0.60587  0.79286  Biso   1.000  C
  C84      1.0000 0.00778  0.40190  0.79286  Biso   1.000  C
  C85      1.0000 0.99222  0.39413  0.70714  Biso   1.000  C
  C86      1.0000 0.60587  0.59810  0.70714  Biso   1.000  C
  C87      1.0000 0.40190  0.00778  0.70714  Biso   1.000  C
  C88      1.0000 0.06079  0.32556  0.12620  Biso   1.000  C
  C89      1.0000 0.26476  0.93921  0.12620  Biso   1.000  C
  C90      1.0000 0.67444  0.73524  0.12620  Biso   1.000  C
  C91      1.0000 0.34111  0.27254  0.95953  Biso   1.000  C
  C92      1.0000 0.72746  0.06857  0.95953  Biso   1.000  C
  C93      1.0000 0.93143  0.65889  0.95953  Biso   1.000  C
  C94      1.0000 0.27254  0.34111  0.54047  Biso   1.000  C
  C95      1.0000 0.06857  0.72746  0.54047  Biso   1.000  C
  C96      1.0000 0.65889  0.93143  0.54047  Biso   1.000  C
  C97      1.0000 0.00778  0.60587  0.29286  Biso   1.000  C
  C98      1.0000 0.39413  0.40190  0.29286  Biso   1.000  C
  C99      1.0000 0.59810  0.99222  0.29286  Biso   1.000  C
  C100     1.0000 0.93921  0.67444  0.87380  Biso   1.000  C
  C101     1.0000 0.73524  0.06079  0.87380  Biso   1.000  C
  C102     1.0000 0.32556  0.26476  0.87380  Biso   1.000  C
  C103     1.0000 0.67444  0.93921  0.62620  Biso   1.000  C
  C104     1.0000 0.06079  0.73524  0.62620  Biso   1.000  C
  C105     1.0000 0.26476  0.32556  0.62620  Biso   1.000  C
  C106     1.0000 0.60587  0.00778  0.20714  Biso   1.000  C
  C107     1.0000 0.40190  0.39413  0.20714  Biso   1.000  C
  C108     1.0000 0.99222  0.59810  0.20714  Biso   1.000  C
  C109     1.0000 0.66025  0.67241  0.02290  Biso   1.000  C
  C110     1.0000 0.32759  0.98784  0.02290  Biso   1.000  C
  C111     1.0000 0.01216  0.33975  0.02290  Biso   1.000  C
  C112     1.0000 0.67241  0.66025  0.47710  Biso   1.000  C
  C113     1.0000 0.98784  0.32759  0.47710  Biso   1.000  C
  C114     1.0000 0.33975  0.01216  0.47710  Biso   1.000  C
  C115     1.0000 0.32692  0.00574  0.35623  Biso   1.000  C
  C116     1.0000 0.99426  0.32117  0.35623  Biso   1.000  C
  C117     1.0000 0.67883  0.67308  0.35623  Biso   1.000  C
  C118     1.0000 0.33908  0.99358  0.81043  Biso   1.000  C
  C119     1.0000 0.65451  0.66092  0.81043  Biso   1.000  C
  C120     1.0000 0.00642  0.34549  0.81043  Biso   1.000  C
  C121     1.0000 0.99358  0.33908  0.68957  Biso   1.000  C
  C122     1.0000 0.66092  0.65451  0.68957  Biso   1.000  C
  C123     1.0000 0.34549  0.00642  0.68957  Biso   1.000  C
  C124     1.0000 0.00574  0.32692  0.14377  Biso   1.000  C
  C125     1.0000 0.32117  0.99426  0.14377  Biso   1.000  C
  C126     1.0000 0.67308  0.67883  0.14377  Biso   1.000  C
  C127     1.0000 0.33975  0.32759  0.97710  Biso   1.000  C
  C128     1.0000 0.67241  0.01216  0.97710  Biso   1.000  C
  C129     1.0000 0.98784  0.66025  0.97710  Biso   1.000  C
  C130     1.0000 0.32759  0.33975  0.52290  Biso   1.000  C
  C131     1.0000 0.01216  0.67241  0.52290  Biso   1.000  C
  C132     1.0000 0.66025  0.98784  0.52290  Biso   1.000  C
  C133     1.0000 0.00642  0.66092  0.31043  Biso   1.000  C
  C134     1.0000 0.33908  0.34549  0.31043  Biso   1.000  C
  C135     1.0000 0.65451  0.99358  0.31043  Biso   1.000  C
  C136     1.0000 0.99426  0.67308  0.85623  Biso   1.000  C
  C137     1.0000 0.67883  0.00574  0.85623  Biso   1.000  C
  C138     1.0000 0.32692  0.32117  0.85623  Biso   1.000  C
  C139     1.0000 0.67308  0.99426  0.64377  Biso   1.000  C
  C140     1.0000 0.00574  0.67883  0.64377  Biso   1.000  C
  C141     1.0000 0.32117  0.32692  0.64377  Biso   1.000  C
  C142     1.0000 0.66092  0.00642  0.18957  Biso   1.000  C
  C143     1.0000 0.34549  0.33908  0.18957  Biso   1.000  C
  C144     1.0000 0.99358  0.65451  0.18957  Biso   1.000  C
  C145     1.0000 0.71035  0.68311  0.00070  Biso   1.000  C
  C146     1.0000 0.31689  0.02724  0.00070  Biso   1.000  C
  C147     1.0000 0.97276  0.28965  0.00070  Biso   1.000  C
  C148     1.0000 0.68311  0.71035  0.49930  Biso   1.000  C
  C149     1.0000 0.02724  0.31689  0.49930  Biso   1.000  C
  C150     1.0000 0.28965  0.97276  0.49930  Biso   1.000  C
  C151     1.0000 0.37702  0.01644  0.33403  Biso   1.000  C
  C152     1.0000 0.98356  0.36057  0.33403  Biso   1.000  C
  C153     1.0000 0.63943  0.62298  0.33403  Biso   1.000  C
  C154     1.0000 0.34978  0.04368  0.83263  Biso   1.000  C
  C155     1.0000 0.69391  0.65022  0.83263  Biso   1.000  C
  C156     1.0000 0.95632  0.30609  0.83263  Biso   1.000  C
  C157     1.0000 0.04368  0.34978  0.66737  Biso   1.000  C
  C158     1.0000 0.65022  0.69391  0.66737  Biso   1.000  C
  C159     1.0000 0.30609  0.95632  0.66737  Biso   1.000  C
  C160     1.0000 0.01644  0.37702  0.16597  Biso   1.000  C
  C161     1.0000 0.36057  0.98356  0.16597  Biso   1.000  C
  C162     1.0000 0.62298  0.63943  0.16597  Biso   1.000  C
  C163     1.0000 0.28965  0.31689  0.99930  Biso   1.000  C
  C164     1.0000 0.68311  0.97276  0.99930  Biso   1.000  C
  C165     1.0000 0.02724  0.71035  0.99930  Biso   1.000  C
  C166     1.0000 0.31689  0.28965  0.50070  Biso   1.000  C
  C167     1.0000 0.97276  0.68311  0.50070  Biso   1.000  C
  C168     1.0000 0.71035  0.02724  0.50070  Biso   1.000  C
  C169     1.0000 0.95632  0.65022  0.33263  Biso   1.000  C
  C170     1.0000 0.34978  0.30609  0.33263  Biso   1.000  C
  C171     1.0000 0.69391  0.04368  0.33263  Biso   1.000  C
  C172     1.0000 0.98356  0.62298  0.83403  Biso   1.000  C
  C173     1.0000 0.63943  0.01644  0.83403  Biso   1.000  C
  C174     1.0000 0.37702  0.36057  0.83403  Biso   1.000  C
  C175     1.0000 0.62298  0.98356  0.66597  Biso   1.000  C
  C176     1.0000 0.01644  0.63943  0.66597  Biso   1.000  C
  C177     1.0000 0.36057  0.37702  0.66597  Biso   1.000  C
  C178     1.0000 0.65022  0.95632  0.16737  Biso   1.000  C
  C179     1.0000 0.30609  0.34978  0.16737  Biso   1.000  C
  C180     1.0000 0.04368  0.69391  0.16737  Biso   1.000  C
  H85      1.0000 0.74180  0.72480  0.99530  Biso   1.000  H
  H86      1.0000 0.27520  0.01700  0.99530  Biso   1.000  H
  H87      1.0000 0.98300  0.25820  0.99530  Biso   1.000  H
  H88      1.0000 0.72480  0.74180  0.50470  Biso   1.000  H
  H89      1.0000 0.01700  0.27520  0.50470  Biso   1.000  H
  H90      1.0000 0.25820  0.98300  0.50470  Biso   1.000  H
  H91      1.0000 0.40847  0.05813  0.32863  Biso   1.000  H
  H92      1.0000 0.94187  0.35033  0.32863  Biso   1.000  H
  H93      1.0000 0.64967  0.59153  0.32863  Biso   1.000  H
  H94      1.0000 0.39147  0.07513  0.83803  Biso   1.000  H
  H95      1.0000 0.68367  0.60853  0.83803  Biso   1.000  H
  H96      1.0000 0.92487  0.31633  0.83803  Biso   1.000  H
  H97      1.0000 0.07513  0.39147  0.66197  Biso   1.000  H
  H98      1.0000 0.60853  0.68367  0.66197  Biso   1.000  H
  H99      1.0000 0.31633  0.92487  0.66197  Biso   1.000  H
  H100     1.0000 0.05813  0.40847  0.17137  Biso   1.000  H
  H101     1.0000 0.35033  0.94187  0.17137  Biso   1.000  H
  H102     1.0000 0.59153  0.64967  0.17137  Biso   1.000  H
  H103     1.0000 0.25820  0.27520  0.00470  Biso   1.000  H
  H104     1.0000 0.72480  0.98300  0.00470  Biso   1.000  H
  H105     1.0000 0.01700  0.74180  0.00470  Biso   1.000  H
  H106     1.0000 0.27520  0.25820  0.49530  Biso   1.000  H
  H107     1.0000 0.98300  0.72480  0.49530  Biso   1.000  H
  H108     1.0000 0.74180  0.01700  0.49530  Biso   1.000  H
  H109     1.0000 0.92487  0.60853  0.33803  Biso   1.000  H
  H110     1.0000 0.39147  0.31633  0.33803  Biso   1.000  H
  H111     1.0000 0.68367  0.07513  0.33803  Biso   1.000  H
  H112     1.0000 0.94187  0.59153  0.82863  Biso   1.000  H
  H113     1.0000 0.64967  0.05813  0.82863  Biso   1.000  H
  H114     1.0000 0.40847  0.35033  0.82863  Biso   1.000  H
  H115     1.0000 0.59153  0.94187  0.67137  Biso   1.000  H
  H116     1.0000 0.05813  0.64967  0.67137  Biso   1.000  H
  H117     1.0000 0.35033  0.40847  0.67137  Biso   1.000  H
  H118     1.0000 0.60853  0.92487  0.16197  Biso   1.000  H
  H119     1.0000 0.31633  0.39147  0.16197  Biso   1.000  H
  H120     1.0000 0.07513  0.68367  0.16197  Biso   1.000  H
  C181     1.0000 0.71392  0.63169  0.98630  Biso   1.000  C
  C182     1.0000 0.36831  0.08223  0.98630  Biso   1.000  C
  C183     1.0000 0.91777  0.28608  0.98630  Biso   1.000  C
  C184     1.0000 0.63169  0.71392  0.51370  Biso   1.000  C
  C185     1.0000 0.08223  0.36831  0.51370  Biso   1.000  C
  C186     1.0000 0.28608  0.91777  0.51370  Biso   1.000  C
  C187     1.0000 0.38059  0.96502  0.31963  Biso   1.000  C
  C188     1.0000 0.03498  0.41556  0.31963  Biso   1.000  C
  C189     1.0000 0.58444  0.61941  0.31963  Biso   1.000  C
  C190     1.0000 0.29836  0.04725  0.84703  Biso   1.000  C
  C191     1.0000 0.74890  0.70164  0.84703  Biso   1.000  C
  C192     1.0000 0.95275  0.25110  0.84703  Biso   1.000  C
  C193     1.0000 0.04725  0.29836  0.65297  Biso   1.000  C
  C194     1.0000 0.70164  0.74890  0.65297  Biso   1.000  C
  C195     1.0000 0.25110  0.95275  0.65297  Biso   1.000  C
  C196     1.0000 0.96502  0.38059  0.18037  Biso   1.000  C
  C197     1.0000 0.41556  0.03498  0.18037  Biso   1.000  C
  C198     1.0000 0.61941  0.58444  0.18037  Biso   1.000  C
  C199     1.0000 0.28608  0.36831  0.01370  Biso   1.000  C
  C200     1.0000 0.63169  0.91777  0.01370  Biso   1.000  C
  C201     1.0000 0.08223  0.71392  0.01370  Biso   1.000  C
  C202     1.0000 0.36831  0.28608  0.48630  Biso   1.000  C
  C203     1.0000 0.91777  0.63169  0.48630  Biso   1.000  C
  C204     1.0000 0.71392  0.08223  0.48630  Biso   1.000  C
  C205     1.0000 0.95275  0.70164  0.34703  Biso   1.000  C
  C206     1.0000 0.29836  0.25110  0.34703  Biso   1.000  C
  C207     1.0000 0.74890  0.04725  0.34703  Biso   1.000  C
  C208     1.0000 0.03498  0.61941  0.81963  Biso   1.000  C
  C209     1.0000 0.58444  0.96502  0.81963  Biso   1.000  C
  C210     1.0000 0.38059  0.41556  0.81963  Biso   1.000  C
  C211     1.0000 0.61941  0.03498  0.68037  Biso   1.000  C
  C212     1.0000 0.96502  0.58444  0.68037  Biso   1.000  C
  C213     1.0000 0.41556  0.38059  0.68037  Biso   1.000  C
  C214     1.0000 0.70164  0.95275  0.15297  Biso   1.000  C
  C215     1.0000 0.25110  0.29836  0.15297  Biso   1.000  C
  C216     1.0000 0.04725  0.74890  0.15297  Biso   1.000  C
  C217     1.0000 0.66709  0.56993  0.99480  Biso   1.000  C
  C218     1.0000 0.43007  0.09716  0.99480  Biso   1.000  C
  C219     1.0000 0.90284  0.33291  0.99480  Biso   1.000  C
  C220     1.0000 0.56993  0.66709  0.50520  Biso   1.000  C
  C221     1.0000 0.09716  0.43007  0.50520  Biso   1.000  C
  C222     1.0000 0.33291  0.90284  0.50520  Biso   1.000  C
  C223     1.0000 0.33376  0.90326  0.32813  Biso   1.000  C
  C224     1.0000 0.09674  0.43049  0.32813  Biso   1.000  C
  C225     1.0000 0.56951  0.66624  0.32813  Biso   1.000  C
  C226     1.0000 0.23660  0.00042  0.83853  Biso   1.000  C
  C227     1.0000 0.76383  0.76340  0.83853  Biso   1.000  C
  C228     1.0000 0.99958  0.23617  0.83853  Biso   1.000  C
  C229     1.0000 0.00042  0.23660  0.66147  Biso   1.000  C
  C230     1.0000 0.76340  0.76383  0.66147  Biso   1.000  C
  C231     1.0000 0.23617  0.99958  0.66147  Biso   1.000  C
  C232     1.0000 0.90326  0.33376  0.17187  Biso   1.000  C
  C233     1.0000 0.43049  0.09674  0.17187  Biso   1.000  C
  C234     1.0000 0.66624  0.56951  0.17187  Biso   1.000  C
  C235     1.0000 0.33291  0.43007  0.00520  Biso   1.000  C
  C236     1.0000 0.56993  0.90284  0.00520  Biso   1.000  C
  C237     1.0000 0.09716  0.66709  0.00520  Biso   1.000  C
  C238     1.0000 0.43007  0.33291  0.49480  Biso   1.000  C
  C239     1.0000 0.90284  0.56993  0.49480  Biso   1.000  C
  C240     1.0000 0.66709  0.09716  0.49480  Biso   1.000  C
  C241     1.0000 0.99958  0.76340  0.33853  Biso   1.000  C
  C242     1.0000 0.23660  0.23617  0.33853  Biso   1.000  C
  C243     1.0000 0.76383  0.00042  0.33853  Biso   1.000  C
  C244     1.0000 0.09674  0.66624  0.82813  Biso   1.000  C
  C245     1.0000 0.56951  0.90326  0.82813  Biso   1.000  C
  C246     1.0000 0.33376  0.43049  0.82813  Biso   1.000  C
  C247     1.0000 0.66624  0.09674  0.67187  Biso   1.000  C
  C248     1.0000 0.90326  0.56951  0.67187  Biso   1.000  C
  C249     1.0000 0.43049  0.33376  0.67187  Biso   1.000  C
  C250     1.0000 0.76340  0.99958  0.16147  Biso   1.000  C
  C251     1.0000 0.23617  0.23660  0.16147  Biso   1.000  C
  C252     1.0000 0.00042  0.76383  0.16147  Biso   1.000  C
  H121     1.0000 0.66940  0.53560  0.98530  Biso   1.000  H
  H122     1.0000 0.46440  0.13380  0.98530  Biso   1.000  H
  H123     1.0000 0.86620  0.33060  0.98530  Biso   1.000  H
  H124     1.0000 0.53560  0.66940  0.51470  Biso   1.000  H
  H125     1.0000 0.13380  0.46440  0.51470  Biso   1.000  H
  H126     1.0000 0.33060  0.86620  0.51470  Biso   1.000  H
  H127     1.0000 0.33607  0.86893  0.31863  Biso   1.000  H
  H128     1.0000 0.13107  0.46713  0.31863  Biso   1.000  H
  H129     1.0000 0.53287  0.66393  0.31863  Biso   1.000  H
  H130     1.0000 0.20227  0.00273  0.84803  Biso   1.000  H
  H131     1.0000 0.80047  0.79773  0.84803  Biso   1.000  H
  H132     1.0000 0.99727  0.19953  0.84803  Biso   1.000  H
  H133     1.0000 0.00273  0.20227  0.65197  Biso   1.000  H
  H134     1.0000 0.79773  0.80047  0.65197  Biso   1.000  H
  H135     1.0000 0.19953  0.99727  0.65197  Biso   1.000  H
  H136     1.0000 0.86893  0.33607  0.18137  Biso   1.000  H
  H137     1.0000 0.46713  0.13107  0.18137  Biso   1.000  H
  H138     1.0000 0.66393  0.53287  0.18137  Biso   1.000  H
  H139     1.0000 0.33060  0.46440  0.01470  Biso   1.000  H
  H140     1.0000 0.53560  0.86620  0.01470  Biso   1.000  H
  H141     1.0000 0.13380  0.66940  0.01470  Biso   1.000  H
  H142     1.0000 0.46440  0.33060  0.48530  Biso   1.000  H
  H143     1.0000 0.86620  0.53560  0.48530  Biso   1.000  H
  H144     1.0000 0.66940  0.13380  0.48530  Biso   1.000  H
  H145     1.0000 0.99727  0.79773  0.34803  Biso   1.000  H
  H146     1.0000 0.20227  0.19953  0.34803  Biso   1.000  H
  H147     1.0000 0.80047  0.00273  0.34803  Biso   1.000  H
  H148     1.0000 0.13107  0.66393  0.81863  Biso   1.000  H
  H149     1.0000 0.53287  0.86893  0.81863  Biso   1.000  H
  H150     1.0000 0.33607  0.46713  0.81863  Biso   1.000  H
  H151     1.0000 0.66393  0.13107  0.68137  Biso   1.000  H
  H152     1.0000 0.86893  0.53287  0.68137  Biso   1.000  H
  H153     1.0000 0.46713  0.33607  0.68137  Biso   1.000  H
  H154     1.0000 0.79773  0.99727  0.15197  Biso   1.000  H
  H155     1.0000 0.19953  0.20227  0.15197  Biso   1.000  H
  H156     1.0000 0.00273  0.80047  0.15197  Biso   1.000  H
  C253     1.0000 0.61661  0.55797  0.01725  Biso   1.000  C
  C254     1.0000 0.44203  0.05864  0.01725  Biso   1.000  C
  C255     1.0000 0.94136  0.38339  0.01725  Biso   1.000  C
  C256     1.0000 0.55797  0.61661  0.48275  Biso   1.000  C
  C257     1.0000 0.05864  0.44203  0.48275  Biso   1.000  C
  C258     1.0000 0.38339  0.94136  0.48275  Biso   1.000  C
  C259     1.0000 0.28328  0.89130  0.35058  Biso   1.000  C
  C260     1.0000 0.10870  0.39197  0.35058  Biso   1.000  C
  C261     1.0000 0.60803  0.71672  0.35058  Biso   1.000  C
  C262     1.0000 0.22464  0.94994  0.81608  Biso   1.000  C
  C263     1.0000 0.72531  0.77536  0.81608  Biso   1.000  C
  C264     1.0000 0.05006  0.27469  0.81608  Biso   1.000  C
  C265     1.0000 0.94994  0.22464  0.68392  Biso   1.000  C
  C266     1.0000 0.77536  0.72531  0.68392  Biso   1.000  C
  C267     1.0000 0.27469  0.05006  0.68392  Biso   1.000  C
  C268     1.0000 0.89130  0.28328  0.14942  Biso   1.000  C
  C269     1.0000 0.39197  0.10870  0.14942  Biso   1.000  C
  C270     1.0000 0.71672  0.60803  0.14942  Biso   1.000  C
  C271     1.0000 0.38339  0.44203  0.98275  Biso   1.000  C
  C272     1.0000 0.55797  0.94136  0.98275  Biso   1.000  C
  C273     1.0000 0.05864  0.61661  0.98275  Biso   1.000  C
  C274     1.0000 0.44203  0.38339  0.51725  Biso   1.000  C
  C275     1.0000 0.94136  0.55797  0.51725  Biso   1.000  C
  C276     1.0000 0.61661  0.05864  0.51725  Biso   1.000  C
  C277     1.0000 0.05006  0.77536  0.31608  Biso   1.000  C
  C278     1.0000 0.22464  0.27469  0.31608  Biso   1.000  C
  C279     1.0000 0.72531  0.94994  0.31608  Biso   1.000  C
  C280     1.0000 0.10870  0.71672  0.85058  Biso   1.000  C
  C281     1.0000 0.60803  0.89130  0.85058  Biso   1.000  C
  C282     1.0000 0.28328  0.39197  0.85058  Biso   1.000  C
  C283     1.0000 0.71672  0.10870  0.64942  Biso   1.000  C
  C284     1.0000 0.89130  0.60803  0.64942  Biso   1.000  C
  C285     1.0000 0.39197  0.28328  0.64942  Biso   1.000  C
  C286     1.0000 0.77536  0.05006  0.18392  Biso   1.000  C
  C287     1.0000 0.27469  0.22464  0.18392  Biso   1.000  C
  C288     1.0000 0.94994  0.72531  0.18392  Biso   1.000  C
  C289     1.0000 0.61303  0.60988  0.03023  Biso   1.000  C
  C290     1.0000 0.39012  0.00315  0.03023  Biso   1.000  C
  C291     1.0000 0.99685  0.38697  0.03023  Biso   1.000  C
  C292     1.0000 0.60988  0.61303  0.46977  Biso   1.000  C
  C293     1.0000 0.00315  0.39012  0.46977  Biso   1.000  C
  C294     1.0000 0.38697  0.99685  0.46977  Biso   1.000  C
  C295     1.0000 0.27970  0.94321  0.36356  Biso   1.000  C
  C296     1.0000 0.05679  0.33648  0.36356  Biso   1.000  C
  C297     1.0000 0.66352  0.72030  0.36356  Biso   1.000  C
  C298     1.0000 0.27655  0.94636  0.80310  Biso   1.000  C
  C299     1.0000 0.66982  0.72345  0.80310  Biso   1.000  C
  C300     1.0000 0.05364  0.33018  0.80310  Biso   1.000  C
  C301     1.0000 0.94636  0.27655  0.69690  Biso   1.000  C
  C302     1.0000 0.72345  0.66982  0.69690  Biso   1.000  C
  C303     1.0000 0.33018  0.05364  0.69690  Biso   1.000  C
  C304     1.0000 0.94321  0.27970  0.13644  Biso   1.000  C
  C305     1.0000 0.33648  0.05679  0.13644  Biso   1.000  C
  C306     1.0000 0.72030  0.66352  0.13644  Biso   1.000  C
  C307     1.0000 0.38697  0.39012  0.96977  Biso   1.000  C
  C308     1.0000 0.60988  0.99685  0.96977  Biso   1.000  C
  C309     1.0000 0.00315  0.61303  0.96977  Biso   1.000  C
  C310     1.0000 0.39012  0.38697  0.53023  Biso   1.000  C
  C311     1.0000 0.99685  0.60988  0.53023  Biso   1.000  C
  C312     1.0000 0.61303  0.00315  0.53023  Biso   1.000  C
  C313     1.0000 0.05364  0.72345  0.30310  Biso   1.000  C
  C314     1.0000 0.27655  0.33018  0.30310  Biso   1.000  C
  C315     1.0000 0.66982  0.94636  0.30310  Biso   1.000  C
  C316     1.0000 0.05679  0.72030  0.86356  Biso   1.000  C
  C317     1.0000 0.66352  0.94321  0.86356  Biso   1.000  C
  C318     1.0000 0.27970  0.33648  0.86356  Biso   1.000  C
  C319     1.0000 0.72030  0.05679  0.63644  Biso   1.000  C
  C320     1.0000 0.94321  0.66352  0.63644  Biso   1.000  C
  C321     1.0000 0.33648  0.27970  0.63644  Biso   1.000  C
  C322     1.0000 0.72345  0.05364  0.19690  Biso   1.000  C
  C323     1.0000 0.33018  0.27655  0.19690  Biso   1.000  C
  C324     1.0000 0.94636  0.66982  0.19690  Biso   1.000  C
  H157     1.0000 0.57820  0.60270  0.04420  Biso   1.000  H
  H158     1.0000 0.39730  0.97550  0.04420  Biso   1.000  H
  H159     1.0000 0.02450  0.42180  0.04420  Biso   1.000  H
  H160     1.0000 0.60270  0.57820  0.45580  Biso   1.000  H
  H161     1.0000 0.97550  0.39730  0.45580  Biso   1.000  H
  H162     1.0000 0.42180  0.02450  0.45580  Biso   1.000  H
  H163     1.0000 0.24487  0.93603  0.37753  Biso   1.000  H
  H164     1.0000 0.06397  0.30883  0.37753  Biso   1.000  H
  H165     1.0000 0.69117  0.75513  0.37753  Biso   1.000  H
  H166     1.0000 0.26937  0.91153  0.78913  Biso   1.000  H
  H167     1.0000 0.64217  0.73063  0.78913  Biso   1.000  H
  H168     1.0000 0.08847  0.35783  0.78913  Biso   1.000  H
  H169     1.0000 0.91153  0.26937  0.71087  Biso   1.000  H
  H170     1.0000 0.73063  0.64217  0.71087  Biso   1.000  H
  H171     1.0000 0.35783  0.08847  0.71087  Biso   1.000  H
  H172     1.0000 0.93603  0.24487  0.12247  Biso   1.000  H
  H173     1.0000 0.30883  0.06397  0.12247  Biso   1.000  H
  H174     1.0000 0.75513  0.69117  0.12247  Biso   1.000  H
  H175     1.0000 0.42180  0.39730  0.95580  Biso   1.000  H
  H176     1.0000 0.60270  0.02450  0.95580  Biso   1.000  H
  H177     1.0000 0.97550  0.57820  0.95580  Biso   1.000  H
  H178     1.0000 0.39730  0.42180  0.54420  Biso   1.000  H
  H179     1.0000 0.02450  0.60270  0.54420  Biso   1.000  H
  H180     1.0000 0.57820  0.97550  0.54420  Biso   1.000  H
  H181     1.0000 0.08847  0.73063  0.28913  Biso   1.000  H
  H182     1.0000 0.26937  0.35783  0.28913  Biso   1.000  H
  H183     1.0000 0.64217  0.91153  0.28913  Biso   1.000  H
  H184     1.0000 0.06397  0.75513  0.87753  Biso   1.000  H
  H185     1.0000 0.69117  0.93603  0.87753  Biso   1.000  H
  H186     1.0000 0.24487  0.30883  0.87753  Biso   1.000  H
  H187     1.0000 0.75513  0.06397  0.62247  Biso   1.000  H
  H188     1.0000 0.93603  0.69117  0.62247  Biso   1.000  H
  H189     1.0000 0.30883  0.24487  0.62247  Biso   1.000  H
  H190     1.0000 0.73063  0.08847  0.21087  Biso   1.000  H
  H191     1.0000 0.35783  0.26937  0.21087  Biso   1.000  H
  H192     1.0000 0.91153  0.64217  0.21087  Biso   1.000  H
  C325     1.0000 0.56450  0.48908  0.02580  Biso   1.000  C
  C326     1.0000 0.51092  0.07542  0.02580  Biso   1.000  C
  C327     1.0000 0.92458  0.43550  0.02580  Biso   1.000  C
  C328     1.0000 0.48908  0.56450  0.47420  Biso   1.000  C
  C329     1.0000 0.07542  0.51092  0.47420  Biso   1.000  C
  C330     1.0000 0.43550  0.92458  0.47420  Biso   1.000  C
  C331     1.0000 0.23117  0.82241  0.35913  Biso   1.000  C
  C332     1.0000 0.17759  0.40875  0.35913  Biso   1.000  C
  C333     1.0000 0.59125  0.76883  0.35913  Biso   1.000  C
  C334     1.0000 0.15575  0.89783  0.80753  Biso   1.000  C
  C335     1.0000 0.74209  0.84425  0.80753  Biso   1.000  C
  C336     1.0000 0.10217  0.25791  0.80753  Biso   1.000  C
  C337     1.0000 0.89783  0.15575  0.69247  Biso   1.000  C
  C338     1.0000 0.84425  0.74209  0.69247  Biso   1.000  C
  C339     1.0000 0.25791  0.10217  0.69247  Biso   1.000  C
  C340     1.0000 0.82241  0.23117  0.14087  Biso   1.000  C
  C341     1.0000 0.40875  0.17759  0.14087  Biso   1.000  C
  C342     1.0000 0.76883  0.59125  0.14087  Biso   1.000  C
  C343     1.0000 0.43550  0.51092  0.97420  Biso   1.000  C
  C344     1.0000 0.48908  0.92458  0.97420  Biso   1.000  C
  C345     1.0000 0.07542  0.56450  0.97420  Biso   1.000  C
  C346     1.0000 0.51092  0.43550  0.52580  Biso   1.000  C
  C347     1.0000 0.92458  0.48908  0.52580  Biso   1.000  C
  C348     1.0000 0.56450  0.07542  0.52580  Biso   1.000  C
  C349     1.0000 0.10217  0.84425  0.30753  Biso   1.000  C
  C350     1.0000 0.15575  0.25791  0.30753  Biso   1.000  C
  C351     1.0000 0.74209  0.89783  0.30753  Biso   1.000  C
  C352     1.0000 0.17759  0.76883  0.85913  Biso   1.000  C
  C353     1.0000 0.59125  0.82241  0.85913  Biso   1.000  C
  C354     1.0000 0.23117  0.40875  0.85913  Biso   1.000  C
  C355     1.0000 0.76883  0.17759  0.64087  Biso   1.000  C
  C356     1.0000 0.82241  0.59125  0.64087  Biso   1.000  C
  C357     1.0000 0.40875  0.23117  0.64087  Biso   1.000  C
  C358     1.0000 0.84425  0.10217  0.19247  Biso   1.000  C
  C359     1.0000 0.25791  0.15575  0.19247  Biso   1.000  C
  C360     1.0000 0.89783  0.74209  0.19247  Biso   1.000  C
  H193     1.0000 0.55080  0.46450  0.00430  Biso   1.000  H
  H194     1.0000 0.53550  0.08630  0.00430  Biso   1.000  H
  H195     1.0000 0.91370  0.44920  0.00430  Biso   1.000  H
  H196     1.0000 0.46450  0.55080  0.49570  Biso   1.000  H
  H197     1.0000 0.08630  0.53550  0.49570  Biso   1.000  H
  H198     1.0000 0.44920  0.91370  0.49570  Biso   1.000  H
  H199     1.0000 0.21747  0.79783  0.33763  Biso   1.000  H
  H200     1.0000 0.20217  0.41963  0.33763  Biso   1.000  H
  H201     1.0000 0.58037  0.78253  0.33763  Biso   1.000  H
  H202     1.0000 0.13117  0.88413  0.82903  Biso   1.000  H
  H203     1.0000 0.75297  0.86883  0.82903  Biso   1.000  H
  H204     1.0000 0.11587  0.24703  0.82903  Biso   1.000  H
  H205     1.0000 0.88413  0.13117  0.67097  Biso   1.000  H
  H206     1.0000 0.86883  0.75297  0.67097  Biso   1.000  H
  H207     1.0000 0.24703  0.11587  0.67097  Biso   1.000  H
  H208     1.0000 0.79783  0.21747  0.16237  Biso   1.000  H
  H209     1.0000 0.41963  0.20217  0.16237  Biso   1.000  H
  H210     1.0000 0.78253  0.58037  0.16237  Biso   1.000  H
  H211     1.0000 0.44920  0.53550  0.99570  Biso   1.000  H
  H212     1.0000 0.46450  0.91370  0.99570  Biso   1.000  H
  H213     1.0000 0.08630  0.55080  0.99570  Biso   1.000  H
  H214     1.0000 0.53550  0.44920  0.50430  Biso   1.000  H
  H215     1.0000 0.91370  0.46450  0.50430  Biso   1.000  H
  H216     1.0000 0.55080  0.08630  0.50430  Biso   1.000  H
  H217     1.0000 0.11587  0.86883  0.32903  Biso   1.000  H
  H218     1.0000 0.13117  0.24703  0.32903  Biso   1.000  H
  H219     1.0000 0.75297  0.88413  0.32903  Biso   1.000  H
  H220     1.0000 0.20217  0.78253  0.83763  Biso   1.000  H
  H221     1.0000 0.58037  0.79783  0.83763  Biso   1.000  H
  H222     1.0000 0.21747  0.41963  0.83763  Biso   1.000  H
  H223     1.0000 0.78253  0.20217  0.66237  Biso   1.000  H
  H224     1.0000 0.79783  0.58037  0.66237  Biso   1.000  H
  H225     1.0000 0.41963  0.21747  0.66237  Biso   1.000  H
  H226     1.0000 0.86883  0.11587  0.17097  Biso   1.000  H
  H227     1.0000 0.24703  0.13117  0.17097  Biso   1.000  H
  H228     1.0000 0.88413  0.75297  0.17097  Biso   1.000  H
  H229     1.0000 0.52860  0.48940  0.03660  Biso   1.000  H
  H230     1.0000 0.51060  0.03920  0.03660  Biso   1.000  H
  H231     1.0000 0.96080  0.47140  0.03660  Biso   1.000  H
  H232     1.0000 0.48940  0.52860  0.46340  Biso   1.000  H
  H233     1.0000 0.03920  0.51060  0.46340  Biso   1.000  H
  H234     1.0000 0.47140  0.96080  0.46340  Biso   1.000  H
  H235     1.0000 0.19527  0.82273  0.36993  Biso   1.000  H
  H236     1.0000 0.17727  0.37253  0.36993  Biso   1.000  H
  H237     1.0000 0.62747  0.80473  0.36993  Biso   1.000  H
  H238     1.0000 0.15607  0.86193  0.79673  Biso   1.000  H
  H239     1.0000 0.70587  0.84393  0.79673  Biso   1.000  H
  H240     1.0000 0.13807  0.29413  0.79673  Biso   1.000  H
  H241     1.0000 0.86193  0.15607  0.70327  Biso   1.000  H
  H242     1.0000 0.84393  0.70587  0.70327  Biso   1.000  H
  H243     1.0000 0.29413  0.13807  0.70327  Biso   1.000  H
  H244     1.0000 0.82273  0.19527  0.13007  Biso   1.000  H
  H245     1.0000 0.37253  0.17727  0.13007  Biso   1.000  H
  H246     1.0000 0.80473  0.62747  0.13007  Biso   1.000  H
  H247     1.0000 0.47140  0.51060  0.96340  Biso   1.000  H
  H248     1.0000 0.48940  0.96080  0.96340  Biso   1.000  H
  H249     1.0000 0.03920  0.52860  0.96340  Biso   1.000  H
  H250     1.0000 0.51060  0.47140  0.53660  Biso   1.000  H
  H251     1.0000 0.96080  0.48940  0.53660  Biso   1.000  H
  H252     1.0000 0.52860  0.03920  0.53660  Biso   1.000  H
  H253     1.0000 0.13807  0.84393  0.29673  Biso   1.000  H
  H254     1.0000 0.15607  0.29413  0.29673  Biso   1.000  H
  H255     1.0000 0.70587  0.86193  0.29673  Biso   1.000  H
  H256     1.0000 0.17727  0.80473  0.86993  Biso   1.000  H
  H257     1.0000 0.62747  0.82273  0.86993  Biso   1.000  H
  H258     1.0000 0.19527  0.37253  0.86993  Biso   1.000  H
  H259     1.0000 0.80473  0.17727  0.63007  Biso   1.000  H
  H260     1.0000 0.82273  0.62747  0.63007  Biso   1.000  H
  H261     1.0000 0.37253  0.19527  0.63007  Biso   1.000  H
  H262     1.0000 0.84393  0.13807  0.20327  Biso   1.000  H
  H263     1.0000 0.29413  0.15607  0.20327  Biso   1.000  H
  H264     1.0000 0.86193  0.70587  0.20327  Biso   1.000  H
  H265     1.0000 0.58140  0.47020  0.04180  Biso   1.000  H
  H266     1.0000 0.52980  0.11120  0.04180  Biso   1.000  H
  H267     1.0000 0.88880  0.41860  0.04180  Biso   1.000  H
  H268     1.0000 0.47020  0.58140  0.45820  Biso   1.000  H
  H269     1.0000 0.11120  0.52980  0.45820  Biso   1.000  H
  H270     1.0000 0.41860  0.88880  0.45820  Biso   1.000  H
  H271     1.0000 0.24807  0.80353  0.37513  Biso   1.000  H
  H272     1.0000 0.19647  0.44453  0.37513  Biso   1.000  H
  H273     1.0000 0.55547  0.75193  0.37513  Biso   1.000  H
  H274     1.0000 0.13687  0.91473  0.79153  Biso   1.000  H
  H275     1.0000 0.77787  0.86313  0.79153  Biso   1.000  H
  H276     1.0000 0.08527  0.22213  0.79153  Biso   1.000  H
  H277     1.0000 0.91473  0.13687  0.70847  Biso   1.000  H
  H278     1.0000 0.86313  0.77787  0.70847  Biso   1.000  H
  H279     1.0000 0.22213  0.08527  0.70847  Biso   1.000  H
  H280     1.0000 0.80353  0.24807  0.12487  Biso   1.000  H
  H281     1.0000 0.44453  0.19647  0.12487  Biso   1.000  H
  H282     1.0000 0.75193  0.55547  0.12487  Biso   1.000  H
  H283     1.0000 0.41860  0.52980  0.95820  Biso   1.000  H
  H284     1.0000 0.47020  0.88880  0.95820  Biso   1.000  H
  H285     1.0000 0.11120  0.58140  0.95820  Biso   1.000  H
  H286     1.0000 0.52980  0.41860  0.54180  Biso   1.000  H
  H287     1.0000 0.88880  0.47020  0.54180  Biso   1.000  H
  H288     1.0000 0.58140  0.11120  0.54180  Biso   1.000  H
  H289     1.0000 0.08527  0.86313  0.29153  Biso   1.000  H
  H290     1.0000 0.13687  0.22213  0.29153  Biso   1.000  H
  H291     1.0000 0.77787  0.91473  0.29153  Biso   1.000  H
  H292     1.0000 0.19647  0.75193  0.87513  Biso   1.000  H
  H293     1.0000 0.55547  0.80353  0.87513  Biso   1.000  H
  H294     1.0000 0.24807  0.44453  0.87513  Biso   1.000  H
  H295     1.0000 0.75193  0.19647  0.62487  Biso   1.000  H
  H296     1.0000 0.80353  0.55547  0.62487  Biso   1.000  H
  H297     1.0000 0.44453  0.24807  0.62487  Biso   1.000  H
  H298     1.0000 0.86313  0.08527  0.20847  Biso   1.000  H
  H299     1.0000 0.22213  0.13687  0.20847  Biso   1.000  H
  H300     1.0000 0.91473  0.77787  0.20847  Biso   1.000  H
  O37      1.0000 0.60946  0.71648  0.05754  Biso   1.000  O
  O38      1.0000 0.28352  0.89298  0.05754  Biso   1.000  O
  O39      1.0000 0.10702  0.39054  0.05754  Biso   1.000  O
  O40      1.0000 0.71648  0.60946  0.44246  Biso   1.000  O
  O41      1.0000 0.89298  0.28352  0.44246  Biso   1.000  O
  O42      1.0000 0.39054  0.10702  0.44246  Biso   1.000  O
  O43      1.0000 0.27613  0.04981  0.39087  Biso   1.000  O
  O44      1.0000 0.95019  0.22631  0.39087  Biso   1.000  O
  O45      1.0000 0.77369  0.72387  0.39087  Biso   1.000  O
  O46      1.0000 0.38315  0.94279  0.77579  Biso   1.000  O
  O47      1.0000 0.55965  0.61685  0.77579  Biso   1.000  O
  O48      1.0000 0.05721  0.44035  0.77579  Biso   1.000  O
  O49      1.0000 0.94279  0.38315  0.72421  Biso   1.000  O
  O50      1.0000 0.61685  0.55965  0.72421  Biso   1.000  O
  O51      1.0000 0.44035  0.05721  0.72421  Biso   1.000  O
  O52      1.0000 0.04981  0.27613  0.10913  Biso   1.000  O
  O53      1.0000 0.22631  0.95019  0.10913  Biso   1.000  O
  O54      1.0000 0.72387  0.77369  0.10913  Biso   1.000  O
  O55      1.0000 0.39054  0.28352  0.94246  Biso   1.000  O
  O56      1.0000 0.71648  0.10702  0.94246  Biso   1.000  O
  O57      1.0000 0.89298  0.60946  0.94246  Biso   1.000  O
  O58      1.0000 0.28352  0.39054  0.55754  Biso   1.000  O
  O59      1.0000 0.10702  0.71648  0.55754  Biso   1.000  O
  O60      1.0000 0.60946  0.89298  0.55754  Biso   1.000  O
  O61      1.0000 0.05721  0.61685  0.27579  Biso   1.000  O
  O62      1.0000 0.38315  0.44035  0.27579  Biso   1.000  O
  O63      1.0000 0.55965  0.94279  0.27579  Biso   1.000  O
  O64      1.0000 0.95019  0.72387  0.89087  Biso   1.000  O
  O65      1.0000 0.77369  0.04981  0.89087  Biso   1.000  O
  O66      1.0000 0.27613  0.22631  0.89087  Biso   1.000  O
  O67      1.0000 0.72387  0.95019  0.60913  Biso   1.000  O
  O68      1.0000 0.04981  0.77369  0.60913  Biso   1.000  O
  O69      1.0000 0.22631  0.27613  0.60913  Biso   1.000  O
  O70      1.0000 0.61685  0.05721  0.22421  Biso   1.000  O
  O71      1.0000 0.44035  0.38315  0.22421  Biso   1.000  O
  O72      1.0000 0.94279  0.55965  0.22421  Biso   1.000  O
  O73      1.0000 0.76809  0.59472  0.94960  Biso   1.000  O
  O74      1.0000 0.40528  0.17337  0.94960  Biso   1.000  O
  O75      1.0000 0.82663  0.23191  0.94960  Biso   1.000  O
  O76      1.0000 0.59472  0.76809  0.55040  Biso   1.000  O
  O77      1.0000 0.17337  0.40528  0.55040  Biso   1.000  O
  O78      1.0000 0.23191  0.82663  0.55040  Biso   1.000  O
  O79      1.0000 0.43476  0.92805  0.28293  Biso   1.000  O
  O80      1.0000 0.07195  0.50670  0.28293  Biso   1.000  O
  O81      1.0000 0.49330  0.56524  0.28293  Biso   1.000  O
  O82      1.0000 0.26139  0.10142  0.88373  Biso   1.000  O
  O83      1.0000 0.84004  0.73861  0.88373  Biso   1.000  O
  O84      1.0000 0.89858  0.15996  0.88373  Biso   1.000  O
  O85      1.0000 0.10142  0.26139  0.61627  Biso   1.000  O
  O86      1.0000 0.73861  0.84004  0.61627  Biso   1.000  O
  O87      1.0000 0.15996  0.89858  0.61627  Biso   1.000  O
  O88      1.0000 0.92805  0.43476  0.21707  Biso   1.000  O
  O89      1.0000 0.50670  0.07195  0.21707  Biso   1.000  O
  O90      1.0000 0.56524  0.49330  0.21707  Biso   1.000  O
  O91      1.0000 0.23191  0.40528  0.05040  Biso   1.000  O
  O92      1.0000 0.59472  0.82663  0.05040  Biso   1.000  O
  O93      1.0000 0.17337  0.76809  0.05040  Biso   1.000  O
  O94      1.0000 0.40528  0.23191  0.44960  Biso   1.000  O
  O95      1.0000 0.82663  0.59472  0.44960  Biso   1.000  O
  O96      1.0000 0.76809  0.17337  0.44960  Biso   1.000  O
  O97      1.0000 0.89858  0.73861  0.38373  Biso   1.000  O
  O98      1.0000 0.26139  0.15996  0.38373  Biso   1.000  O
  O99      1.0000 0.84004  0.10142  0.38373  Biso   1.000  O
  O100     1.0000 0.07195  0.56524  0.78293  Biso   1.000  O
  O101     1.0000 0.49330  0.92805  0.78293  Biso   1.000  O
  O102     1.0000 0.43476  0.50670  0.78293  Biso   1.000  O
  O103     1.0000 0.56524  0.07195  0.71707  Biso   1.000  O
  O104     1.0000 0.92805  0.49330  0.71707  Biso   1.000  O
  O105     1.0000 0.50670  0.43476  0.71707  Biso   1.000  O
  O106     1.0000 0.73861  0.89858  0.11627  Biso   1.000  O
  O107     1.0000 0.15996  0.26139  0.11627  Biso   1.000  O
  O108     1.0000 0.10142  0.84004  0.11627  Biso   1.000  O
  C361     1.0000 0.76758  0.64349  0.96163  Biso   1.000  C
  C362     1.0000 0.35651  0.12409  0.96163  Biso   1.000  C
  C363     1.0000 0.87591  0.23242  0.96163  Biso   1.000  C
  C364     1.0000 0.64349  0.76758  0.53837  Biso   1.000  C
  C365     1.0000 0.12409  0.35651  0.53837  Biso   1.000  C
  C366     1.0000 0.23242  0.87591  0.53837  Biso   1.000  C
  C367     1.0000 0.43425  0.97682  0.29496  Biso   1.000  C
  C368     1.0000 0.02318  0.45742  0.29496  Biso   1.000  C
  C369     1.0000 0.54258  0.56575  0.29496  Biso   1.000  C
  C370     1.0000 0.31016  0.10091  0.87170  Biso   1.000  C
  C371     1.0000 0.79076  0.68984  0.87170  Biso   1.000  C
  C372     1.0000 0.89909  0.20924  0.87170  Biso   1.000  C
  C373     1.0000 0.10091  0.31016  0.62830  Biso   1.000  C
  C374     1.0000 0.68984  0.79076  0.62830  Biso   1.000  C
  C375     1.0000 0.20924  0.89909  0.62830  Biso   1.000  C
  C376     1.0000 0.97682  0.43425  0.20504  Biso   1.000  C
  C377     1.0000 0.45742  0.02318  0.20504  Biso   1.000  C
  C378     1.0000 0.56575  0.54258  0.20504  Biso   1.000  C
  C379     1.0000 0.23242  0.35651  0.03837  Biso   1.000  C
  C380     1.0000 0.64349  0.87591  0.03837  Biso   1.000  C
  C381     1.0000 0.12409  0.76758  0.03837  Biso   1.000  C
  C382     1.0000 0.35651  0.23242  0.46163  Biso   1.000  C
  C383     1.0000 0.87591  0.64349  0.46163  Biso   1.000  C
  C384     1.0000 0.76758  0.12409  0.46163  Biso   1.000  C
  C385     1.0000 0.89909  0.68984  0.37170  Biso   1.000  C
  C386     1.0000 0.31016  0.20924  0.37170  Biso   1.000  C
  C387     1.0000 0.79076  0.10091  0.37170  Biso   1.000  C
  C388     1.0000 0.02318  0.56575  0.79496  Biso   1.000  C
  C389     1.0000 0.54258  0.97682  0.79496  Biso   1.000  C
  C390     1.0000 0.43425  0.45742  0.79496  Biso   1.000  C
  C391     1.0000 0.56575  0.02318  0.70504  Biso   1.000  C
  C392     1.0000 0.97682  0.54258  0.70504  Biso   1.000  C
  C393     1.0000 0.45742  0.43425  0.70504  Biso   1.000  C
  C394     1.0000 0.68984  0.89909  0.12830  Biso   1.000  C
  C395     1.0000 0.20924  0.31016  0.12830  Biso   1.000  C
  C396     1.0000 0.10091  0.79076  0.12830  Biso   1.000  C
  O109     1.0000 0.80765  0.70071  0.95404  Biso   1.000  O
  O110     1.0000 0.29929  0.10694  0.95404  Biso   1.000  O
  O111     1.0000 0.89306  0.19235  0.95404  Biso   1.000  O
  O112     1.0000 0.70071  0.80765  0.54596  Biso   1.000  O
  O113     1.0000 0.10694  0.29929  0.54596  Biso   1.000  O
  O114     1.0000 0.19235  0.89306  0.54596  Biso   1.000  O
  O115     1.0000 0.47432  0.03404  0.28737  Biso   1.000  O
  O116     1.0000 0.96596  0.44027  0.28737  Biso   1.000  O
  O117     1.0000 0.55973  0.52568  0.28737  Biso   1.000  O
  O118     1.0000 0.36738  0.14098  0.87929  Biso   1.000  O
  O119     1.0000 0.77361  0.63262  0.87929  Biso   1.000  O
  O120     1.0000 0.85902  0.22639  0.87929  Biso   1.000  O
  O121     1.0000 0.14098  0.36738  0.62071  Biso   1.000  O
  O122     1.0000 0.63262  0.77361  0.62071  Biso   1.000  O
  O123     1.0000 0.22639  0.85902  0.62071  Biso   1.000  O
  O124     1.0000 0.03404  0.47432  0.21263  Biso   1.000  O
  O125     1.0000 0.44027  0.96596  0.21263  Biso   1.000  O
  O126     1.0000 0.52568  0.55973  0.21263  Biso   1.000  O
  O127     1.0000 0.19235  0.29929  0.04596  Biso   1.000  O
  O128     1.0000 0.70071  0.89306  0.04596  Biso   1.000  O
  O129     1.0000 0.10694  0.80765  0.04596  Biso   1.000  O
  O130     1.0000 0.29929  0.19235  0.45404  Biso   1.000  O
  O131     1.0000 0.89306  0.70071  0.45404  Biso   1.000  O
  O132     1.0000 0.80765  0.10694  0.45404  Biso   1.000  O
  O133     1.0000 0.85902  0.63262  0.37929  Biso   1.000  O
  O134     1.0000 0.36738  0.22639  0.37929  Biso   1.000  O
  O135     1.0000 0.77361  0.14098  0.37929  Biso   1.000  O
  O136     1.0000 0.96596  0.52568  0.78737  Biso   1.000  O
  O137     1.0000 0.55973  0.03404  0.78737  Biso   1.000  O
  O138     1.0000 0.47432  0.44027  0.78737  Biso   1.000  O
  O139     1.0000 0.52568  0.96596  0.71263  Biso   1.000  O
  O140     1.0000 0.03404  0.55973  0.71263  Biso   1.000  O
  O141     1.0000 0.44027  0.47432  0.71263  Biso   1.000  O
  O142     1.0000 0.63262  0.85902  0.12071  Biso   1.000  O
  O143     1.0000 0.22639  0.36738  0.12071  Biso   1.000  O
  O144     1.0000 0.14098  0.77361  0.12071  Biso   1.000  O
