data_image0
_cell_length_a       24.719
_cell_length_b       24.719
_cell_length_c       24.719
_cell_angle_alpha    90
_cell_angle_beta     90
_cell_angle_gamma    90

_symmetry_space_group_name_H-M    "P 1"
_symmetry_int_tables_number       1

loop_
  _symmetry_equiv_pos_as_xyz
  'x, y, z'

loop_
  _atom_site_label
  _atom_site_occupancy
  _atom_site_fract_x
  _atom_site_fract_y
  _atom_site_fract_z
  _atom_site_thermal_displace_type
  _atom_site_B_iso_or_equiv
  _atom_site_type_symbol
  Br1      1.0000 0.56600  0.51480  0.62020  Biso   1.000  Br
  Br2      1.0000 0.62020  0.56600  0.51480  Biso   1.000  Br
  Br3      1.0000 0.51480  0.62020  0.56600  Biso   1.000  Br
  Br4      1.0000 0.26480  0.81600  0.37980  Biso   1.000  Br
  Br5      1.0000 0.76480  0.43400  0.37020  Biso   1.000  Br
  Br6      1.0000 0.48520  0.31600  0.87020  Biso   1.000  Br
  Br7      1.0000 0.31600  0.87020  0.48520  Biso   1.000  Br
  Br8      1.0000 0.43400  0.37020  0.76480  Biso   1.000  Br
  Br9      1.0000 0.81600  0.37980  0.26480  Biso   1.000  Br
  Br10     1.0000 0.37020  0.76480  0.43400  Biso   1.000  Br
  Br11     1.0000 0.87020  0.48520  0.31600  Biso   1.000  Br
  Br12     1.0000 0.37980  0.26480  0.81600  Biso   1.000  Br
  Br13     1.0000 0.56600  0.01480  0.12020  Biso   1.000  Br
  Br14     1.0000 0.68400  0.73520  0.62020  Biso   1.000  Br
  Br15     1.0000 0.62020  0.06600  0.01480  Biso   1.000  Br
  Br16     1.0000 0.62980  0.68400  0.51480  Biso   1.000  Br
  Br17     1.0000 0.51480  0.12020  0.06600  Biso   1.000  Br
  Br18     1.0000 0.73520  0.62980  0.56600  Biso   1.000  Br
  Br19     1.0000 0.76480  0.93400  0.87020  Biso   1.000  Br
  Br20     1.0000 0.48520  0.81600  0.37020  Biso   1.000  Br
  Br21     1.0000 0.43400  0.87020  0.26480  Biso   1.000  Br
  Br22     1.0000 0.81600  0.87980  0.76480  Biso   1.000  Br
  Br23     1.0000 0.87020  0.98520  0.81600  Biso   1.000  Br
  Br24     1.0000 0.37980  0.76480  0.31600  Biso   1.000  Br
  Br25     1.0000 0.06600  0.51480  0.12020  Biso   1.000  Br
  Br26     1.0000 0.56600  0.73520  0.62980  Biso   1.000  Br
  Br27     1.0000 0.12020  0.56600  0.01480  Biso   1.000  Br
  Br28     1.0000 0.62020  0.68400  0.73520  Biso   1.000  Br
  Br29     1.0000 0.01480  0.62020  0.06600  Biso   1.000  Br
  Br30     1.0000 0.51480  0.62980  0.68400  Biso   1.000  Br
  Br31     1.0000 0.76480  0.81600  0.87980  Biso   1.000  Br
  Br32     1.0000 0.26480  0.43400  0.87020  Biso   1.000  Br
  Br33     1.0000 0.81600  0.87020  0.98520  Biso   1.000  Br
  Br34     1.0000 0.31600  0.37980  0.76480  Biso   1.000  Br
  Br35     1.0000 0.87020  0.76480  0.93400  Biso   1.000  Br
  Br36     1.0000 0.37020  0.48520  0.81600  Biso   1.000  Br
  Br37     1.0000 0.06600  0.01480  0.62020  Biso   1.000  Br
  Br38     1.0000 0.68400  0.51480  0.62980  Biso   1.000  Br
  Br39     1.0000 0.12020  0.06600  0.51480  Biso   1.000  Br
  Br40     1.0000 0.62980  0.56600  0.73520  Biso   1.000  Br
  Br41     1.0000 0.01480  0.12020  0.56600  Biso   1.000  Br
  Br42     1.0000 0.73520  0.62020  0.68400  Biso   1.000  Br
  Br43     1.0000 0.76480  0.31600  0.37980  Biso   1.000  Br
  Br44     1.0000 0.98520  0.81600  0.87020  Biso   1.000  Br
  Br45     1.0000 0.81600  0.37020  0.48520  Biso   1.000  Br
  Br46     1.0000 0.93400  0.87020  0.76480  Biso   1.000  Br
  Br47     1.0000 0.87020  0.26480  0.43400  Biso   1.000  Br
  Br48     1.0000 0.87980  0.76480  0.81600  Biso   1.000  Br
  Br49     1.0000 0.68400  0.23520  0.12020  Biso   1.000  Br
  Br50     1.0000 0.18400  0.01480  0.62980  Biso   1.000  Br
  Br51     1.0000 0.06600  0.73520  0.12980  Biso   1.000  Br
  Br52     1.0000 0.12020  0.68400  0.23520  Biso   1.000  Br
  Br53     1.0000 0.62980  0.18400  0.01480  Biso   1.000  Br
  Br54     1.0000 0.12980  0.06600  0.73520  Biso   1.000  Br
  Br55     1.0000 0.23520  0.12020  0.68400  Biso   1.000  Br
  Br56     1.0000 0.01480  0.62980  0.18400  Biso   1.000  Br
  Br57     1.0000 0.73520  0.12980  0.06600  Biso   1.000  Br
  Br58     1.0000 0.98520  0.93400  0.87980  Biso   1.000  Br
  Br59     1.0000 0.93400  0.87980  0.98520  Biso   1.000  Br
  Br60     1.0000 0.87980  0.98520  0.93400  Biso   1.000  Br
  Br61     1.0000 0.18400  0.51480  0.12980  Biso   1.000  Br
  Br62     1.0000 0.06600  0.23520  0.62980  Biso   1.000  Br
  Br63     1.0000 0.12020  0.18400  0.73520  Biso   1.000  Br
  Br64     1.0000 0.12980  0.56600  0.23520  Biso   1.000  Br
  Br65     1.0000 0.23520  0.62020  0.18400  Biso   1.000  Br
  Br66     1.0000 0.01480  0.12980  0.68400  Biso   1.000  Br
  Br67     1.0000 0.26480  0.31600  0.87980  Biso   1.000  Br
  Br68     1.0000 0.98520  0.43400  0.37980  Biso   1.000  Br
  Br69     1.0000 0.31600  0.37020  0.98520  Biso   1.000  Br
  Br70     1.0000 0.93400  0.37980  0.48520  Biso   1.000  Br
  Br71     1.0000 0.37020  0.26480  0.93400  Biso   1.000  Br
  Br72     1.0000 0.87980  0.48520  0.43400  Biso   1.000  Br
  Br73     1.0000 0.18400  0.23520  0.62020  Biso   1.000  Br
  Br74     1.0000 0.68400  0.01480  0.12980  Biso   1.000  Br
  Br75     1.0000 0.12980  0.18400  0.51480  Biso   1.000  Br
  Br76     1.0000 0.62980  0.06600  0.23520  Biso   1.000  Br
  Br77     1.0000 0.73520  0.12020  0.18400  Biso   1.000  Br
  Br78     1.0000 0.23520  0.12980  0.56600  Biso   1.000  Br
  Br79     1.0000 0.48520  0.93400  0.37980  Biso   1.000  Br
  Br80     1.0000 0.98520  0.31600  0.37020  Biso   1.000  Br
  Br81     1.0000 0.93400  0.37020  0.26480  Biso   1.000  Br
  Br82     1.0000 0.43400  0.87980  0.48520  Biso   1.000  Br
  Br83     1.0000 0.87980  0.26480  0.31600  Biso   1.000  Br
  Br84     1.0000 0.37980  0.98520  0.43400  Biso   1.000  Br
  Br85     1.0000 0.18400  0.73520  0.12020  Biso   1.000  Br
  Br86     1.0000 0.56600  0.23520  0.12980  Biso   1.000  Br
  Br87     1.0000 0.62020  0.18400  0.23520  Biso   1.000  Br
  Br88     1.0000 0.12980  0.68400  0.01480  Biso   1.000  Br
  Br89     1.0000 0.51480  0.12980  0.18400  Biso   1.000  Br
  Br90     1.0000 0.23520  0.62980  0.06600  Biso   1.000  Br
  Br91     1.0000 0.48520  0.43400  0.87980  Biso   1.000  Br
  Br92     1.0000 0.26480  0.93400  0.37020  Biso   1.000  Br
  Br93     1.0000 0.43400  0.37980  0.98520  Biso   1.000  Br
  Br94     1.0000 0.31600  0.87980  0.26480  Biso   1.000  Br
  Br95     1.0000 0.37020  0.98520  0.31600  Biso   1.000  Br
  Br96     1.0000 0.37980  0.48520  0.93400  Biso   1.000  Br
  Br97     1.0000 0.43400  0.48520  0.37980  Biso   1.000  Br
  Br98     1.0000 0.37980  0.43400  0.48520  Biso   1.000  Br
  Br99     1.0000 0.48520  0.37980  0.43400  Biso   1.000  Br
  Br100    1.0000 0.23520  0.68400  0.62020  Biso   1.000  Br
  Br101    1.0000 0.73520  0.56600  0.12980  Biso   1.000  Br
  Br102    1.0000 0.51480  0.18400  0.62980  Biso   1.000  Br
  Br103    1.0000 0.18400  0.62980  0.51480  Biso   1.000  Br
  Br104    1.0000 0.56600  0.12980  0.73520  Biso   1.000  Br
  Br105    1.0000 0.68400  0.62020  0.23520  Biso   1.000  Br
  Br106    1.0000 0.12980  0.73520  0.56600  Biso   1.000  Br
  Br107    1.0000 0.62980  0.51480  0.18400  Biso   1.000  Br
  Br108    1.0000 0.62020  0.23520  0.68400  Biso   1.000  Br
  Br109    1.0000 0.43400  0.98520  0.87980  Biso   1.000  Br
  Br110    1.0000 0.81600  0.76480  0.37980  Biso   1.000  Br
  Br111    1.0000 0.37980  0.93400  0.98520  Biso   1.000  Br
  Br112    1.0000 0.87020  0.81600  0.48520  Biso   1.000  Br
  Br113    1.0000 0.48520  0.87980  0.93400  Biso   1.000  Br
  Br114    1.0000 0.76480  0.87020  0.43400  Biso   1.000  Br
  Br115    1.0000 0.73520  0.06600  0.62980  Biso   1.000  Br
  Br116    1.0000 0.51480  0.68400  0.12980  Biso   1.000  Br
  Br117    1.0000 0.56600  0.62980  0.23520  Biso   1.000  Br
  Br118    1.0000 0.68400  0.12020  0.73520  Biso   1.000  Br
  Br119    1.0000 0.62980  0.01480  0.68400  Biso   1.000  Br
  Br120    1.0000 0.62020  0.73520  0.18400  Biso   1.000  Br
  Br121    1.0000 0.93400  0.48520  0.87980  Biso   1.000  Br
  Br122    1.0000 0.43400  0.76480  0.87020  Biso   1.000  Br
  Br123    1.0000 0.87980  0.43400  0.98520  Biso   1.000  Br
  Br124    1.0000 0.37980  0.81600  0.76480  Biso   1.000  Br
  Br125    1.0000 0.98520  0.37980  0.93400  Biso   1.000  Br
  Br126    1.0000 0.48520  0.87020  0.81600  Biso   1.000  Br
  Br127    1.0000 0.73520  0.68400  0.12020  Biso   1.000  Br
  Br128    1.0000 0.23520  0.56600  0.62980  Biso   1.000  Br
  Br129    1.0000 0.68400  0.62980  0.01480  Biso   1.000  Br
  Br130    1.0000 0.18400  0.62020  0.73520  Biso   1.000  Br
  Br131    1.0000 0.62980  0.73520  0.06600  Biso   1.000  Br
  Br132    1.0000 0.12980  0.51480  0.68400  Biso   1.000  Br
  Br133    1.0000 0.93400  0.98520  0.37980  Biso   1.000  Br
  Br134    1.0000 0.81600  0.48520  0.87020  Biso   1.000  Br
  Br135    1.0000 0.87980  0.93400  0.48520  Biso   1.000  Br
  Br136    1.0000 0.87020  0.43400  0.76480  Biso   1.000  Br
  Br137    1.0000 0.98520  0.87980  0.43400  Biso   1.000  Br
  Br138    1.0000 0.76480  0.37980  0.81600  Biso   1.000  Br
  Br139    1.0000 0.73520  0.18400  0.62020  Biso   1.000  Br
  Br140    1.0000 0.01480  0.68400  0.62980  Biso   1.000  Br
  Br141    1.0000 0.68400  0.12980  0.51480  Biso   1.000  Br
  Br142    1.0000 0.06600  0.62980  0.73520  Biso   1.000  Br
  Br143    1.0000 0.62980  0.23520  0.56600  Biso   1.000  Br
  Br144    1.0000 0.12020  0.73520  0.68400  Biso   1.000  Br
  Br145    1.0000 0.81600  0.26480  0.87980  Biso   1.000  Br
  Br146    1.0000 0.31600  0.98520  0.87020  Biso   1.000  Br
  Br147    1.0000 0.93400  0.76480  0.37020  Biso   1.000  Br
  Br148    1.0000 0.87980  0.81600  0.26480  Biso   1.000  Br
  Br149    1.0000 0.87020  0.31600  0.98520  Biso   1.000  Br
  Br150    1.0000 0.37020  0.93400  0.76480  Biso   1.000  Br
  Br151    1.0000 0.26480  0.87980  0.81600  Biso   1.000  Br
  Br152    1.0000 0.98520  0.87020  0.31600  Biso   1.000  Br
  Br153    1.0000 0.76480  0.37020  0.93400  Biso   1.000  Br
  Br154    1.0000 0.01480  0.06600  0.12020  Biso   1.000  Br
  Br155    1.0000 0.06600  0.12020  0.01480  Biso   1.000  Br
  Br156    1.0000 0.12020  0.01480  0.06600  Biso   1.000  Br
  Br157    1.0000 0.31600  0.48520  0.37020  Biso   1.000  Br
  Br158    1.0000 0.93400  0.26480  0.87020  Biso   1.000  Br
  Br159    1.0000 0.87980  0.31600  0.76480  Biso   1.000  Br
  Br160    1.0000 0.37020  0.43400  0.26480  Biso   1.000  Br
  Br161    1.0000 0.26480  0.37980  0.31600  Biso   1.000  Br
  Br162    1.0000 0.98520  0.37020  0.81600  Biso   1.000  Br
  Br163    1.0000 0.23520  0.18400  0.12020  Biso   1.000  Br
  Br164    1.0000 0.01480  0.56600  0.62020  Biso   1.000  Br
  Br165    1.0000 0.18400  0.12980  0.01480  Biso   1.000  Br
  Br166    1.0000 0.06600  0.62020  0.51480  Biso   1.000  Br
  Br167    1.0000 0.12980  0.23520  0.06600  Biso   1.000  Br
  Br168    1.0000 0.12020  0.51480  0.56600  Biso   1.000  Br
  Br169    1.0000 0.31600  0.26480  0.37980  Biso   1.000  Br
  Br170    1.0000 0.81600  0.98520  0.37020  Biso   1.000  Br
  Br171    1.0000 0.37020  0.31600  0.48520  Biso   1.000  Br
  Br172    1.0000 0.87020  0.93400  0.26480  Biso   1.000  Br
  Br173    1.0000 0.76480  0.87980  0.31600  Biso   1.000  Br
  Br174    1.0000 0.26480  0.37020  0.43400  Biso   1.000  Br
  Br175    1.0000 0.51480  0.06600  0.62020  Biso   1.000  Br
  Br176    1.0000 0.01480  0.18400  0.12980  Biso   1.000  Br
  Br177    1.0000 0.06600  0.12980  0.23520  Biso   1.000  Br
  Br178    1.0000 0.56600  0.12020  0.51480  Biso   1.000  Br
  Br179    1.0000 0.12020  0.23520  0.18400  Biso   1.000  Br
  Br180    1.0000 0.62020  0.01480  0.56600  Biso   1.000  Br
  Br181    1.0000 0.31600  0.76480  0.87980  Biso   1.000  Br
  Br182    1.0000 0.43400  0.26480  0.37020  Biso   1.000  Br
  Br183    1.0000 0.37980  0.31600  0.26480  Biso   1.000  Br
  Br184    1.0000 0.37020  0.81600  0.98520  Biso   1.000  Br
  Br185    1.0000 0.48520  0.37020  0.31600  Biso   1.000  Br
  Br186    1.0000 0.26480  0.87020  0.93400  Biso   1.000  Br
  Br187    1.0000 0.51480  0.56600  0.12020  Biso   1.000  Br
  Br188    1.0000 0.23520  0.06600  0.12980  Biso   1.000  Br
  Br189    1.0000 0.56600  0.62020  0.01480  Biso   1.000  Br
  Br190    1.0000 0.18400  0.12020  0.23520  Biso   1.000  Br
  Br191    1.0000 0.12980  0.01480  0.18400  Biso   1.000  Br
  Br192    1.0000 0.62020  0.51480  0.06600  Biso   1.000  Br
  Cu1      1.0000 0.50000  0.44350  0.69350  Biso   1.000  Cu
  Cu2      1.0000 0.69350  0.50000  0.44350  Biso   1.000  Cu
  Cu3      1.0000 0.44350  0.69350  0.50000  Biso   1.000  Cu
  Cu4      1.0000 0.19350  0.75000  0.30650  Biso   1.000  Cu
  Cu5      1.0000 0.55650  0.25000  0.94350  Biso   1.000  Cu
  Cu6      1.0000 0.25000  0.94350  0.55650  Biso   1.000  Cu
  Cu7      1.0000 0.75000  0.30650  0.19350  Biso   1.000  Cu
  Cu8      1.0000 0.94350  0.55650  0.25000  Biso   1.000  Cu
  Cu9      1.0000 0.30650  0.19350  0.75000  Biso   1.000  Cu
  Cu10     1.0000 0.50000  0.94350  0.19350  Biso   1.000  Cu
  Cu11     1.0000 0.75000  0.80650  0.69350  Biso   1.000  Cu
  Cu12     1.0000 0.69350  0.00000  0.94350  Biso   1.000  Cu
  Cu13     1.0000 0.55650  0.75000  0.44350  Biso   1.000  Cu
  Cu14     1.0000 0.44350  0.19350  0.00000  Biso   1.000  Cu
  Cu15     1.0000 0.80650  0.55650  0.50000  Biso   1.000  Cu
  Cu16     1.0000 0.94350  0.05650  0.75000  Biso   1.000  Cu
  Cu17     1.0000 0.30650  0.69350  0.25000  Biso   1.000  Cu
  Cu18     1.0000 0.00000  0.44350  0.19350  Biso   1.000  Cu
  Cu19     1.0000 0.50000  0.80650  0.55650  Biso   1.000  Cu
  Cu20     1.0000 0.19350  0.50000  0.94350  Biso   1.000  Cu
  Cu21     1.0000 0.69350  0.75000  0.80650  Biso   1.000  Cu
  Cu22     1.0000 0.94350  0.69350  0.00000  Biso   1.000  Cu
  Cu23     1.0000 0.44350  0.55650  0.75000  Biso   1.000  Cu
  Cu24     1.0000 0.75000  0.94350  0.05650  Biso   1.000  Cu
  Cu25     1.0000 0.25000  0.30650  0.69350  Biso   1.000  Cu
  Cu26     1.0000 0.00000  0.94350  0.69350  Biso   1.000  Cu
  Cu27     1.0000 0.75000  0.44350  0.55650  Biso   1.000  Cu
  Cu28     1.0000 0.19350  0.00000  0.44350  Biso   1.000  Cu
  Cu29     1.0000 0.55650  0.50000  0.80650  Biso   1.000  Cu
  Cu30     1.0000 0.94350  0.19350  0.50000  Biso   1.000  Cu
  Cu31     1.0000 0.80650  0.69350  0.75000  Biso   1.000  Cu
  Cu32     1.0000 0.69350  0.25000  0.30650  Biso   1.000  Cu
  Cu33     1.0000 0.05650  0.75000  0.94350  Biso   1.000  Cu
  Cu34     1.0000 0.00000  0.80650  0.05650  Biso   1.000  Cu
  Cu35     1.0000 0.05650  0.00000  0.80650  Biso   1.000  Cu
  Cu36     1.0000 0.80650  0.05650  0.00000  Biso   1.000  Cu
  Cu37     1.0000 0.25000  0.44350  0.05650  Biso   1.000  Cu
  Cu38     1.0000 0.00000  0.30650  0.55650  Biso   1.000  Cu
  Cu39     1.0000 0.19350  0.25000  0.80650  Biso   1.000  Cu
  Cu40     1.0000 0.05650  0.50000  0.30650  Biso   1.000  Cu
  Cu41     1.0000 0.05650  0.25000  0.44350  Biso   1.000  Cu
  Cu42     1.0000 0.55650  0.00000  0.30650  Biso   1.000  Cu
  Cu43     1.0000 0.80650  0.19350  0.25000  Biso   1.000  Cu
  Cu44     1.0000 0.30650  0.05650  0.50000  Biso   1.000  Cu
  Cu45     1.0000 0.25000  0.80650  0.19350  Biso   1.000  Cu
  Cu46     1.0000 0.50000  0.30650  0.05650  Biso   1.000  Cu
  Cu47     1.0000 0.44350  0.05650  0.25000  Biso   1.000  Cu
  Cu48     1.0000 0.30650  0.55650  0.00000  Biso   1.000  Cu
  Cu49     1.0000 0.50000  0.55650  0.30650  Biso   1.000  Cu
  Cu50     1.0000 0.30650  0.50000  0.55650  Biso   1.000  Cu
  Cu51     1.0000 0.55650  0.30650  0.50000  Biso   1.000  Cu
  Cu52     1.0000 0.30650  0.75000  0.69350  Biso   1.000  Cu
  Cu53     1.0000 0.80650  0.50000  0.05650  Biso   1.000  Cu
  Cu54     1.0000 0.44350  0.25000  0.55650  Biso   1.000  Cu
  Cu55     1.0000 0.25000  0.55650  0.44350  Biso   1.000  Cu
  Cu56     1.0000 0.50000  0.05650  0.80650  Biso   1.000  Cu
  Cu57     1.0000 0.75000  0.69350  0.30650  Biso   1.000  Cu
  Cu58     1.0000 0.05650  0.80650  0.50000  Biso   1.000  Cu
  Cu59     1.0000 0.55650  0.44350  0.25000  Biso   1.000  Cu
  Cu60     1.0000 0.69350  0.30650  0.75000  Biso   1.000  Cu
  Cu61     1.0000 0.30650  0.00000  0.05650  Biso   1.000  Cu
  Cu62     1.0000 0.94350  0.75000  0.55650  Biso   1.000  Cu
  Cu63     1.0000 0.55650  0.80650  0.00000  Biso   1.000  Cu
  Cu64     1.0000 0.69350  0.94350  0.50000  Biso   1.000  Cu
  Cu65     1.0000 0.80650  0.00000  0.55650  Biso   1.000  Cu
  Cu66     1.0000 0.44350  0.75000  0.05650  Biso   1.000  Cu
  Cu67     1.0000 0.75000  0.19350  0.80650  Biso   1.000  Cu
  Cu68     1.0000 0.55650  0.94350  0.75000  Biso   1.000  Cu
  Cu69     1.0000 0.69350  0.80650  0.25000  Biso   1.000  Cu
  Cu70     1.0000 0.00000  0.55650  0.80650  Biso   1.000  Cu
  Cu71     1.0000 0.50000  0.69350  0.94350  Biso   1.000  Cu
  Cu72     1.0000 0.05650  0.30650  0.00000  Biso   1.000  Cu
  Cu73     1.0000 0.80650  0.75000  0.19350  Biso   1.000  Cu
  Cu74     1.0000 0.75000  0.55650  0.94350  Biso   1.000  Cu
  Cu75     1.0000 0.25000  0.69350  0.80650  Biso   1.000  Cu
  Cu76     1.0000 0.05650  0.44350  0.75000  Biso   1.000  Cu
  Cu77     1.0000 0.00000  0.05650  0.30650  Biso   1.000  Cu
  Cu78     1.0000 0.94350  0.50000  0.69350  Biso   1.000  Cu
  Cu79     1.0000 0.80650  0.25000  0.69350  Biso   1.000  Cu
  Cu80     1.0000 0.75000  0.05650  0.44350  Biso   1.000  Cu
  Cu81     1.0000 0.19350  0.80650  0.75000  Biso   1.000  Cu
  Cu82     1.0000 0.25000  0.05650  0.94350  Biso   1.000  Cu
  Cu83     1.0000 0.00000  0.69350  0.44350  Biso   1.000  Cu
  Cu84     1.0000 0.94350  0.25000  0.05650  Biso   1.000  Cu
  Cu85     1.0000 0.44350  0.00000  0.69350  Biso   1.000  Cu
  Cu86     1.0000 0.05650  0.94350  0.25000  Biso   1.000  Cu
  Cu87     1.0000 0.69350  0.44350  0.00000  Biso   1.000  Cu
  Cu88     1.0000 0.94350  0.00000  0.19350  Biso   1.000  Cu
  Cu89     1.0000 0.00000  0.19350  0.94350  Biso   1.000  Cu
  Cu90     1.0000 0.19350  0.94350  0.00000  Biso   1.000  Cu
  Cu91     1.0000 0.44350  0.50000  0.19350  Biso   1.000  Cu
  Cu92     1.0000 0.19350  0.30650  0.25000  Biso   1.000  Cu
  Cu93     1.0000 0.30650  0.25000  0.19350  Biso   1.000  Cu
  Cu94     1.0000 0.19350  0.44350  0.50000  Biso   1.000  Cu
  Cu95     1.0000 0.25000  0.19350  0.30650  Biso   1.000  Cu
  Cu96     1.0000 0.50000  0.19350  0.44350  Biso   1.000  Cu
  O1       1.0000 0.50000  0.50000  0.75000  Biso   1.000  O
  O2       1.0000 0.75000  0.50000  0.50000  Biso   1.000  O
  O3       1.0000 0.50000  0.75000  0.50000  Biso   1.000  O
  O4       1.0000 0.25000  0.75000  0.25000  Biso   1.000  O
  O5       1.0000 0.50000  0.25000  0.00000  Biso   1.000  O
  O6       1.0000 0.25000  0.00000  0.50000  Biso   1.000  O
  O7       1.0000 0.75000  0.25000  0.25000  Biso   1.000  O
  O8       1.0000 0.00000  0.50000  0.25000  Biso   1.000  O
  O9       1.0000 0.25000  0.25000  0.75000  Biso   1.000  O
  O10      1.0000 0.50000  0.00000  0.25000  Biso   1.000  O
  O11      1.0000 0.75000  0.75000  0.75000  Biso   1.000  O
  O12      1.0000 0.75000  0.00000  0.00000  Biso   1.000  O
  O13      1.0000 0.00000  0.00000  0.75000  Biso   1.000  O
  O14      1.0000 0.25000  0.50000  0.00000  Biso   1.000  O
  O15      1.0000 0.00000  0.75000  0.00000  Biso   1.000  O
  O16      1.0000 0.00000  0.25000  0.50000  Biso   1.000  O
  O17      1.0000 0.50000  0.50000  0.25000  Biso   1.000  O
  O18      1.0000 0.25000  0.50000  0.50000  Biso   1.000  O
  O19      1.0000 0.50000  0.25000  0.50000  Biso   1.000  O
  O20      1.0000 0.25000  0.75000  0.75000  Biso   1.000  O
  O21      1.0000 0.75000  0.50000  0.00000  Biso   1.000  O
  O22      1.0000 0.50000  0.00000  0.75000  Biso   1.000  O
  O23      1.0000 0.75000  0.75000  0.25000  Biso   1.000  O
  O24      1.0000 0.00000  0.75000  0.50000  Biso   1.000  O
  O25      1.0000 0.75000  0.25000  0.75000  Biso   1.000  O
  O26      1.0000 0.25000  0.00000  0.00000  Biso   1.000  O
  O27      1.0000 0.50000  0.75000  0.00000  Biso   1.000  O
  O28      1.0000 0.75000  0.00000  0.50000  Biso   1.000  O
  O29      1.0000 0.00000  0.50000  0.75000  Biso   1.000  O
  O30      1.0000 0.00000  0.25000  0.00000  Biso   1.000  O
  O31      1.0000 0.00000  0.00000  0.25000  Biso   1.000  O
  O32      1.0000 0.25000  0.25000  0.25000  Biso   1.000  O
  N1       1.0000 0.50000  0.38640  0.63640  Biso   1.000  N
  N2       1.0000 0.63640  0.50000  0.38640  Biso   1.000  N
  N3       1.0000 0.38640  0.63640  0.50000  Biso   1.000  N
  N4       1.0000 0.13640  0.75000  0.36360  Biso   1.000  N
  N5       1.0000 0.61360  0.25000  0.88640  Biso   1.000  N
  N6       1.0000 0.25000  0.88640  0.61360  Biso   1.000  N
  N7       1.0000 0.75000  0.36360  0.13640  Biso   1.000  N
  N8       1.0000 0.88640  0.61360  0.25000  Biso   1.000  N
  N9       1.0000 0.36360  0.13640  0.75000  Biso   1.000  N
  N10      1.0000 0.50000  0.88640  0.13640  Biso   1.000  N
  N11      1.0000 0.75000  0.86360  0.63640  Biso   1.000  N
  N12      1.0000 0.63640  0.00000  0.88640  Biso   1.000  N
  N13      1.0000 0.61360  0.75000  0.38640  Biso   1.000  N
  N14      1.0000 0.38640  0.13640  0.00000  Biso   1.000  N
  N15      1.0000 0.86360  0.61360  0.50000  Biso   1.000  N
  N16      1.0000 0.88640  0.11360  0.75000  Biso   1.000  N
  N17      1.0000 0.36360  0.63640  0.25000  Biso   1.000  N
  N18      1.0000 0.00000  0.38640  0.13640  Biso   1.000  N
  N19      1.0000 0.50000  0.86360  0.61360  Biso   1.000  N
  N20      1.0000 0.13640  0.50000  0.88640  Biso   1.000  N
  N21      1.0000 0.63640  0.75000  0.86360  Biso   1.000  N
  N22      1.0000 0.88640  0.63640  0.00000  Biso   1.000  N
  N23      1.0000 0.38640  0.61360  0.75000  Biso   1.000  N
  N24      1.0000 0.75000  0.88640  0.11360  Biso   1.000  N
  N25      1.0000 0.25000  0.36360  0.63640  Biso   1.000  N
  N26      1.0000 0.00000  0.88640  0.63640  Biso   1.000  N
  N27      1.0000 0.75000  0.38640  0.61360  Biso   1.000  N
  N28      1.0000 0.13640  0.00000  0.38640  Biso   1.000  N
  N29      1.0000 0.61360  0.50000  0.86360  Biso   1.000  N
  N30      1.0000 0.88640  0.13640  0.50000  Biso   1.000  N
  N31      1.0000 0.86360  0.63640  0.75000  Biso   1.000  N
  N32      1.0000 0.63640  0.25000  0.36360  Biso   1.000  N
  N33      1.0000 0.11360  0.75000  0.88640  Biso   1.000  N
  N34      1.0000 0.00000  0.86360  0.11360  Biso   1.000  N
  N35      1.0000 0.11360  0.00000  0.86360  Biso   1.000  N
  N36      1.0000 0.86360  0.11360  0.00000  Biso   1.000  N
  N37      1.0000 0.25000  0.38640  0.11360  Biso   1.000  N
  N38      1.0000 0.00000  0.36360  0.61360  Biso   1.000  N
  N39      1.0000 0.13640  0.25000  0.86360  Biso   1.000  N
  N40      1.0000 0.11360  0.50000  0.36360  Biso   1.000  N
  N41      1.0000 0.11360  0.25000  0.38640  Biso   1.000  N
  N42      1.0000 0.61360  0.00000  0.36360  Biso   1.000  N
  N43      1.0000 0.86360  0.13640  0.25000  Biso   1.000  N
  N44      1.0000 0.36360  0.11360  0.50000  Biso   1.000  N
  N45      1.0000 0.25000  0.86360  0.13640  Biso   1.000  N
  N46      1.0000 0.50000  0.36360  0.11360  Biso   1.000  N
  N47      1.0000 0.38640  0.11360  0.25000  Biso   1.000  N
  N48      1.0000 0.36360  0.61360  0.00000  Biso   1.000  N
  N49      1.0000 0.50000  0.61360  0.36360  Biso   1.000  N
  N50      1.0000 0.36360  0.50000  0.61360  Biso   1.000  N
  N51      1.0000 0.61360  0.36360  0.50000  Biso   1.000  N
  N52      1.0000 0.36360  0.75000  0.63640  Biso   1.000  N
  N53      1.0000 0.86360  0.50000  0.11360  Biso   1.000  N
  N54      1.0000 0.38640  0.25000  0.61360  Biso   1.000  N
  N55      1.0000 0.25000  0.61360  0.38640  Biso   1.000  N
  N56      1.0000 0.50000  0.11360  0.86360  Biso   1.000  N
  N57      1.0000 0.75000  0.63640  0.36360  Biso   1.000  N
  N58      1.0000 0.11360  0.86360  0.50000  Biso   1.000  N
  N59      1.0000 0.61360  0.38640  0.25000  Biso   1.000  N
  N60      1.0000 0.63640  0.36360  0.75000  Biso   1.000  N
  N61      1.0000 0.36360  0.00000  0.11360  Biso   1.000  N
  N62      1.0000 0.88640  0.75000  0.61360  Biso   1.000  N
  N63      1.0000 0.61360  0.86360  0.00000  Biso   1.000  N
  N64      1.0000 0.63640  0.88640  0.50000  Biso   1.000  N
  N65      1.0000 0.86360  0.00000  0.61360  Biso   1.000  N
  N66      1.0000 0.38640  0.75000  0.11360  Biso   1.000  N
  N67      1.0000 0.75000  0.13640  0.86360  Biso   1.000  N
  N68      1.0000 0.61360  0.88640  0.75000  Biso   1.000  N
  N69      1.0000 0.63640  0.86360  0.25000  Biso   1.000  N
  N70      1.0000 0.00000  0.61360  0.86360  Biso   1.000  N
  N71      1.0000 0.50000  0.63640  0.88640  Biso   1.000  N
  N72      1.0000 0.11360  0.36360  0.00000  Biso   1.000  N
  N73      1.0000 0.86360  0.75000  0.13640  Biso   1.000  N
  N74      1.0000 0.75000  0.61360  0.88640  Biso   1.000  N
  N75      1.0000 0.25000  0.63640  0.86360  Biso   1.000  N
  N76      1.0000 0.11360  0.38640  0.75000  Biso   1.000  N
  N77      1.0000 0.00000  0.11360  0.36360  Biso   1.000  N
  N78      1.0000 0.88640  0.50000  0.63640  Biso   1.000  N
  N79      1.0000 0.86360  0.25000  0.63640  Biso   1.000  N
  N80      1.0000 0.75000  0.11360  0.38640  Biso   1.000  N
  N81      1.0000 0.13640  0.86360  0.75000  Biso   1.000  N
  N82      1.0000 0.25000  0.11360  0.88640  Biso   1.000  N
  N83      1.0000 0.00000  0.63640  0.38640  Biso   1.000  N
  N84      1.0000 0.88640  0.25000  0.11360  Biso   1.000  N
  N85      1.0000 0.38640  0.00000  0.63640  Biso   1.000  N
  N86      1.0000 0.11360  0.88640  0.25000  Biso   1.000  N
  N87      1.0000 0.63640  0.38640  0.00000  Biso   1.000  N
  N88      1.0000 0.88640  0.00000  0.13640  Biso   1.000  N
  N89      1.0000 0.00000  0.13640  0.88640  Biso   1.000  N
  N90      1.0000 0.13640  0.88640  0.00000  Biso   1.000  N
  N91      1.0000 0.38640  0.50000  0.13640  Biso   1.000  N
  N92      1.0000 0.13640  0.36360  0.25000  Biso   1.000  N
  N93      1.0000 0.36360  0.25000  0.13640  Biso   1.000  N
  N94      1.0000 0.13640  0.38640  0.50000  Biso   1.000  N
  N95      1.0000 0.25000  0.13640  0.36360  Biso   1.000  N
  N96      1.0000 0.50000  0.13640  0.38640  Biso   1.000  N
  N97      1.0000 0.47930  0.31360  0.58910  Biso   1.000  N
  N98      1.0000 0.58910  0.47930  0.31360  Biso   1.000  N
  N99      1.0000 0.31360  0.58910  0.47930  Biso   1.000  N
  N100     1.0000 0.06360  0.72930  0.41090  Biso   1.000  N
  N101     1.0000 0.56360  0.52070  0.33910  Biso   1.000  N
  N102     1.0000 0.68640  0.22930  0.83910  Biso   1.000  N
  N103     1.0000 0.22930  0.83910  0.68640  Biso   1.000  N
  N104     1.0000 0.52070  0.33910  0.56360  Biso   1.000  N
  N105     1.0000 0.72930  0.41090  0.06360  Biso   1.000  N
  N106     1.0000 0.33910  0.56360  0.52070  Biso   1.000  N
  N107     1.0000 0.83910  0.68640  0.22930  Biso   1.000  N
  N108     1.0000 0.41090  0.06360  0.72930  Biso   1.000  N
  N109     1.0000 0.47930  0.81360  0.08910  Biso   1.000  N
  N110     1.0000 0.77070  0.93640  0.58910  Biso   1.000  N
  N111     1.0000 0.58910  0.97930  0.81360  Biso   1.000  N
  N112     1.0000 0.66090  0.77070  0.31360  Biso   1.000  N
  N113     1.0000 0.31360  0.08910  0.97930  Biso   1.000  N
  N114     1.0000 0.93640  0.66090  0.47930  Biso   1.000  N
  N115     1.0000 0.56360  0.02070  0.83910  Biso   1.000  N
  N116     1.0000 0.68640  0.72930  0.33910  Biso   1.000  N
  N117     1.0000 0.52070  0.83910  0.06360  Biso   1.000  N
  N118     1.0000 0.72930  0.91090  0.56360  Biso   1.000  N
  N119     1.0000 0.83910  0.18640  0.72930  Biso   1.000  N
  N120     1.0000 0.41090  0.56360  0.22930  Biso   1.000  N
  N121     1.0000 0.97930  0.31360  0.08910  Biso   1.000  N
  N122     1.0000 0.47930  0.93640  0.66090  Biso   1.000  N
  N123     1.0000 0.08910  0.47930  0.81360  Biso   1.000  N
  N124     1.0000 0.58910  0.77070  0.93640  Biso   1.000  N
  N125     1.0000 0.81360  0.58910  0.97930  Biso   1.000  N
  N126     1.0000 0.31360  0.66090  0.77070  Biso   1.000  N
  N127     1.0000 0.56360  0.72930  0.91090  Biso   1.000  N
  N128     1.0000 0.06360  0.52070  0.83910  Biso   1.000  N
  N129     1.0000 0.72930  0.83910  0.18640  Biso   1.000  N
  N130     1.0000 0.22930  0.41090  0.56360  Biso   1.000  N
  N131     1.0000 0.83910  0.56360  0.02070  Biso   1.000  N
  N132     1.0000 0.33910  0.68640  0.72930  Biso   1.000  N
  N133     1.0000 0.97930  0.81360  0.58910  Biso   1.000  N
  N134     1.0000 0.77070  0.31360  0.66090  Biso   1.000  N
  N135     1.0000 0.08910  0.97930  0.31360  Biso   1.000  N
  N136     1.0000 0.66090  0.47930  0.93640  Biso   1.000  N
  N137     1.0000 0.81360  0.08910  0.47930  Biso   1.000  N
  N138     1.0000 0.93640  0.58910  0.77070  Biso   1.000  N
  N139     1.0000 0.56360  0.22930  0.41090  Biso   1.000  N
  N140     1.0000 0.18640  0.72930  0.83910  Biso   1.000  N
  N141     1.0000 0.72930  0.33910  0.68640  Biso   1.000  N
  N142     1.0000 0.02070  0.83910  0.56360  Biso   1.000  N
  N143     1.0000 0.83910  0.06360  0.52070  Biso   1.000  N
  N144     1.0000 0.91090  0.56360  0.72930  Biso   1.000  N
  N145     1.0000 0.77070  0.43640  0.08910  Biso   1.000  N
  N146     1.0000 0.27070  0.81360  0.66090  Biso   1.000  N
  N147     1.0000 0.97930  0.93640  0.16090  Biso   1.000  N
  N148     1.0000 0.08910  0.77070  0.43640  Biso   1.000  N
  N149     1.0000 0.66090  0.27070  0.81360  Biso   1.000  N
  N150     1.0000 0.16090  0.97930  0.93640  Biso   1.000  N
  N151     1.0000 0.43640  0.08910  0.77070  Biso   1.000  N
  N152     1.0000 0.81360  0.66090  0.27070  Biso   1.000  N
  N153     1.0000 0.93640  0.16090  0.97930  Biso   1.000  N
  N154     1.0000 0.18640  0.02070  0.91090  Biso   1.000  N
  N155     1.0000 0.02070  0.91090  0.18640  Biso   1.000  N
  N156     1.0000 0.91090  0.18640  0.02070  Biso   1.000  N
  N157     1.0000 0.27070  0.31360  0.16090  Biso   1.000  N
  N158     1.0000 0.97930  0.43640  0.66090  Biso   1.000  N
  N159     1.0000 0.08910  0.27070  0.93640  Biso   1.000  N
  N160     1.0000 0.16090  0.47930  0.43640  Biso   1.000  N
  N161     1.0000 0.43640  0.58910  0.27070  Biso   1.000  N
  N162     1.0000 0.81360  0.16090  0.77070  Biso   1.000  N
  N163     1.0000 0.06360  0.22930  0.91090  Biso   1.000  N
  N164     1.0000 0.18640  0.52070  0.41090  Biso   1.000  N
  N165     1.0000 0.22930  0.33910  0.18640  Biso   1.000  N
  N166     1.0000 0.02070  0.41090  0.68640  Biso   1.000  N
  N167     1.0000 0.33910  0.06360  0.02070  Biso   1.000  N
  N168     1.0000 0.91090  0.68640  0.52070  Biso   1.000  N
  N169     1.0000 0.27070  0.43640  0.58910  Biso   1.000  N
  N170     1.0000 0.77070  0.81360  0.16090  Biso   1.000  N
  N171     1.0000 0.16090  0.27070  0.31360  Biso   1.000  N
  N172     1.0000 0.66090  0.97930  0.43640  Biso   1.000  N
  N173     1.0000 0.93640  0.08910  0.27070  Biso   1.000  N
  N174     1.0000 0.43640  0.16090  0.47930  Biso   1.000  N
  N175     1.0000 0.68640  0.02070  0.41090  Biso   1.000  N
  N176     1.0000 0.18640  0.22930  0.33910  Biso   1.000  N
  N177     1.0000 0.02070  0.33910  0.06360  Biso   1.000  N
  N178     1.0000 0.52070  0.91090  0.68640  Biso   1.000  N
  N179     1.0000 0.91090  0.06360  0.22930  Biso   1.000  N
  N180     1.0000 0.41090  0.18640  0.52070  Biso   1.000  N
  N181     1.0000 0.27070  0.93640  0.08910  Biso   1.000  N
  N182     1.0000 0.47930  0.43640  0.16090  Biso   1.000  N
  N183     1.0000 0.58910  0.27070  0.43640  Biso   1.000  N
  N184     1.0000 0.16090  0.77070  0.81360  Biso   1.000  N
  N185     1.0000 0.31360  0.16090  0.27070  Biso   1.000  N
  N186     1.0000 0.43640  0.66090  0.97930  Biso   1.000  N
  N187     1.0000 0.68640  0.52070  0.91090  Biso   1.000  N
  N188     1.0000 0.06360  0.02070  0.33910  Biso   1.000  N
  N189     1.0000 0.52070  0.41090  0.18640  Biso   1.000  N
  N190     1.0000 0.22930  0.91090  0.06360  Biso   1.000  N
  N191     1.0000 0.33910  0.18640  0.22930  Biso   1.000  N
  N192     1.0000 0.41090  0.68640  0.02070  Biso   1.000  N
  N193     1.0000 0.52070  0.68640  0.41090  Biso   1.000  N
  N194     1.0000 0.41090  0.52070  0.68640  Biso   1.000  N
  N195     1.0000 0.68640  0.41090  0.52070  Biso   1.000  N
  N196     1.0000 0.43640  0.77070  0.58910  Biso   1.000  N
  N197     1.0000 0.93640  0.47930  0.16090  Biso   1.000  N
  N198     1.0000 0.31360  0.27070  0.66090  Biso   1.000  N
  N199     1.0000 0.27070  0.66090  0.31360  Biso   1.000  N
  N200     1.0000 0.47930  0.16090  0.93640  Biso   1.000  N
  N201     1.0000 0.77070  0.58910  0.43640  Biso   1.000  N
  N202     1.0000 0.16090  0.93640  0.47930  Biso   1.000  N
  N203     1.0000 0.66090  0.31360  0.27070  Biso   1.000  N
  N204     1.0000 0.58910  0.43640  0.77070  Biso   1.000  N
  N205     1.0000 0.52070  0.18640  0.91090  Biso   1.000  N
  N206     1.0000 0.72930  0.56360  0.41090  Biso   1.000  N
  N207     1.0000 0.41090  0.02070  0.18640  Biso   1.000  N
  N208     1.0000 0.83910  0.72930  0.68640  Biso   1.000  N
  N209     1.0000 0.68640  0.91090  0.02070  Biso   1.000  N
  N210     1.0000 0.56360  0.83910  0.52070  Biso   1.000  N
  N211     1.0000 0.93640  0.97930  0.66090  Biso   1.000  N
  N212     1.0000 0.31360  0.77070  0.16090  Biso   1.000  N
  N213     1.0000 0.47930  0.66090  0.43640  Biso   1.000  N
  N214     1.0000 0.77070  0.08910  0.93640  Biso   1.000  N
  N215     1.0000 0.66090  0.81360  0.77070  Biso   1.000  N
  N216     1.0000 0.58910  0.93640  0.27070  Biso   1.000  N
  N217     1.0000 0.02070  0.68640  0.91090  Biso   1.000  N
  N218     1.0000 0.52070  0.56360  0.83910  Biso   1.000  N
  N219     1.0000 0.91090  0.52070  0.18640  Biso   1.000  N
  N220     1.0000 0.41090  0.72930  0.56360  Biso   1.000  N
  N221     1.0000 0.18640  0.41090  0.02070  Biso   1.000  N
  N222     1.0000 0.68640  0.83910  0.72930  Biso   1.000  N
  N223     1.0000 0.93640  0.77070  0.08910  Biso   1.000  N
  N224     1.0000 0.43640  0.47930  0.66090  Biso   1.000  N
  N225     1.0000 0.77070  0.66090  0.81360  Biso   1.000  N
  N226     1.0000 0.27070  0.58910  0.93640  Biso   1.000  N
  N227     1.0000 0.66090  0.93640  0.97930  Biso   1.000  N
  N228     1.0000 0.16090  0.31360  0.77070  Biso   1.000  N
  N229     1.0000 0.02070  0.18640  0.41090  Biso   1.000  N
  N230     1.0000 0.72930  0.68640  0.83910  Biso   1.000  N
  N231     1.0000 0.91090  0.02070  0.68640  Biso   1.000  N
  N232     1.0000 0.83910  0.52070  0.56360  Biso   1.000  N
  N233     1.0000 0.18640  0.91090  0.52070  Biso   1.000  N
  N234     1.0000 0.56360  0.41090  0.72930  Biso   1.000  N
  N235     1.0000 0.93640  0.27070  0.58910  Biso   1.000  N
  N236     1.0000 0.81360  0.77070  0.66090  Biso   1.000  N
  N237     1.0000 0.77070  0.16090  0.31360  Biso   1.000  N
  N238     1.0000 0.97930  0.66090  0.93640  Biso   1.000  N
  N239     1.0000 0.66090  0.43640  0.47930  Biso   1.000  N
  N240     1.0000 0.08910  0.93640  0.77070  Biso   1.000  N
  N241     1.0000 0.72930  0.06360  0.91090  Biso   1.000  N
  N242     1.0000 0.22930  0.18640  0.83910  Biso   1.000  N
  N243     1.0000 0.02070  0.56360  0.33910  Biso   1.000  N
  N244     1.0000 0.91090  0.72930  0.06360  Biso   1.000  N
  N245     1.0000 0.83910  0.22930  0.18640  Biso   1.000  N
  N246     1.0000 0.33910  0.02070  0.56360  Biso   1.000  N
  N247     1.0000 0.06360  0.91090  0.72930  Biso   1.000  N
  N248     1.0000 0.18640  0.83910  0.22930  Biso   1.000  N
  N249     1.0000 0.56360  0.33910  0.02070  Biso   1.000  N
  N250     1.0000 0.81360  0.97930  0.08910  Biso   1.000  N
  N251     1.0000 0.97930  0.08910  0.81360  Biso   1.000  N
  N252     1.0000 0.08910  0.81360  0.97930  Biso   1.000  N
  N253     1.0000 0.22930  0.68640  0.33910  Biso   1.000  N
  N254     1.0000 0.02070  0.06360  0.83910  Biso   1.000  N
  N255     1.0000 0.91090  0.22930  0.56360  Biso   1.000  N
  N256     1.0000 0.33910  0.52070  0.06360  Biso   1.000  N
  N257     1.0000 0.06360  0.41090  0.22930  Biso   1.000  N
  N258     1.0000 0.18640  0.33910  0.72930  Biso   1.000  N
  N259     1.0000 0.43640  0.27070  0.08910  Biso   1.000  N
  N260     1.0000 0.81360  0.47930  0.58910  Biso   1.000  N
  N261     1.0000 0.27070  0.16090  0.81360  Biso   1.000  N
  N262     1.0000 0.97930  0.58910  0.31360  Biso   1.000  N
  N263     1.0000 0.16090  0.43640  0.97930  Biso   1.000  N
  N264     1.0000 0.08910  0.31360  0.47930  Biso   1.000  N
  N265     1.0000 0.22930  0.06360  0.41090  Biso   1.000  N
  N266     1.0000 0.72930  0.18640  0.33910  Biso   1.000  N
  N267     1.0000 0.33910  0.22930  0.68640  Biso   1.000  N
  N268     1.0000 0.83910  0.02070  0.06360  Biso   1.000  N
  N269     1.0000 0.56360  0.91090  0.22930  Biso   1.000  N
  N270     1.0000 0.06360  0.33910  0.52070  Biso   1.000  N
  N271     1.0000 0.31360  0.97930  0.58910  Biso   1.000  N
  N272     1.0000 0.81360  0.27070  0.16090  Biso   1.000  N
  N273     1.0000 0.97930  0.16090  0.43640  Biso   1.000  N
  N274     1.0000 0.47930  0.08910  0.31360  Biso   1.000  N
  N275     1.0000 0.08910  0.43640  0.27070  Biso   1.000  N
  N276     1.0000 0.58910  0.81360  0.47930  Biso   1.000  N
  N277     1.0000 0.22930  0.56360  0.91090  Biso   1.000  N
  N278     1.0000 0.52070  0.06360  0.33910  Biso   1.000  N
  N279     1.0000 0.41090  0.22930  0.06360  Biso   1.000  N
  N280     1.0000 0.33910  0.72930  0.18640  Biso   1.000  N
  N281     1.0000 0.68640  0.33910  0.22930  Biso   1.000  N
  N282     1.0000 0.06360  0.83910  0.02070  Biso   1.000  N
  N283     1.0000 0.31360  0.47930  0.08910  Biso   1.000  N
  N284     1.0000 0.43640  0.97930  0.16090  Biso   1.000  N
  N285     1.0000 0.47930  0.58910  0.81360  Biso   1.000  N
  N286     1.0000 0.27070  0.08910  0.43640  Biso   1.000  N
  N287     1.0000 0.16090  0.81360  0.27070  Biso   1.000  N
  N288     1.0000 0.58910  0.31360  0.97930  Biso   1.000  N
  C1       1.0000 0.46820  0.34240  0.63270  Biso   1.000  C
  C2       1.0000 0.63270  0.46820  0.34240  Biso   1.000  C
  C3       1.0000 0.34240  0.63270  0.46820  Biso   1.000  C
  C4       1.0000 0.09240  0.71820  0.36730  Biso   1.000  C
  C5       1.0000 0.59240  0.53180  0.38270  Biso   1.000  C
  C6       1.0000 0.65760  0.21820  0.88270  Biso   1.000  C
  C7       1.0000 0.21820  0.88270  0.65760  Biso   1.000  C
  C8       1.0000 0.53180  0.38270  0.59240  Biso   1.000  C
  C9       1.0000 0.71820  0.36730  0.09240  Biso   1.000  C
  C10      1.0000 0.38270  0.59240  0.53180  Biso   1.000  C
  C11      1.0000 0.88270  0.65760  0.21820  Biso   1.000  C
  C12      1.0000 0.36730  0.09240  0.71820  Biso   1.000  C
  C13      1.0000 0.46820  0.84240  0.13270  Biso   1.000  C
  C14      1.0000 0.78180  0.90760  0.63270  Biso   1.000  C
  C15      1.0000 0.63270  0.96820  0.84240  Biso   1.000  C
  C16      1.0000 0.61730  0.78180  0.34240  Biso   1.000  C
  C17      1.0000 0.34240  0.13270  0.96820  Biso   1.000  C
  C18      1.0000 0.90760  0.61730  0.46820  Biso   1.000  C
  C19      1.0000 0.59240  0.03180  0.88270  Biso   1.000  C
  C20      1.0000 0.65760  0.71820  0.38270  Biso   1.000  C
  C21      1.0000 0.53180  0.88270  0.09240  Biso   1.000  C
  C22      1.0000 0.71820  0.86730  0.59240  Biso   1.000  C
  C23      1.0000 0.88270  0.15760  0.71820  Biso   1.000  C
  C24      1.0000 0.36730  0.59240  0.21820  Biso   1.000  C
  C25      1.0000 0.96820  0.34240  0.13270  Biso   1.000  C
  C26      1.0000 0.46820  0.90760  0.61730  Biso   1.000  C
  C27      1.0000 0.13270  0.46820  0.84240  Biso   1.000  C
  C28      1.0000 0.63270  0.78180  0.90760  Biso   1.000  C
  C29      1.0000 0.84240  0.63270  0.96820  Biso   1.000  C
  C30      1.0000 0.34240  0.61730  0.78180  Biso   1.000  C
  C31      1.0000 0.59240  0.71820  0.86730  Biso   1.000  C
  C32      1.0000 0.09240  0.53180  0.88270  Biso   1.000  C
  C33      1.0000 0.71820  0.88270  0.15760  Biso   1.000  C
  C34      1.0000 0.21820  0.36730  0.59240  Biso   1.000  C
  C35      1.0000 0.88270  0.59240  0.03180  Biso   1.000  C
  C36      1.0000 0.38270  0.65760  0.71820  Biso   1.000  C
  C37      1.0000 0.96820  0.84240  0.63270  Biso   1.000  C
  C38      1.0000 0.78180  0.34240  0.61730  Biso   1.000  C
  C39      1.0000 0.13270  0.96820  0.34240  Biso   1.000  C
  C40      1.0000 0.61730  0.46820  0.90760  Biso   1.000  C
  C41      1.0000 0.84240  0.13270  0.46820  Biso   1.000  C
  C42      1.0000 0.90760  0.63270  0.78180  Biso   1.000  C
  C43      1.0000 0.59240  0.21820  0.36730  Biso   1.000  C
  C44      1.0000 0.15760  0.71820  0.88270  Biso   1.000  C
  C45      1.0000 0.71820  0.38270  0.65760  Biso   1.000  C
  C46      1.0000 0.03180  0.88270  0.59240  Biso   1.000  C
  C47      1.0000 0.88270  0.09240  0.53180  Biso   1.000  C
  C48      1.0000 0.86730  0.59240  0.71820  Biso   1.000  C
  C49      1.0000 0.78180  0.40760  0.13270  Biso   1.000  C
  C50      1.0000 0.28180  0.84240  0.61730  Biso   1.000  C
  C51      1.0000 0.96820  0.90760  0.11730  Biso   1.000  C
  C52      1.0000 0.13270  0.78180  0.40760  Biso   1.000  C
  C53      1.0000 0.61730  0.28180  0.84240  Biso   1.000  C
  C54      1.0000 0.11730  0.96820  0.90760  Biso   1.000  C
  C55      1.0000 0.40760  0.13270  0.78180  Biso   1.000  C
  C56      1.0000 0.84240  0.61730  0.28180  Biso   1.000  C
  C57      1.0000 0.90760  0.11730  0.96820  Biso   1.000  C
  C58      1.0000 0.15760  0.03180  0.86730  Biso   1.000  C
  C59      1.0000 0.03180  0.86730  0.15760  Biso   1.000  C
  C60      1.0000 0.86730  0.15760  0.03180  Biso   1.000  C
  C61      1.0000 0.28180  0.34240  0.11730  Biso   1.000  C
  C62      1.0000 0.96820  0.40760  0.61730  Biso   1.000  C
  C63      1.0000 0.13270  0.28180  0.90760  Biso   1.000  C
  C64      1.0000 0.11730  0.46820  0.40760  Biso   1.000  C
  C65      1.0000 0.40760  0.63270  0.28180  Biso   1.000  C
  C66      1.0000 0.84240  0.11730  0.78180  Biso   1.000  C
  C67      1.0000 0.09240  0.21820  0.86730  Biso   1.000  C
  C68      1.0000 0.15760  0.53180  0.36730  Biso   1.000  C
  C69      1.0000 0.21820  0.38270  0.15760  Biso   1.000  C
  C70      1.0000 0.03180  0.36730  0.65760  Biso   1.000  C
  C71      1.0000 0.38270  0.09240  0.03180  Biso   1.000  C
  C72      1.0000 0.86730  0.65760  0.53180  Biso   1.000  C
  C73      1.0000 0.28180  0.40760  0.63270  Biso   1.000  C
  C74      1.0000 0.78180  0.84240  0.11730  Biso   1.000  C
  C75      1.0000 0.11730  0.28180  0.34240  Biso   1.000  C
  C76      1.0000 0.61730  0.96820  0.40760  Biso   1.000  C
  C77      1.0000 0.90760  0.13270  0.28180  Biso   1.000  C
  C78      1.0000 0.40760  0.11730  0.46820  Biso   1.000  C
  C79      1.0000 0.65760  0.03180  0.36730  Biso   1.000  C
  C80      1.0000 0.15760  0.21820  0.38270  Biso   1.000  C
  C81      1.0000 0.03180  0.38270  0.09240  Biso   1.000  C
  C82      1.0000 0.53180  0.86730  0.65760  Biso   1.000  C
  C83      1.0000 0.86730  0.09240  0.21820  Biso   1.000  C
  C84      1.0000 0.36730  0.15760  0.53180  Biso   1.000  C
  C85      1.0000 0.28180  0.90760  0.13270  Biso   1.000  C
  C86      1.0000 0.46820  0.40760  0.11730  Biso   1.000  C
  C87      1.0000 0.63270  0.28180  0.40760  Biso   1.000  C
  C88      1.0000 0.11730  0.78180  0.84240  Biso   1.000  C
  C89      1.0000 0.34240  0.11730  0.28180  Biso   1.000  C
  C90      1.0000 0.40760  0.61730  0.96820  Biso   1.000  C
  C91      1.0000 0.65760  0.53180  0.86730  Biso   1.000  C
  C92      1.0000 0.09240  0.03180  0.38270  Biso   1.000  C
  C93      1.0000 0.53180  0.36730  0.15760  Biso   1.000  C
  C94      1.0000 0.21820  0.86730  0.09240  Biso   1.000  C
  C95      1.0000 0.38270  0.15760  0.21820  Biso   1.000  C
  C96      1.0000 0.36730  0.65760  0.03180  Biso   1.000  C
  C97      1.0000 0.53180  0.65760  0.36730  Biso   1.000  C
  C98      1.0000 0.36730  0.53180  0.65760  Biso   1.000  C
  C99      1.0000 0.65760  0.36730  0.53180  Biso   1.000  C
  C100     1.0000 0.40760  0.78180  0.63270  Biso   1.000  C
  C101     1.0000 0.90760  0.46820  0.11730  Biso   1.000  C
  C102     1.0000 0.34240  0.28180  0.61730  Biso   1.000  C
  C103     1.0000 0.28180  0.61730  0.34240  Biso   1.000  C
  C104     1.0000 0.46820  0.11730  0.90760  Biso   1.000  C
  C105     1.0000 0.78180  0.63270  0.40760  Biso   1.000  C
  C106     1.0000 0.11730  0.90760  0.46820  Biso   1.000  C
  C107     1.0000 0.61730  0.34240  0.28180  Biso   1.000  C
  C108     1.0000 0.63270  0.40760  0.78180  Biso   1.000  C
  C109     1.0000 0.53180  0.15760  0.86730  Biso   1.000  C
  C110     1.0000 0.71820  0.59240  0.36730  Biso   1.000  C
  C111     1.0000 0.36730  0.03180  0.15760  Biso   1.000  C
  C112     1.0000 0.88270  0.71820  0.65760  Biso   1.000  C
  C113     1.0000 0.65760  0.86730  0.03180  Biso   1.000  C
  C114     1.0000 0.59240  0.88270  0.53180  Biso   1.000  C
  C115     1.0000 0.90760  0.96820  0.61730  Biso   1.000  C
  C116     1.0000 0.34240  0.78180  0.11730  Biso   1.000  C
  C117     1.0000 0.46820  0.61730  0.40760  Biso   1.000  C
  C118     1.0000 0.78180  0.13270  0.90760  Biso   1.000  C
  C119     1.0000 0.61730  0.84240  0.78180  Biso   1.000  C
  C120     1.0000 0.63270  0.90760  0.28180  Biso   1.000  C
  C121     1.0000 0.03180  0.65760  0.86730  Biso   1.000  C
  C122     1.0000 0.53180  0.59240  0.88270  Biso   1.000  C
  C123     1.0000 0.86730  0.53180  0.15760  Biso   1.000  C
  C124     1.0000 0.36730  0.71820  0.59240  Biso   1.000  C
  C125     1.0000 0.15760  0.36730  0.03180  Biso   1.000  C
  C126     1.0000 0.65760  0.88270  0.71820  Biso   1.000  C
  C127     1.0000 0.90760  0.78180  0.13270  Biso   1.000  C
  C128     1.0000 0.40760  0.46820  0.61730  Biso   1.000  C
  C129     1.0000 0.78180  0.61730  0.84240  Biso   1.000  C
  C130     1.0000 0.28180  0.63270  0.90760  Biso   1.000  C
  C131     1.0000 0.61730  0.90760  0.96820  Biso   1.000  C
  C132     1.0000 0.11730  0.34240  0.78180  Biso   1.000  C
  C133     1.0000 0.03180  0.15760  0.36730  Biso   1.000  C
  C134     1.0000 0.71820  0.65760  0.88270  Biso   1.000  C
  C135     1.0000 0.86730  0.03180  0.65760  Biso   1.000  C
  C136     1.0000 0.88270  0.53180  0.59240  Biso   1.000  C
  C137     1.0000 0.15760  0.86730  0.53180  Biso   1.000  C
  C138     1.0000 0.59240  0.36730  0.71820  Biso   1.000  C
  C139     1.0000 0.90760  0.28180  0.63270  Biso   1.000  C
  C140     1.0000 0.84240  0.78180  0.61730  Biso   1.000  C
  C141     1.0000 0.78180  0.11730  0.34240  Biso   1.000  C
  C142     1.0000 0.96820  0.61730  0.90760  Biso   1.000  C
  C143     1.0000 0.61730  0.40760  0.46820  Biso   1.000  C
  C144     1.0000 0.13270  0.90760  0.78180  Biso   1.000  C
  C145     1.0000 0.71820  0.09240  0.86730  Biso   1.000  C
  C146     1.0000 0.21820  0.15760  0.88270  Biso   1.000  C
  C147     1.0000 0.03180  0.59240  0.38270  Biso   1.000  C
  C148     1.0000 0.86730  0.71820  0.09240  Biso   1.000  C
  C149     1.0000 0.88270  0.21820  0.15760  Biso   1.000  C
  C150     1.0000 0.38270  0.03180  0.59240  Biso   1.000  C
  C151     1.0000 0.09240  0.86730  0.71820  Biso   1.000  C
  C152     1.0000 0.15760  0.88270  0.21820  Biso   1.000  C
  C153     1.0000 0.59240  0.38270  0.03180  Biso   1.000  C
  C154     1.0000 0.84240  0.96820  0.13270  Biso   1.000  C
  C155     1.0000 0.96820  0.13270  0.84240  Biso   1.000  C
  C156     1.0000 0.13270  0.84240  0.96820  Biso   1.000  C
  C157     1.0000 0.21820  0.65760  0.38270  Biso   1.000  C
  C158     1.0000 0.03180  0.09240  0.88270  Biso   1.000  C
  C159     1.0000 0.86730  0.21820  0.59240  Biso   1.000  C
  C160     1.0000 0.38270  0.53180  0.09240  Biso   1.000  C
  C161     1.0000 0.09240  0.36730  0.21820  Biso   1.000  C
  C162     1.0000 0.15760  0.38270  0.71820  Biso   1.000  C
  C163     1.0000 0.40760  0.28180  0.13270  Biso   1.000  C
  C164     1.0000 0.84240  0.46820  0.63270  Biso   1.000  C
  C165     1.0000 0.28180  0.11730  0.84240  Biso   1.000  C
  C166     1.0000 0.96820  0.63270  0.34240  Biso   1.000  C
  C167     1.0000 0.11730  0.40760  0.96820  Biso   1.000  C
  C168     1.0000 0.13270  0.34240  0.46820  Biso   1.000  C
  C169     1.0000 0.21820  0.09240  0.36730  Biso   1.000  C
  C170     1.0000 0.71820  0.15760  0.38270  Biso   1.000  C
  C171     1.0000 0.38270  0.21820  0.65760  Biso   1.000  C
  C172     1.0000 0.88270  0.03180  0.09240  Biso   1.000  C
  C173     1.0000 0.59240  0.86730  0.21820  Biso   1.000  C
  C174     1.0000 0.09240  0.38270  0.53180  Biso   1.000  C
  C175     1.0000 0.34240  0.96820  0.63270  Biso   1.000  C
  C176     1.0000 0.84240  0.28180  0.11730  Biso   1.000  C
  C177     1.0000 0.96820  0.11730  0.40760  Biso   1.000  C
  C178     1.0000 0.46820  0.13270  0.34240  Biso   1.000  C
  C179     1.0000 0.13270  0.40760  0.28180  Biso   1.000  C
  C180     1.0000 0.63270  0.84240  0.46820  Biso   1.000  C
  C181     1.0000 0.21820  0.59240  0.86730  Biso   1.000  C
  C182     1.0000 0.53180  0.09240  0.38270  Biso   1.000  C
  C183     1.0000 0.36730  0.21820  0.09240  Biso   1.000  C
  C184     1.0000 0.38270  0.71820  0.15760  Biso   1.000  C
  C185     1.0000 0.65760  0.38270  0.21820  Biso   1.000  C
  C186     1.0000 0.09240  0.88270  0.03180  Biso   1.000  C
  C187     1.0000 0.34240  0.46820  0.13270  Biso   1.000  C
  C188     1.0000 0.40760  0.96820  0.11730  Biso   1.000  C
  C189     1.0000 0.46820  0.63270  0.84240  Biso   1.000  C
  C190     1.0000 0.28180  0.13270  0.40760  Biso   1.000  C
  C191     1.0000 0.11730  0.84240  0.28180  Biso   1.000  C
  C192     1.0000 0.63270  0.34240  0.96820  Biso   1.000  C
  O33      1.0000 0.48200  0.26800  0.76800  Biso   1.000  O
  O34      1.0000 0.76800  0.48200  0.26800  Biso   1.000  O
  O35      1.0000 0.26800  0.76800  0.48200  Biso   1.000  O
  O36      1.0000 0.01800  0.73200  0.23200  Biso   1.000  O
  O37      1.0000 0.51800  0.51800  0.51800  Biso   1.000  O
  O38      1.0000 0.73200  0.23200  0.01800  Biso   1.000  O
  O39      1.0000 0.23200  0.01800  0.73200  Biso   1.000  O
  O40      1.0000 0.48200  0.76800  0.26800  Biso   1.000  O
  O41      1.0000 0.76800  0.98200  0.76800  Biso   1.000  O
  O42      1.0000 0.26800  0.26800  0.98200  Biso   1.000  O
  O43      1.0000 0.98200  0.48200  0.48200  Biso   1.000  O
  O44      1.0000 0.51800  0.01800  0.01800  Biso   1.000  O
  O45      1.0000 0.73200  0.73200  0.51800  Biso   1.000  O
  O46      1.0000 0.01800  0.23200  0.73200  Biso   1.000  O
  O47      1.0000 0.23200  0.51800  0.23200  Biso   1.000  O
  O48      1.0000 0.98200  0.26800  0.26800  Biso   1.000  O
  O49      1.0000 0.48200  0.98200  0.48200  Biso   1.000  O
  O50      1.0000 0.26800  0.48200  0.76800  Biso   1.000  O
  O51      1.0000 0.76800  0.76800  0.98200  Biso   1.000  O
  O52      1.0000 0.51800  0.73200  0.73200  Biso   1.000  O
  O53      1.0000 0.01800  0.51800  0.01800  Biso   1.000  O
  O54      1.0000 0.73200  0.01800  0.23200  Biso   1.000  O
  O55      1.0000 0.23200  0.23200  0.51800  Biso   1.000  O
  O56      1.0000 0.98200  0.76800  0.76800  Biso   1.000  O
  O57      1.0000 0.76800  0.26800  0.48200  Biso   1.000  O
  O58      1.0000 0.26800  0.98200  0.26800  Biso   1.000  O
  O59      1.0000 0.48200  0.48200  0.98200  Biso   1.000  O
  O60      1.0000 0.51800  0.23200  0.23200  Biso   1.000  O
  O61      1.0000 0.23200  0.73200  0.01800  Biso   1.000  O
  O62      1.0000 0.73200  0.51800  0.73200  Biso   1.000  O
  O63      1.0000 0.01800  0.01800  0.51800  Biso   1.000  O
  O64      1.0000 0.98200  0.98200  0.98200  Biso   1.000  O
  O65      1.0000 0.51800  0.73200  0.23200  Biso   1.000  O
  O66      1.0000 0.23200  0.51800  0.73200  Biso   1.000  O
  O67      1.0000 0.73200  0.23200  0.51800  Biso   1.000  O
  O68      1.0000 0.48200  0.76800  0.76800  Biso   1.000  O
  O69      1.0000 0.98200  0.48200  0.98200  Biso   1.000  O
  O70      1.0000 0.26800  0.26800  0.48200  Biso   1.000  O
  O71      1.0000 0.26800  0.48200  0.26800  Biso   1.000  O
  O72      1.0000 0.48200  0.98200  0.98200  Biso   1.000  O
  O73      1.0000 0.76800  0.76800  0.48200  Biso   1.000  O
  O74      1.0000 0.98200  0.98200  0.48200  Biso   1.000  O
  O75      1.0000 0.48200  0.26800  0.26800  Biso   1.000  O
  O76      1.0000 0.76800  0.48200  0.76800  Biso   1.000  O
  O77      1.0000 0.51800  0.23200  0.73200  Biso   1.000  O
  O78      1.0000 0.73200  0.51800  0.23200  Biso   1.000  O
  O79      1.0000 0.23200  0.01800  0.23200  Biso   1.000  O
  O80      1.0000 0.01800  0.73200  0.73200  Biso   1.000  O
  O81      1.0000 0.73200  0.73200  0.01800  Biso   1.000  O
  O82      1.0000 0.51800  0.01800  0.51800  Biso   1.000  O
  O83      1.0000 0.26800  0.76800  0.98200  Biso   1.000  O
  O84      1.0000 0.48200  0.48200  0.48200  Biso   1.000  O
  O85      1.0000 0.76800  0.26800  0.98200  Biso   1.000  O
  O86      1.0000 0.76800  0.98200  0.26800  Biso   1.000  O
  O87      1.0000 0.51800  0.51800  0.01800  Biso   1.000  O
  O88      1.0000 0.23200  0.73200  0.51800  Biso   1.000  O
  O89      1.0000 0.23200  0.23200  0.01800  Biso   1.000  O
  O90      1.0000 0.73200  0.01800  0.73200  Biso   1.000  O
  O91      1.0000 0.98200  0.76800  0.26800  Biso   1.000  O
  O92      1.0000 0.98200  0.26800  0.76800  Biso   1.000  O
  O93      1.0000 0.01800  0.23200  0.23200  Biso   1.000  O
  O94      1.0000 0.01800  0.51800  0.51800  Biso   1.000  O
  O95      1.0000 0.26800  0.98200  0.76800  Biso   1.000  O
  O96      1.0000 0.01800  0.01800  0.01800  Biso   1.000  O
  O97      1.0000 0.56520  0.50610  0.63310  Biso   1.000  O
  O98      1.0000 0.63310  0.56520  0.50610  Biso   1.000  O
  O99      1.0000 0.50610  0.63310  0.56520  Biso   1.000  O
  O100     1.0000 0.25610  0.81520  0.36690  Biso   1.000  O
  O101     1.0000 0.75610  0.43480  0.38310  Biso   1.000  O
  O102     1.0000 0.49390  0.31520  0.88310  Biso   1.000  O
  O103     1.0000 0.31520  0.88310  0.49390  Biso   1.000  O
  O104     1.0000 0.43480  0.38310  0.75610  Biso   1.000  O
  O105     1.0000 0.81520  0.36690  0.25610  Biso   1.000  O
  O106     1.0000 0.38310  0.75610  0.43480  Biso   1.000  O
  O107     1.0000 0.88310  0.49390  0.31520  Biso   1.000  O
  O108     1.0000 0.36690  0.25610  0.81520  Biso   1.000  O
  O109     1.0000 0.56520  0.00610  0.13310  Biso   1.000  O
  O110     1.0000 0.68480  0.74390  0.63310  Biso   1.000  O
  O111     1.0000 0.63310  0.06520  0.00610  Biso   1.000  O
  O112     1.0000 0.61690  0.68480  0.50610  Biso   1.000  O
  O113     1.0000 0.50610  0.13310  0.06520  Biso   1.000  O
  O114     1.0000 0.74390  0.61690  0.56520  Biso   1.000  O
  O115     1.0000 0.75610  0.93480  0.88310  Biso   1.000  O
  O116     1.0000 0.49390  0.81520  0.38310  Biso   1.000  O
  O117     1.0000 0.43480  0.88310  0.25610  Biso   1.000  O
  O118     1.0000 0.81520  0.86690  0.75610  Biso   1.000  O
  O119     1.0000 0.88310  0.99390  0.81520  Biso   1.000  O
  O120     1.0000 0.36690  0.75610  0.31520  Biso   1.000  O
  O121     1.0000 0.06520  0.50610  0.13310  Biso   1.000  O
  O122     1.0000 0.56520  0.74390  0.61690  Biso   1.000  O
  O123     1.0000 0.13310  0.56520  0.00610  Biso   1.000  O
  O124     1.0000 0.63310  0.68480  0.74390  Biso   1.000  O
  O125     1.0000 0.00610  0.63310  0.06520  Biso   1.000  O
  O126     1.0000 0.50610  0.61690  0.68480  Biso   1.000  O
  O127     1.0000 0.75610  0.81520  0.86690  Biso   1.000  O
  O128     1.0000 0.25610  0.43480  0.88310  Biso   1.000  O
  O129     1.0000 0.81520  0.88310  0.99390  Biso   1.000  O
  O130     1.0000 0.31520  0.36690  0.75610  Biso   1.000  O
  O131     1.0000 0.88310  0.75610  0.93480  Biso   1.000  O
  O132     1.0000 0.38310  0.49390  0.81520  Biso   1.000  O
  O133     1.0000 0.06520  0.00610  0.63310  Biso   1.000  O
  O134     1.0000 0.68480  0.50610  0.61690  Biso   1.000  O
  O135     1.0000 0.13310  0.06520  0.50610  Biso   1.000  O
  O136     1.0000 0.61690  0.56520  0.74390  Biso   1.000  O
  O137     1.0000 0.00610  0.13310  0.56520  Biso   1.000  O
  O138     1.0000 0.74390  0.63310  0.68480  Biso   1.000  O
  O139     1.0000 0.75610  0.31520  0.36690  Biso   1.000  O
  O140     1.0000 0.99390  0.81520  0.88310  Biso   1.000  O
  O141     1.0000 0.81520  0.38310  0.49390  Biso   1.000  O
  O142     1.0000 0.93480  0.88310  0.75610  Biso   1.000  O
  O143     1.0000 0.88310  0.25610  0.43480  Biso   1.000  O
  O144     1.0000 0.86690  0.75610  0.81520  Biso   1.000  O
  O145     1.0000 0.68480  0.24390  0.13310  Biso   1.000  O
  O146     1.0000 0.18480  0.00610  0.61690  Biso   1.000  O
  O147     1.0000 0.06520  0.74390  0.11690  Biso   1.000  O
  O148     1.0000 0.13310  0.68480  0.24390  Biso   1.000  O
  O149     1.0000 0.61690  0.18480  0.00610  Biso   1.000  O
  O150     1.0000 0.11690  0.06520  0.74390  Biso   1.000  O
  O151     1.0000 0.24390  0.13310  0.68480  Biso   1.000  O
  O152     1.0000 0.00610  0.61690  0.18480  Biso   1.000  O
  O153     1.0000 0.74390  0.11690  0.06520  Biso   1.000  O
  O154     1.0000 0.99390  0.93480  0.86690  Biso   1.000  O
  O155     1.0000 0.93480  0.86690  0.99390  Biso   1.000  O
  O156     1.0000 0.86690  0.99390  0.93480  Biso   1.000  O
  O157     1.0000 0.18480  0.50610  0.11690  Biso   1.000  O
  O158     1.0000 0.06520  0.24390  0.61690  Biso   1.000  O
  O159     1.0000 0.13310  0.18480  0.74390  Biso   1.000  O
  O160     1.0000 0.11690  0.56520  0.24390  Biso   1.000  O
  O161     1.0000 0.24390  0.63310  0.18480  Biso   1.000  O
  O162     1.0000 0.00610  0.11690  0.68480  Biso   1.000  O
  O163     1.0000 0.25610  0.31520  0.86690  Biso   1.000  O
  O164     1.0000 0.99390  0.43480  0.36690  Biso   1.000  O
  O165     1.0000 0.31520  0.38310  0.99390  Biso   1.000  O
  O166     1.0000 0.93480  0.36690  0.49390  Biso   1.000  O
  O167     1.0000 0.38310  0.25610  0.93480  Biso   1.000  O
  O168     1.0000 0.86690  0.49390  0.43480  Biso   1.000  O
  O169     1.0000 0.18480  0.24390  0.63310  Biso   1.000  O
  O170     1.0000 0.68480  0.00610  0.11690  Biso   1.000  O
  O171     1.0000 0.11690  0.18480  0.50610  Biso   1.000  O
  O172     1.0000 0.61690  0.06520  0.24390  Biso   1.000  O
  O173     1.0000 0.74390  0.13310  0.18480  Biso   1.000  O
  O174     1.0000 0.24390  0.11690  0.56520  Biso   1.000  O
  O175     1.0000 0.49390  0.93480  0.36690  Biso   1.000  O
  O176     1.0000 0.99390  0.31520  0.38310  Biso   1.000  O
  O177     1.0000 0.93480  0.38310  0.25610  Biso   1.000  O
  O178     1.0000 0.43480  0.86690  0.49390  Biso   1.000  O
  O179     1.0000 0.86690  0.25610  0.31520  Biso   1.000  O
  O180     1.0000 0.36690  0.99390  0.43480  Biso   1.000  O
  O181     1.0000 0.18480  0.74390  0.13310  Biso   1.000  O
  O182     1.0000 0.56520  0.24390  0.11690  Biso   1.000  O
  O183     1.0000 0.63310  0.18480  0.24390  Biso   1.000  O
  O184     1.0000 0.11690  0.68480  0.00610  Biso   1.000  O
  O185     1.0000 0.50610  0.11690  0.18480  Biso   1.000  O
  O186     1.0000 0.24390  0.61690  0.06520  Biso   1.000  O
  O187     1.0000 0.49390  0.43480  0.86690  Biso   1.000  O
  O188     1.0000 0.25610  0.93480  0.38310  Biso   1.000  O
  O189     1.0000 0.43480  0.36690  0.99390  Biso   1.000  O
  O190     1.0000 0.31520  0.86690  0.25610  Biso   1.000  O
  O191     1.0000 0.38310  0.99390  0.31520  Biso   1.000  O
  O192     1.0000 0.36690  0.49390  0.93480  Biso   1.000  O
  O193     1.0000 0.43480  0.49390  0.36690  Biso   1.000  O
  O194     1.0000 0.36690  0.43480  0.49390  Biso   1.000  O
  O195     1.0000 0.49390  0.36690  0.43480  Biso   1.000  O
  O196     1.0000 0.24390  0.68480  0.63310  Biso   1.000  O
  O197     1.0000 0.74390  0.56520  0.11690  Biso   1.000  O
  O198     1.0000 0.50610  0.18480  0.61690  Biso   1.000  O
  O199     1.0000 0.18480  0.61690  0.50610  Biso   1.000  O
  O200     1.0000 0.56520  0.11690  0.74390  Biso   1.000  O
  O201     1.0000 0.68480  0.63310  0.24390  Biso   1.000  O
  O202     1.0000 0.11690  0.74390  0.56520  Biso   1.000  O
  O203     1.0000 0.61690  0.50610  0.18480  Biso   1.000  O
  O204     1.0000 0.63310  0.24390  0.68480  Biso   1.000  O
  O205     1.0000 0.43480  0.99390  0.86690  Biso   1.000  O
  O206     1.0000 0.81520  0.75610  0.36690  Biso   1.000  O
  O207     1.0000 0.36690  0.93480  0.99390  Biso   1.000  O
  O208     1.0000 0.88310  0.81520  0.49390  Biso   1.000  O
  O209     1.0000 0.49390  0.86690  0.93480  Biso   1.000  O
  O210     1.0000 0.75610  0.88310  0.43480  Biso   1.000  O
  O211     1.0000 0.74390  0.06520  0.61690  Biso   1.000  O
  O212     1.0000 0.50610  0.68480  0.11690  Biso   1.000  O
  O213     1.0000 0.56520  0.61690  0.24390  Biso   1.000  O
  O214     1.0000 0.68480  0.13310  0.74390  Biso   1.000  O
  O215     1.0000 0.61690  0.00610  0.68480  Biso   1.000  O
  O216     1.0000 0.63310  0.74390  0.18480  Biso   1.000  O
  O217     1.0000 0.93480  0.49390  0.86690  Biso   1.000  O
  O218     1.0000 0.43480  0.75610  0.88310  Biso   1.000  O
  O219     1.0000 0.86690  0.43480  0.99390  Biso   1.000  O
  O220     1.0000 0.36690  0.81520  0.75610  Biso   1.000  O
  O221     1.0000 0.99390  0.36690  0.93480  Biso   1.000  O
  O222     1.0000 0.49390  0.88310  0.81520  Biso   1.000  O
  O223     1.0000 0.74390  0.68480  0.13310  Biso   1.000  O
  O224     1.0000 0.24390  0.56520  0.61690  Biso   1.000  O
  O225     1.0000 0.68480  0.61690  0.00610  Biso   1.000  O
  O226     1.0000 0.18480  0.63310  0.74390  Biso   1.000  O
  O227     1.0000 0.61690  0.74390  0.06520  Biso   1.000  O
  O228     1.0000 0.11690  0.50610  0.68480  Biso   1.000  O
  O229     1.0000 0.93480  0.99390  0.36690  Biso   1.000  O
  O230     1.0000 0.81520  0.49390  0.88310  Biso   1.000  O
  O231     1.0000 0.86690  0.93480  0.49390  Biso   1.000  O
  O232     1.0000 0.88310  0.43480  0.75610  Biso   1.000  O
  O233     1.0000 0.99390  0.86690  0.43480  Biso   1.000  O
  O234     1.0000 0.75610  0.36690  0.81520  Biso   1.000  O
  O235     1.0000 0.74390  0.18480  0.63310  Biso   1.000  O
  O236     1.0000 0.00610  0.68480  0.61690  Biso   1.000  O
  O237     1.0000 0.68480  0.11690  0.50610  Biso   1.000  O
  O238     1.0000 0.06520  0.61690  0.74390  Biso   1.000  O
  O239     1.0000 0.61690  0.24390  0.56520  Biso   1.000  O
  O240     1.0000 0.13310  0.74390  0.68480  Biso   1.000  O
  O241     1.0000 0.81520  0.25610  0.86690  Biso   1.000  O
  O242     1.0000 0.31520  0.99390  0.88310  Biso   1.000  O
  O243     1.0000 0.93480  0.75610  0.38310  Biso   1.000  O
  O244     1.0000 0.86690  0.81520  0.25610  Biso   1.000  O
  O245     1.0000 0.88310  0.31520  0.99390  Biso   1.000  O
  O246     1.0000 0.38310  0.93480  0.75610  Biso   1.000  O
  O247     1.0000 0.25610  0.86690  0.81520  Biso   1.000  O
  O248     1.0000 0.99390  0.88310  0.31520  Biso   1.000  O
  O249     1.0000 0.75610  0.38310  0.93480  Biso   1.000  O
  O250     1.0000 0.00610  0.06520  0.13310  Biso   1.000  O
  O251     1.0000 0.06520  0.13310  0.00610  Biso   1.000  O
  O252     1.0000 0.13310  0.00610  0.06520  Biso   1.000  O
  O253     1.0000 0.31520  0.49390  0.38310  Biso   1.000  O
  O254     1.0000 0.93480  0.25610  0.88310  Biso   1.000  O
  O255     1.0000 0.86690  0.31520  0.75610  Biso   1.000  O
  O256     1.0000 0.38310  0.43480  0.25610  Biso   1.000  O
  O257     1.0000 0.25610  0.36690  0.31520  Biso   1.000  O
  O258     1.0000 0.99390  0.38310  0.81520  Biso   1.000  O
  O259     1.0000 0.24390  0.18480  0.13310  Biso   1.000  O
  O260     1.0000 0.00610  0.56520  0.63310  Biso   1.000  O
  O261     1.0000 0.18480  0.11690  0.00610  Biso   1.000  O
  O262     1.0000 0.06520  0.63310  0.50610  Biso   1.000  O
  O263     1.0000 0.11690  0.24390  0.06520  Biso   1.000  O
  O264     1.0000 0.13310  0.50610  0.56520  Biso   1.000  O
  O265     1.0000 0.31520  0.25610  0.36690  Biso   1.000  O
  O266     1.0000 0.81520  0.99390  0.38310  Biso   1.000  O
  O267     1.0000 0.38310  0.31520  0.49390  Biso   1.000  O
  O268     1.0000 0.88310  0.93480  0.25610  Biso   1.000  O
  O269     1.0000 0.75610  0.86690  0.31520  Biso   1.000  O
  O270     1.0000 0.25610  0.38310  0.43480  Biso   1.000  O
  O271     1.0000 0.50610  0.06520  0.63310  Biso   1.000  O
  O272     1.0000 0.00610  0.18480  0.11690  Biso   1.000  O
  O273     1.0000 0.06520  0.11690  0.24390  Biso   1.000  O
  O274     1.0000 0.56520  0.13310  0.50610  Biso   1.000  O
  O275     1.0000 0.13310  0.24390  0.18480  Biso   1.000  O
  O276     1.0000 0.63310  0.00610  0.56520  Biso   1.000  O
  O277     1.0000 0.31520  0.75610  0.86690  Biso   1.000  O
  O278     1.0000 0.43480  0.25610  0.38310  Biso   1.000  O
  O279     1.0000 0.36690  0.31520  0.25610  Biso   1.000  O
  O280     1.0000 0.38310  0.81520  0.99390  Biso   1.000  O
  O281     1.0000 0.49390  0.38310  0.31520  Biso   1.000  O
  O282     1.0000 0.25610  0.88310  0.93480  Biso   1.000  O
  O283     1.0000 0.50610  0.56520  0.13310  Biso   1.000  O
  O284     1.0000 0.24390  0.06520  0.11690  Biso   1.000  O
  O285     1.0000 0.56520  0.63310  0.00610  Biso   1.000  O
  O286     1.0000 0.18480  0.13310  0.24390  Biso   1.000  O
  O287     1.0000 0.11690  0.00610  0.18480  Biso   1.000  O
  O288     1.0000 0.63310  0.50610  0.06520  Biso   1.000  O
