data_image0
_cell_length_a       24.743
_cell_length_b       24.743
_cell_length_c       24.743
_cell_angle_alpha    90
_cell_angle_beta     90
_cell_angle_gamma    90

_symmetry_space_group_name_H-M    "P 1"
_symmetry_int_tables_number       1

loop_
  _symmetry_equiv_pos_as_xyz
  'x, y, z'

loop_
  _atom_site_label
  _atom_site_occupancy
  _atom_site_fract_x
  _atom_site_fract_y
  _atom_site_fract_z
  _atom_site_thermal_displace_type
  _atom_site_B_iso_or_equiv
  _atom_site_type_symbol
  Cu1      1.0000 0.80650  0.50000  0.05650  Biso   1.000  Cu
  Cu2      1.0000 0.05650  0.80650  0.50000  Biso   1.000  Cu
  Cu3      1.0000 0.50000  0.05650  0.80650  Biso   1.000  Cu
  Cu4      1.0000 0.25000  0.05650  0.94350  Biso   1.000  Cu
  Cu5      1.0000 0.75000  0.19350  0.80650  Biso   1.000  Cu
  Cu6      1.0000 0.50000  0.55650  0.30650  Biso   1.000  Cu
  Cu7      1.0000 0.55650  0.30650  0.50000  Biso   1.000  Cu
  Cu8      1.0000 0.19350  0.80650  0.75000  Biso   1.000  Cu
  Cu9      1.0000 0.05650  0.94350  0.25000  Biso   1.000  Cu
  Cu10     1.0000 0.80650  0.75000  0.19350  Biso   1.000  Cu
  Cu11     1.0000 0.30650  0.50000  0.55650  Biso   1.000  Cu
  Cu12     1.0000 0.94350  0.25000  0.05650  Biso   1.000  Cu
  Cu13     1.0000 0.80650  0.00000  0.55650  Biso   1.000  Cu
  Cu14     1.0000 0.44350  0.75000  0.05650  Biso   1.000  Cu
  Cu15     1.0000 0.05650  0.30650  0.00000  Biso   1.000  Cu
  Cu16     1.0000 0.19350  0.44350  0.50000  Biso   1.000  Cu
  Cu17     1.0000 0.75000  0.69350  0.30650  Biso   1.000  Cu
  Cu18     1.0000 0.19350  0.30650  0.25000  Biso   1.000  Cu
  Cu19     1.0000 0.05650  0.44350  0.75000  Biso   1.000  Cu
  Cu20     1.0000 0.30650  0.00000  0.05650  Biso   1.000  Cu
  Cu21     1.0000 0.94350  0.75000  0.55650  Biso   1.000  Cu
  Cu22     1.0000 0.55650  0.80650  0.00000  Biso   1.000  Cu
  Cu23     1.0000 0.00000  0.05650  0.30650  Biso   1.000  Cu
  Cu24     1.0000 0.50000  0.19350  0.44350  Biso   1.000  Cu
  Cu25     1.0000 0.75000  0.05650  0.44350  Biso   1.000  Cu
  Cu26     1.0000 0.25000  0.19350  0.30650  Biso   1.000  Cu
  Cu27     1.0000 0.55650  0.94350  0.75000  Biso   1.000  Cu
  Cu28     1.0000 0.30650  0.75000  0.69350  Biso   1.000  Cu
  Cu29     1.0000 0.44350  0.50000  0.19350  Biso   1.000  Cu
  Cu30     1.0000 0.00000  0.55650  0.80650  Biso   1.000  Cu
  Cu31     1.0000 0.75000  0.55650  0.94350  Biso   1.000  Cu
  Cu32     1.0000 0.69350  0.30650  0.75000  Biso   1.000  Cu
  Cu33     1.0000 0.30650  0.25000  0.19350  Biso   1.000  Cu
  Cu34     1.0000 0.44350  0.25000  0.55650  Biso   1.000  Cu
  Cu35     1.0000 0.94350  0.00000  0.19350  Biso   1.000  Cu
  Cu36     1.0000 0.55650  0.44350  0.25000  Biso   1.000  Cu
  Cu37     1.0000 0.19350  0.94350  0.00000  Biso   1.000  Cu
  Cu38     1.0000 0.25000  0.55650  0.44350  Biso   1.000  Cu
  Cu39     1.0000 0.00000  0.19350  0.94350  Biso   1.000  Cu
  Cu40     1.0000 0.00000  0.69350  0.44350  Biso   1.000  Cu
  Cu41     1.0000 0.69350  0.44350  0.00000  Biso   1.000  Cu
  Cu42     1.0000 0.44350  0.00000  0.69350  Biso   1.000  Cu
  Cu43     1.0000 0.94350  0.50000  0.69350  Biso   1.000  Cu
  Cu44     1.0000 0.69350  0.80650  0.25000  Biso   1.000  Cu
  Cu45     1.0000 0.69350  0.94350  0.50000  Biso   1.000  Cu
  Cu46     1.0000 0.80650  0.25000  0.69350  Biso   1.000  Cu
  Cu47     1.0000 0.25000  0.69350  0.80650  Biso   1.000  Cu
  Cu48     1.0000 0.50000  0.69350  0.94350  Biso   1.000  Cu
  Cu49     1.0000 0.19350  0.50000  0.94350  Biso   1.000  Cu
  Cu50     1.0000 0.94350  0.19350  0.50000  Biso   1.000  Cu
  Cu51     1.0000 0.50000  0.94350  0.19350  Biso   1.000  Cu
  Cu52     1.0000 0.25000  0.44350  0.05650  Biso   1.000  Cu
  Cu53     1.0000 0.75000  0.80650  0.69350  Biso   1.000  Cu
  Cu54     1.0000 0.80650  0.69350  0.75000  Biso   1.000  Cu
  Cu55     1.0000 0.44350  0.05650  0.25000  Biso   1.000  Cu
  Cu56     1.0000 0.69350  0.75000  0.80650  Biso   1.000  Cu
  Cu57     1.0000 0.05650  0.25000  0.44350  Biso   1.000  Cu
  Cu58     1.0000 0.19350  0.00000  0.44350  Biso   1.000  Cu
  Cu59     1.0000 0.05650  0.75000  0.94350  Biso   1.000  Cu
  Cu60     1.0000 0.94350  0.69350  0.00000  Biso   1.000  Cu
  Cu61     1.0000 0.30650  0.05650  0.50000  Biso   1.000  Cu
  Cu62     1.0000 0.50000  0.44350  0.69350  Biso   1.000  Cu
  Cu63     1.0000 0.75000  0.30650  0.19350  Biso   1.000  Cu
  Cu64     1.0000 0.80650  0.19350  0.25000  Biso   1.000  Cu
  Cu65     1.0000 0.44350  0.55650  0.75000  Biso   1.000  Cu
  Cu66     1.0000 0.69350  0.50000  0.44350  Biso   1.000  Cu
  Cu67     1.0000 0.19350  0.75000  0.30650  Biso   1.000  Cu
  Cu68     1.0000 0.44350  0.19350  0.00000  Biso   1.000  Cu
  Cu69     1.0000 0.94350  0.05650  0.75000  Biso   1.000  Cu
  Cu70     1.0000 0.00000  0.94350  0.69350  Biso   1.000  Cu
  Cu71     1.0000 0.50000  0.30650  0.05650  Biso   1.000  Cu
  Cu72     1.0000 0.75000  0.44350  0.55650  Biso   1.000  Cu
  Cu73     1.0000 0.25000  0.80650  0.19350  Biso   1.000  Cu
  Cu74     1.0000 0.69350  0.00000  0.94350  Biso   1.000  Cu
  Cu75     1.0000 0.05650  0.50000  0.30650  Biso   1.000  Cu
  Cu76     1.0000 0.44350  0.69350  0.50000  Biso   1.000  Cu
  Cu77     1.0000 0.30650  0.19350  0.75000  Biso   1.000  Cu
  Cu78     1.0000 0.00000  0.44350  0.19350  Biso   1.000  Cu
  Cu79     1.0000 0.75000  0.94350  0.05650  Biso   1.000  Cu
  Cu80     1.0000 0.19350  0.25000  0.80650  Biso   1.000  Cu
  Cu81     1.0000 0.55650  0.75000  0.44350  Biso   1.000  Cu
  Cu82     1.0000 0.55650  0.00000  0.30650  Biso   1.000  Cu
  Cu83     1.0000 0.30650  0.55650  0.00000  Biso   1.000  Cu
  Cu84     1.0000 0.00000  0.30650  0.55650  Biso   1.000  Cu
  Cu85     1.0000 0.55650  0.50000  0.80650  Biso   1.000  Cu
  Cu86     1.0000 0.69350  0.25000  0.30650  Biso   1.000  Cu
  Cu87     1.0000 0.25000  0.94350  0.55650  Biso   1.000  Cu
  Cu88     1.0000 0.00000  0.80650  0.05650  Biso   1.000  Cu
  Cu89     1.0000 0.55650  0.25000  0.94350  Biso   1.000  Cu
  Cu90     1.0000 0.05650  0.00000  0.80650  Biso   1.000  Cu
  Cu91     1.0000 0.80650  0.55650  0.50000  Biso   1.000  Cu
  Cu92     1.0000 0.30650  0.69350  0.25000  Biso   1.000  Cu
  Cu93     1.0000 0.94350  0.55650  0.25000  Biso   1.000  Cu
  Cu94     1.0000 0.80650  0.05650  0.00000  Biso   1.000  Cu
  Cu95     1.0000 0.50000  0.80650  0.55650  Biso   1.000  Cu
  Cu96     1.0000 0.25000  0.30650  0.69350  Biso   1.000  Cu
  O1       1.0000 0.75000  0.50000  0.00000  Biso   1.000  O
  O2       1.0000 0.00000  0.75000  0.50000  Biso   1.000  O
  O3       1.0000 0.50000  0.00000  0.75000  Biso   1.000  O
  O4       1.0000 0.25000  0.00000  0.00000  Biso   1.000  O
  O5       1.0000 0.75000  0.25000  0.75000  Biso   1.000  O
  O6       1.0000 0.50000  0.50000  0.25000  Biso   1.000  O
  O7       1.0000 0.50000  0.25000  0.50000  Biso   1.000  O
  O8       1.0000 0.25000  0.75000  0.75000  Biso   1.000  O
  O9       1.0000 0.00000  0.00000  0.25000  Biso   1.000  O
  O10      1.0000 0.75000  0.75000  0.25000  Biso   1.000  O
  O11      1.0000 0.25000  0.50000  0.50000  Biso   1.000  O
  O12      1.0000 0.00000  0.25000  0.00000  Biso   1.000  O
  O13      1.0000 0.75000  0.00000  0.50000  Biso   1.000  O
  O14      1.0000 0.50000  0.75000  0.00000  Biso   1.000  O
  O15      1.0000 0.25000  0.25000  0.25000  Biso   1.000  O
  O16      1.0000 0.00000  0.50000  0.75000  Biso   1.000  O
  O17      1.0000 0.25000  0.50000  0.00000  Biso   1.000  O
  O18      1.0000 0.00000  0.25000  0.50000  Biso   1.000  O
  O19      1.0000 0.50000  0.00000  0.25000  Biso   1.000  O
  O20      1.0000 0.75000  0.75000  0.75000  Biso   1.000  O
  O21      1.0000 0.25000  0.00000  0.50000  Biso   1.000  O
  O22      1.0000 0.00000  0.75000  0.00000  Biso   1.000  O
  O23      1.0000 0.50000  0.50000  0.75000  Biso   1.000  O
  O24      1.0000 0.75000  0.25000  0.25000  Biso   1.000  O
  O25      1.0000 0.75000  0.50000  0.50000  Biso   1.000  O
  O26      1.0000 0.25000  0.75000  0.25000  Biso   1.000  O
  O27      1.0000 0.50000  0.25000  0.00000  Biso   1.000  O
  O28      1.0000 0.00000  0.00000  0.75000  Biso   1.000  O
  O29      1.0000 0.75000  0.00000  0.00000  Biso   1.000  O
  O30      1.0000 0.00000  0.50000  0.25000  Biso   1.000  O
  O31      1.0000 0.50000  0.75000  0.50000  Biso   1.000  O
  O32      1.0000 0.25000  0.25000  0.75000  Biso   1.000  O
  N1       1.0000 0.86360  0.50000  0.11360  Biso   1.000  N
  N2       1.0000 0.11360  0.86360  0.50000  Biso   1.000  N
  N3       1.0000 0.50000  0.11360  0.86360  Biso   1.000  N
  N4       1.0000 0.25000  0.11360  0.88640  Biso   1.000  N
  N5       1.0000 0.75000  0.13640  0.86360  Biso   1.000  N
  N6       1.0000 0.50000  0.61360  0.36360  Biso   1.000  N
  N7       1.0000 0.61360  0.36360  0.50000  Biso   1.000  N
  N8       1.0000 0.13640  0.86360  0.75000  Biso   1.000  N
  N9       1.0000 0.11360  0.88640  0.25000  Biso   1.000  N
  N10      1.0000 0.86360  0.75000  0.13640  Biso   1.000  N
  N11      1.0000 0.36360  0.50000  0.61360  Biso   1.000  N
  N12      1.0000 0.88640  0.25000  0.11360  Biso   1.000  N
  N13      1.0000 0.86360  0.00000  0.61360  Biso   1.000  N
  N14      1.0000 0.38640  0.75000  0.11360  Biso   1.000  N
  N15      1.0000 0.11360  0.36360  0.00000  Biso   1.000  N
  N16      1.0000 0.13640  0.38640  0.50000  Biso   1.000  N
  N17      1.0000 0.75000  0.63640  0.36360  Biso   1.000  N
  N18      1.0000 0.13640  0.36360  0.25000  Biso   1.000  N
  N19      1.0000 0.11360  0.38640  0.75000  Biso   1.000  N
  N20      1.0000 0.36360  0.00000  0.11360  Biso   1.000  N
  N21      1.0000 0.88640  0.75000  0.61360  Biso   1.000  N
  N22      1.0000 0.61360  0.86360  0.00000  Biso   1.000  N
  N23      1.0000 0.00000  0.11360  0.36360  Biso   1.000  N
  N24      1.0000 0.50000  0.13640  0.38640  Biso   1.000  N
  N25      1.0000 0.75000  0.11360  0.38640  Biso   1.000  N
  N26      1.0000 0.25000  0.13640  0.36360  Biso   1.000  N
  N27      1.0000 0.61360  0.88640  0.75000  Biso   1.000  N
  N28      1.0000 0.36360  0.75000  0.63640  Biso   1.000  N
  N29      1.0000 0.38640  0.50000  0.13640  Biso   1.000  N
  N30      1.0000 0.00000  0.61360  0.86360  Biso   1.000  N
  N31      1.0000 0.75000  0.61360  0.88640  Biso   1.000  N
  N32      1.0000 0.63640  0.36360  0.75000  Biso   1.000  N
  N33      1.0000 0.36360  0.25000  0.13640  Biso   1.000  N
  N34      1.0000 0.38640  0.25000  0.61360  Biso   1.000  N
  N35      1.0000 0.88640  0.00000  0.13640  Biso   1.000  N
  N36      1.0000 0.61360  0.38640  0.25000  Biso   1.000  N
  N37      1.0000 0.13640  0.88640  0.00000  Biso   1.000  N
  N38      1.0000 0.25000  0.61360  0.38640  Biso   1.000  N
  N39      1.0000 0.00000  0.13640  0.88640  Biso   1.000  N
  N40      1.0000 0.00000  0.63640  0.38640  Biso   1.000  N
  N41      1.0000 0.63640  0.38640  0.00000  Biso   1.000  N
  N42      1.0000 0.38640  0.00000  0.63640  Biso   1.000  N
  N43      1.0000 0.88640  0.50000  0.63640  Biso   1.000  N
  N44      1.0000 0.63640  0.86360  0.25000  Biso   1.000  N
  N45      1.0000 0.63640  0.88640  0.50000  Biso   1.000  N
  N46      1.0000 0.86360  0.25000  0.63640  Biso   1.000  N
  N47      1.0000 0.25000  0.63640  0.86360  Biso   1.000  N
  N48      1.0000 0.50000  0.63640  0.88640  Biso   1.000  N
  N49      1.0000 0.13640  0.50000  0.88640  Biso   1.000  N
  N50      1.0000 0.88640  0.13640  0.50000  Biso   1.000  N
  N51      1.0000 0.50000  0.88640  0.13640  Biso   1.000  N
  N52      1.0000 0.25000  0.38640  0.11360  Biso   1.000  N
  N53      1.0000 0.75000  0.86360  0.63640  Biso   1.000  N
  N54      1.0000 0.86360  0.63640  0.75000  Biso   1.000  N
  N55      1.0000 0.38640  0.11360  0.25000  Biso   1.000  N
  N56      1.0000 0.63640  0.75000  0.86360  Biso   1.000  N
  N57      1.0000 0.11360  0.25000  0.38640  Biso   1.000  N
  N58      1.0000 0.13640  0.00000  0.38640  Biso   1.000  N
  N59      1.0000 0.11360  0.75000  0.88640  Biso   1.000  N
  N60      1.0000 0.88640  0.63640  0.00000  Biso   1.000  N
  N61      1.0000 0.36360  0.11360  0.50000  Biso   1.000  N
  N62      1.0000 0.50000  0.38640  0.63640  Biso   1.000  N
  N63      1.0000 0.75000  0.36360  0.13640  Biso   1.000  N
  N64      1.0000 0.86360  0.13640  0.25000  Biso   1.000  N
  N65      1.0000 0.38640  0.61360  0.75000  Biso   1.000  N
  N66      1.0000 0.63640  0.50000  0.38640  Biso   1.000  N
  N67      1.0000 0.13640  0.75000  0.36360  Biso   1.000  N
  N68      1.0000 0.38640  0.13640  0.00000  Biso   1.000  N
  N69      1.0000 0.88640  0.11360  0.75000  Biso   1.000  N
  N70      1.0000 0.00000  0.88640  0.63640  Biso   1.000  N
  N71      1.0000 0.50000  0.36360  0.11360  Biso   1.000  N
  N72      1.0000 0.75000  0.38640  0.61360  Biso   1.000  N
  N73      1.0000 0.25000  0.86360  0.13640  Biso   1.000  N
  N74      1.0000 0.63640  0.00000  0.88640  Biso   1.000  N
  N75      1.0000 0.11360  0.50000  0.36360  Biso   1.000  N
  N76      1.0000 0.38640  0.63640  0.50000  Biso   1.000  N
  N77      1.0000 0.36360  0.13640  0.75000  Biso   1.000  N
  N78      1.0000 0.00000  0.38640  0.13640  Biso   1.000  N
  N79      1.0000 0.75000  0.88640  0.11360  Biso   1.000  N
  N80      1.0000 0.13640  0.25000  0.86360  Biso   1.000  N
  N81      1.0000 0.61360  0.75000  0.38640  Biso   1.000  N
  N82      1.0000 0.61360  0.00000  0.36360  Biso   1.000  N
  N83      1.0000 0.36360  0.61360  0.00000  Biso   1.000  N
  N84      1.0000 0.00000  0.36360  0.61360  Biso   1.000  N
  N85      1.0000 0.61360  0.50000  0.86360  Biso   1.000  N
  N86      1.0000 0.63640  0.25000  0.36360  Biso   1.000  N
  N87      1.0000 0.25000  0.88640  0.61360  Biso   1.000  N
  N88      1.0000 0.00000  0.86360  0.11360  Biso   1.000  N
  N89      1.0000 0.61360  0.25000  0.88640  Biso   1.000  N
  N90      1.0000 0.11360  0.00000  0.86360  Biso   1.000  N
  N91      1.0000 0.86360  0.61360  0.50000  Biso   1.000  N
  N92      1.0000 0.36360  0.63640  0.25000  Biso   1.000  N
  N93      1.0000 0.88640  0.61360  0.25000  Biso   1.000  N
  N94      1.0000 0.86360  0.11360  0.00000  Biso   1.000  N
  N95      1.0000 0.50000  0.86360  0.61360  Biso   1.000  N
  N96      1.0000 0.25000  0.36360  0.63640  Biso   1.000  N
  N97      1.0000 0.91060  0.52070  0.18660  Biso   1.000  N
  N98      1.0000 0.18660  0.91060  0.52070  Biso   1.000  N
  N99      1.0000 0.52070  0.18660  0.91060  Biso   1.000  N
  N100     1.0000 0.27070  0.16060  0.81340  Biso   1.000  N
  N101     1.0000 0.77070  0.08940  0.93660  Biso   1.000  N
  N102     1.0000 0.47930  0.66060  0.43660  Biso   1.000  N
  N103     1.0000 0.66060  0.43660  0.47930  Biso   1.000  N
  N104     1.0000 0.08940  0.93660  0.77070  Biso   1.000  N
  N105     1.0000 0.16060  0.81340  0.27070  Biso   1.000  N
  N106     1.0000 0.93660  0.77070  0.08940  Biso   1.000  N
  N107     1.0000 0.43660  0.47930  0.66060  Biso   1.000  N
  N108     1.0000 0.81340  0.27070  0.16060  Biso   1.000  N
  N109     1.0000 0.91060  0.02070  0.68660  Biso   1.000  N
  N110     1.0000 0.33940  0.72930  0.18660  Biso   1.000  N
  N111     1.0000 0.18660  0.41060  0.02070  Biso   1.000  N
  N112     1.0000 0.06340  0.33940  0.52070  Biso   1.000  N
  N113     1.0000 0.52070  0.68660  0.41060  Biso   1.000  N
  N114     1.0000 0.72930  0.06340  0.91060  Biso   1.000  N
  N115     1.0000 0.77070  0.58940  0.43660  Biso   1.000  N
  N116     1.0000 0.47930  0.16060  0.93660  Biso   1.000  N
  N117     1.0000 0.08940  0.43660  0.27070  Biso   1.000  N
  N118     1.0000 0.16060  0.31340  0.77070  Biso   1.000  N
  N119     1.0000 0.43660  0.97930  0.16060  Biso   1.000  N
  N120     1.0000 0.81340  0.77070  0.66060  Biso   1.000  N
  N121     1.0000 0.41060  0.52070  0.68660  Biso   1.000  N
  N122     1.0000 0.91060  0.72930  0.06340  Biso   1.000  N
  N123     1.0000 0.68660  0.91060  0.02070  Biso   1.000  N
  N124     1.0000 0.18660  0.33940  0.72930  Biso   1.000  N
  N125     1.0000 0.02070  0.18660  0.41060  Biso   1.000  N
  N126     1.0000 0.52070  0.06340  0.33940  Biso   1.000  N
  N127     1.0000 0.77070  0.16060  0.31340  Biso   1.000  N
  N128     1.0000 0.27070  0.08940  0.43660  Biso   1.000  N
  N129     1.0000 0.16060  0.43660  0.97930  Biso   1.000  N
  N130     1.0000 0.66060  0.81340  0.77070  Biso   1.000  N
  N131     1.0000 0.43660  0.77070  0.58940  Biso   1.000  N
  N132     1.0000 0.93660  0.47930  0.16060  Biso   1.000  N
  N133     1.0000 0.41060  0.02070  0.18660  Biso   1.000  N
  N134     1.0000 0.33940  0.52070  0.06340  Biso   1.000  N
  N135     1.0000 0.68660  0.41060  0.52070  Biso   1.000  N
  N136     1.0000 0.06340  0.91060  0.72930  Biso   1.000  N
  N137     1.0000 0.02070  0.68660  0.91060  Biso   1.000  N
  N138     1.0000 0.72930  0.18660  0.33940  Biso   1.000  N
  N139     1.0000 0.77070  0.66060  0.81340  Biso   1.000  N
  N140     1.0000 0.97930  0.16060  0.43660  Biso   1.000  N
  N141     1.0000 0.16060  0.93660  0.47930  Biso   1.000  N
  N142     1.0000 0.58940  0.43660  0.77070  Biso   1.000  N
  N143     1.0000 0.43660  0.27070  0.08940  Biso   1.000  N
  N144     1.0000 0.31340  0.77070  0.16060  Biso   1.000  N
  N145     1.0000 0.33940  0.22930  0.68660  Biso   1.000  N
  N146     1.0000 0.83940  0.02070  0.06340  Biso   1.000  N
  N147     1.0000 0.41060  0.72930  0.56340  Biso   1.000  N
  N148     1.0000 0.68660  0.33940  0.22930  Biso   1.000  N
  N149     1.0000 0.06340  0.83940  0.02070  Biso   1.000  N
  N150     1.0000 0.56340  0.41060  0.72930  Biso   1.000  N
  N151     1.0000 0.22930  0.68660  0.33940  Biso   1.000  N
  N152     1.0000 0.02070  0.06340  0.83940  Biso   1.000  N
  N153     1.0000 0.72930  0.56340  0.41060  Biso   1.000  N
  N154     1.0000 0.97930  0.58940  0.31340  Biso   1.000  N
  N155     1.0000 0.58940  0.31340  0.97930  Biso   1.000  N
  N156     1.0000 0.31340  0.97930  0.58940  Biso   1.000  N
  N157     1.0000 0.83940  0.52070  0.56340  Biso   1.000  N
  N158     1.0000 0.41060  0.22930  0.06340  Biso   1.000  N
  N159     1.0000 0.68660  0.83940  0.72930  Biso   1.000  N
  N160     1.0000 0.56340  0.91060  0.22930  Biso   1.000  N
  N161     1.0000 0.22930  0.18660  0.83940  Biso   1.000  N
  N162     1.0000 0.02070  0.56340  0.33940  Biso   1.000  N
  N163     1.0000 0.27070  0.66060  0.31340  Biso   1.000  N
  N164     1.0000 0.97930  0.08940  0.81340  Biso   1.000  N
  N165     1.0000 0.66060  0.93660  0.97930  Biso   1.000  N
  N166     1.0000 0.58940  0.81340  0.47930  Biso   1.000  N
  N167     1.0000 0.93660  0.27070  0.58940  Biso   1.000  N
  N168     1.0000 0.31340  0.47930  0.08940  Biso   1.000  N
  N169     1.0000 0.83940  0.22930  0.18660  Biso   1.000  N
  N170     1.0000 0.33940  0.02070  0.56340  Biso   1.000  N
  N171     1.0000 0.56340  0.83940  0.52070  Biso   1.000  N
  N172     1.0000 0.06340  0.41060  0.22930  Biso   1.000  N
  N173     1.0000 0.72930  0.68660  0.83940  Biso   1.000  N
  N174     1.0000 0.22930  0.56340  0.91060  Biso   1.000  N
  N175     1.0000 0.47930  0.58940  0.81340  Biso   1.000  N
  N176     1.0000 0.97930  0.66060  0.93660  Biso   1.000  N
  N177     1.0000 0.58940  0.93660  0.27070  Biso   1.000  N
  N178     1.0000 0.08940  0.31340  0.47930  Biso   1.000  N
  N179     1.0000 0.31340  0.27070  0.66060  Biso   1.000  N
  N180     1.0000 0.81340  0.97930  0.08940  Biso   1.000  N
  N181     1.0000 0.83940  0.72930  0.68660  Biso   1.000  N
  N182     1.0000 0.91060  0.22930  0.56340  Biso   1.000  N
  N183     1.0000 0.18660  0.83940  0.22930  Biso   1.000  N
  N184     1.0000 0.56340  0.33940  0.02070  Biso   1.000  N
  N185     1.0000 0.52070  0.56340  0.83940  Biso   1.000  N
  N186     1.0000 0.22930  0.06340  0.41060  Biso   1.000  N
  N187     1.0000 0.47930  0.08940  0.31340  Biso   1.000  N
  N188     1.0000 0.27070  0.58940  0.93660  Biso   1.000  N
  N189     1.0000 0.08940  0.81340  0.97930  Biso   1.000  N
  N190     1.0000 0.66060  0.31340  0.27070  Biso   1.000  N
  N191     1.0000 0.93660  0.97930  0.66060  Biso   1.000  N
  N192     1.0000 0.81340  0.47930  0.58940  Biso   1.000  N
  N193     1.0000 0.08940  0.47930  0.81340  Biso   1.000  N
  N194     1.0000 0.81340  0.08940  0.47930  Biso   1.000  N
  N195     1.0000 0.47930  0.81340  0.08940  Biso   1.000  N
  N196     1.0000 0.22930  0.33940  0.18660  Biso   1.000  N
  N197     1.0000 0.72930  0.91060  0.56340  Biso   1.000  N
  N198     1.0000 0.52070  0.83940  0.06340  Biso   1.000  N
  N199     1.0000 0.83940  0.06340  0.52070  Biso   1.000  N
  N200     1.0000 0.91060  0.56340  0.72930  Biso   1.000  N
  N201     1.0000 0.33940  0.18660  0.22930  Biso   1.000  N
  N202     1.0000 0.56340  0.72930  0.91060  Biso   1.000  N
  N203     1.0000 0.06340  0.52070  0.83940  Biso   1.000  N
  N204     1.0000 0.18660  0.22930  0.33940  Biso   1.000  N
  N205     1.0000 0.08940  0.97930  0.31340  Biso   1.000  N
  N206     1.0000 0.16060  0.77070  0.81340  Biso   1.000  N
  N207     1.0000 0.81340  0.58940  0.97930  Biso   1.000  N
  N208     1.0000 0.43660  0.16060  0.47930  Biso   1.000  N
  N209     1.0000 0.47930  0.31340  0.58940  Biso   1.000  N
  N210     1.0000 0.77070  0.43660  0.08940  Biso   1.000  N
  N211     1.0000 0.72930  0.41060  0.06340  Biso   1.000  N
  N212     1.0000 0.52070  0.33940  0.56340  Biso   1.000  N
  N213     1.0000 0.91060  0.06340  0.22930  Biso   1.000  N
  N214     1.0000 0.33940  0.68660  0.72930  Biso   1.000  N
  N215     1.0000 0.06340  0.02070  0.33940  Biso   1.000  N
  N216     1.0000 0.18660  0.72930  0.83940  Biso   1.000  N
  N217     1.0000 0.58940  0.47930  0.31340  Biso   1.000  N
  N218     1.0000 0.08940  0.77070  0.43660  Biso   1.000  N
  N219     1.0000 0.31340  0.08940  0.97930  Biso   1.000  N
  N220     1.0000 0.81340  0.16060  0.77070  Biso   1.000  N
  N221     1.0000 0.97930  0.81340  0.58940  Biso   1.000  N
  N222     1.0000 0.47930  0.43660  0.16060  Biso   1.000  N
  N223     1.0000 0.72930  0.33940  0.68660  Biso   1.000  N
  N224     1.0000 0.22930  0.91060  0.06340  Biso   1.000  N
  N225     1.0000 0.33940  0.06340  0.02070  Biso   1.000  N
  N226     1.0000 0.83940  0.18660  0.72930  Biso   1.000  N
  N227     1.0000 0.06340  0.72930  0.41060  Biso   1.000  N
  N228     1.0000 0.56340  0.52070  0.33940  Biso   1.000  N
  N229     1.0000 0.58940  0.97930  0.81340  Biso   1.000  N
  N230     1.0000 0.16060  0.47930  0.43660  Biso   1.000  N
  N231     1.0000 0.31340  0.58940  0.47930  Biso   1.000  N
  N232     1.0000 0.43660  0.08940  0.77070  Biso   1.000  N
  N233     1.0000 0.97930  0.31340  0.08940  Biso   1.000  N
  N234     1.0000 0.77070  0.81340  0.16060  Biso   1.000  N
  N235     1.0000 0.72930  0.83940  0.18660  Biso   1.000  N
  N236     1.0000 0.02070  0.33940  0.06340  Biso   1.000  N
  N237     1.0000 0.33940  0.56340  0.52070  Biso   1.000  N
  N238     1.0000 0.41060  0.06340  0.72930  Biso   1.000  N
  N239     1.0000 0.06340  0.22930  0.91060  Biso   1.000  N
  N240     1.0000 0.68660  0.72930  0.33940  Biso   1.000  N
  N241     1.0000 0.16060  0.27070  0.31340  Biso   1.000  N
  N242     1.0000 0.66060  0.97930  0.43660  Biso   1.000  N
  N243     1.0000 0.58940  0.77070  0.93660  Biso   1.000  N
  N244     1.0000 0.31340  0.16060  0.27070  Biso   1.000  N
  N245     1.0000 0.43660  0.66060  0.97930  Biso   1.000  N
  N246     1.0000 0.93660  0.58940  0.77070  Biso   1.000  N
  N247     1.0000 0.27070  0.31340  0.16060  Biso   1.000  N
  N248     1.0000 0.97930  0.43660  0.66060  Biso   1.000  N
  N249     1.0000 0.77070  0.93660  0.58940  Biso   1.000  N
  N250     1.0000 0.02070  0.41060  0.68660  Biso   1.000  N
  N251     1.0000 0.41060  0.68660  0.02070  Biso   1.000  N
  N252     1.0000 0.68660  0.02070  0.41060  Biso   1.000  N
  N253     1.0000 0.66060  0.47930  0.93660  Biso   1.000  N
  N254     1.0000 0.58940  0.27070  0.43660  Biso   1.000  N
  N255     1.0000 0.31340  0.66060  0.77070  Biso   1.000  N
  N256     1.0000 0.93660  0.08940  0.27070  Biso   1.000  N
  N257     1.0000 0.27070  0.81340  0.66060  Biso   1.000  N
  N258     1.0000 0.97930  0.93660  0.16060  Biso   1.000  N
  N259     1.0000 0.22930  0.83940  0.68660  Biso   1.000  N
  N260     1.0000 0.02070  0.91060  0.18660  Biso   1.000  N
  N261     1.0000 0.83940  0.56340  0.02070  Biso   1.000  N
  N262     1.0000 0.41060  0.18660  0.52070  Biso   1.000  N
  N263     1.0000 0.56340  0.22930  0.41060  Biso   1.000  N
  N264     1.0000 0.68660  0.52070  0.91060  Biso   1.000  N
  N265     1.0000 0.66060  0.27070  0.81340  Biso   1.000  N
  N266     1.0000 0.16060  0.97930  0.93660  Biso   1.000  N
  N267     1.0000 0.93660  0.66060  0.47930  Biso   1.000  N
  N268     1.0000 0.43660  0.58940  0.27070  Biso   1.000  N
  N269     1.0000 0.77070  0.31340  0.66060  Biso   1.000  N
  N270     1.0000 0.27070  0.93660  0.08940  Biso   1.000  N
  N271     1.0000 0.52070  0.41060  0.18660  Biso   1.000  N
  N272     1.0000 0.02070  0.83940  0.56340  Biso   1.000  N
  N273     1.0000 0.41060  0.56340  0.22930  Biso   1.000  N
  N274     1.0000 0.91060  0.68660  0.52070  Biso   1.000  N
  N275     1.0000 0.68660  0.22930  0.83940  Biso   1.000  N
  N276     1.0000 0.18660  0.02070  0.91060  Biso   1.000  N
  N277     1.0000 0.66060  0.77070  0.31340  Biso   1.000  N
  N278     1.0000 0.08940  0.27070  0.93660  Biso   1.000  N
  N279     1.0000 0.81340  0.66060  0.27070  Biso   1.000  N
  N280     1.0000 0.93660  0.16060  0.97930  Biso   1.000  N
  N281     1.0000 0.47930  0.93660  0.66060  Biso   1.000  N
  N282     1.0000 0.27070  0.43660  0.58940  Biso   1.000  N
  N283     1.0000 0.52070  0.91060  0.68660  Biso   1.000  N
  N284     1.0000 0.22930  0.41060  0.56340  Biso   1.000  N
  N285     1.0000 0.91060  0.18660  0.02070  Biso   1.000  N
  N286     1.0000 0.83940  0.68660  0.22930  Biso   1.000  N
  N287     1.0000 0.56340  0.02070  0.83940  Biso   1.000  N
  N288     1.0000 0.18660  0.52070  0.41060  Biso   1.000  N
  C1       1.0000 0.86700  0.53170  0.15780  Biso   1.000  C
  C2       1.0000 0.15780  0.86700  0.53170  Biso   1.000  C
  C3       1.0000 0.53170  0.15780  0.86700  Biso   1.000  C
  C4       1.0000 0.28170  0.11700  0.84220  Biso   1.000  C
  C5       1.0000 0.78170  0.13300  0.90780  Biso   1.000  C
  C6       1.0000 0.46830  0.61700  0.40780  Biso   1.000  C
  C7       1.0000 0.61700  0.40780  0.46830  Biso   1.000  C
  C8       1.0000 0.13300  0.90780  0.78170  Biso   1.000  C
  C9       1.0000 0.11700  0.84220  0.28170  Biso   1.000  C
  C10      1.0000 0.90780  0.78170  0.13300  Biso   1.000  C
  C11      1.0000 0.40780  0.46830  0.61700  Biso   1.000  C
  C12      1.0000 0.84220  0.28170  0.11700  Biso   1.000  C
  C13      1.0000 0.86700  0.03170  0.65780  Biso   1.000  C
  C14      1.0000 0.38300  0.71830  0.15780  Biso   1.000  C
  C15      1.0000 0.15780  0.36700  0.03170  Biso   1.000  C
  C16      1.0000 0.09220  0.38300  0.53170  Biso   1.000  C
  C17      1.0000 0.53170  0.65780  0.36700  Biso   1.000  C
  C18      1.0000 0.71830  0.09220  0.86700  Biso   1.000  C
  C19      1.0000 0.78170  0.63300  0.40780  Biso   1.000  C
  C20      1.0000 0.46830  0.11700  0.90780  Biso   1.000  C
  C21      1.0000 0.13300  0.40780  0.28170  Biso   1.000  C
  C22      1.0000 0.11700  0.34220  0.78170  Biso   1.000  C
  C23      1.0000 0.40780  0.96830  0.11700  Biso   1.000  C
  C24      1.0000 0.84220  0.78170  0.61700  Biso   1.000  C
  C25      1.0000 0.36700  0.53170  0.65780  Biso   1.000  C
  C26      1.0000 0.86700  0.71830  0.09220  Biso   1.000  C
  C27      1.0000 0.65780  0.86700  0.03170  Biso   1.000  C
  C28      1.0000 0.15780  0.38300  0.71830  Biso   1.000  C
  C29      1.0000 0.03170  0.15780  0.36700  Biso   1.000  C
  C30      1.0000 0.53170  0.09220  0.38300  Biso   1.000  C
  C31      1.0000 0.78170  0.11700  0.34220  Biso   1.000  C
  C32      1.0000 0.28170  0.13300  0.40780  Biso   1.000  C
  C33      1.0000 0.11700  0.40780  0.96830  Biso   1.000  C
  C34      1.0000 0.61700  0.84220  0.78170  Biso   1.000  C
  C35      1.0000 0.40780  0.78170  0.63300  Biso   1.000  C
  C36      1.0000 0.90780  0.46830  0.11700  Biso   1.000  C
  C37      1.0000 0.36700  0.03170  0.15780  Biso   1.000  C
  C38      1.0000 0.38300  0.53170  0.09220  Biso   1.000  C
  C39      1.0000 0.65780  0.36700  0.53170  Biso   1.000  C
  C40      1.0000 0.09220  0.86700  0.71830  Biso   1.000  C
  C41      1.0000 0.03170  0.65780  0.86700  Biso   1.000  C
  C42      1.0000 0.71830  0.15780  0.38300  Biso   1.000  C
  C43      1.0000 0.78170  0.61700  0.84220  Biso   1.000  C
  C44      1.0000 0.96830  0.11700  0.40780  Biso   1.000  C
  C45      1.0000 0.11700  0.90780  0.46830  Biso   1.000  C
  C46      1.0000 0.63300  0.40780  0.78170  Biso   1.000  C
  C47      1.0000 0.40780  0.28170  0.13300  Biso   1.000  C
  C48      1.0000 0.34220  0.78170  0.11700  Biso   1.000  C
  C49      1.0000 0.38300  0.21830  0.65780  Biso   1.000  C
  C50      1.0000 0.88300  0.03170  0.09220  Biso   1.000  C
  C51      1.0000 0.36700  0.71830  0.59220  Biso   1.000  C
  C52      1.0000 0.65780  0.38300  0.21830  Biso   1.000  C
  C53      1.0000 0.09220  0.88300  0.03170  Biso   1.000  C
  C54      1.0000 0.59220  0.36700  0.71830  Biso   1.000  C
  C55      1.0000 0.21830  0.65780  0.38300  Biso   1.000  C
  C56      1.0000 0.03170  0.09220  0.88300  Biso   1.000  C
  C57      1.0000 0.71830  0.59220  0.36700  Biso   1.000  C
  C58      1.0000 0.96830  0.63300  0.34220  Biso   1.000  C
  C59      1.0000 0.63300  0.34220  0.96830  Biso   1.000  C
  C60      1.0000 0.34220  0.96830  0.63300  Biso   1.000  C
  C61      1.0000 0.88300  0.53170  0.59220  Biso   1.000  C
  C62      1.0000 0.36700  0.21830  0.09220  Biso   1.000  C
  C63      1.0000 0.65780  0.88300  0.71830  Biso   1.000  C
  C64      1.0000 0.59220  0.86700  0.21830  Biso   1.000  C
  C65      1.0000 0.21830  0.15780  0.88300  Biso   1.000  C
  C66      1.0000 0.03170  0.59220  0.38300  Biso   1.000  C
  C67      1.0000 0.28170  0.61700  0.34220  Biso   1.000  C
  C68      1.0000 0.96830  0.13300  0.84220  Biso   1.000  C
  C69      1.0000 0.61700  0.90780  0.96830  Biso   1.000  C
  C70      1.0000 0.63300  0.84220  0.46830  Biso   1.000  C
  C71      1.0000 0.90780  0.28170  0.63300  Biso   1.000  C
  C72      1.0000 0.34220  0.46830  0.13300  Biso   1.000  C
  C73      1.0000 0.88300  0.21830  0.15780  Biso   1.000  C
  C74      1.0000 0.38300  0.03170  0.59220  Biso   1.000  C
  C75      1.0000 0.59220  0.88300  0.53170  Biso   1.000  C
  C76      1.0000 0.09220  0.36700  0.21830  Biso   1.000  C
  C77      1.0000 0.71830  0.65780  0.88300  Biso   1.000  C
  C78      1.0000 0.21830  0.59220  0.86700  Biso   1.000  C
  C79      1.0000 0.46830  0.63300  0.84220  Biso   1.000  C
  C80      1.0000 0.96830  0.61700  0.90780  Biso   1.000  C
  C81      1.0000 0.63300  0.90780  0.28170  Biso   1.000  C
  C82      1.0000 0.13300  0.34220  0.46830  Biso   1.000  C
  C83      1.0000 0.34220  0.28170  0.61700  Biso   1.000  C
  C84      1.0000 0.84220  0.96830  0.13300  Biso   1.000  C
  C85      1.0000 0.88300  0.71830  0.65780  Biso   1.000  C
  C86      1.0000 0.86700  0.21830  0.59220  Biso   1.000  C
  C87      1.0000 0.15780  0.88300  0.21830  Biso   1.000  C
  C88      1.0000 0.59220  0.38300  0.03170  Biso   1.000  C
  C89      1.0000 0.53170  0.59220  0.88300  Biso   1.000  C
  C90      1.0000 0.21830  0.09220  0.36700  Biso   1.000  C
  C91      1.0000 0.46830  0.13300  0.34220  Biso   1.000  C
  C92      1.0000 0.28170  0.63300  0.90780  Biso   1.000  C
  C93      1.0000 0.13300  0.84220  0.96830  Biso   1.000  C
  C94      1.0000 0.61700  0.34220  0.28170  Biso   1.000  C
  C95      1.0000 0.90780  0.96830  0.61700  Biso   1.000  C
  C96      1.0000 0.84220  0.46830  0.63300  Biso   1.000  C
  C97      1.0000 0.13300  0.46830  0.84220  Biso   1.000  C
  C98      1.0000 0.84220  0.13300  0.46830  Biso   1.000  C
  C99      1.0000 0.46830  0.84220  0.13300  Biso   1.000  C
  C100     1.0000 0.21830  0.38300  0.15780  Biso   1.000  C
  C101     1.0000 0.71830  0.86700  0.59220  Biso   1.000  C
  C102     1.0000 0.53170  0.88300  0.09220  Biso   1.000  C
  C103     1.0000 0.88300  0.09220  0.53170  Biso   1.000  C
  C104     1.0000 0.86700  0.59220  0.71830  Biso   1.000  C
  C105     1.0000 0.38300  0.15780  0.21830  Biso   1.000  C
  C106     1.0000 0.59220  0.71830  0.86700  Biso   1.000  C
  C107     1.0000 0.09220  0.53170  0.88300  Biso   1.000  C
  C108     1.0000 0.15780  0.21830  0.38300  Biso   1.000  C
  C109     1.0000 0.13300  0.96830  0.34220  Biso   1.000  C
  C110     1.0000 0.11700  0.78170  0.84220  Biso   1.000  C
  C111     1.0000 0.84220  0.63300  0.96830  Biso   1.000  C
  C112     1.0000 0.40780  0.11700  0.46830  Biso   1.000  C
  C113     1.0000 0.46830  0.34220  0.63300  Biso   1.000  C
  C114     1.0000 0.78170  0.40780  0.13300  Biso   1.000  C
  C115     1.0000 0.71830  0.36700  0.09220  Biso   1.000  C
  C116     1.0000 0.53170  0.38300  0.59220  Biso   1.000  C
  C117     1.0000 0.86700  0.09220  0.21830  Biso   1.000  C
  C118     1.0000 0.38300  0.65780  0.71830  Biso   1.000  C
  C119     1.0000 0.09220  0.03170  0.38300  Biso   1.000  C
  C120     1.0000 0.15780  0.71830  0.88300  Biso   1.000  C
  C121     1.0000 0.63300  0.46830  0.34220  Biso   1.000  C
  C122     1.0000 0.13300  0.78170  0.40780  Biso   1.000  C
  C123     1.0000 0.34220  0.13300  0.96830  Biso   1.000  C
  C124     1.0000 0.84220  0.11700  0.78170  Biso   1.000  C
  C125     1.0000 0.96830  0.84220  0.63300  Biso   1.000  C
  C126     1.0000 0.46830  0.40780  0.11700  Biso   1.000  C
  C127     1.0000 0.71830  0.38300  0.65780  Biso   1.000  C
  C128     1.0000 0.21830  0.86700  0.09220  Biso   1.000  C
  C129     1.0000 0.38300  0.09220  0.03170  Biso   1.000  C
  C130     1.0000 0.88300  0.15780  0.71830  Biso   1.000  C
  C131     1.0000 0.09220  0.71830  0.36700  Biso   1.000  C
  C132     1.0000 0.59220  0.53170  0.38300  Biso   1.000  C
  C133     1.0000 0.63300  0.96830  0.84220  Biso   1.000  C
  C134     1.0000 0.11700  0.46830  0.40780  Biso   1.000  C
  C135     1.0000 0.34220  0.63300  0.46830  Biso   1.000  C
  C136     1.0000 0.40780  0.13300  0.78170  Biso   1.000  C
  C137     1.0000 0.96830  0.34220  0.13300  Biso   1.000  C
  C138     1.0000 0.78170  0.84220  0.11700  Biso   1.000  C
  C139     1.0000 0.71830  0.88300  0.15780  Biso   1.000  C
  C140     1.0000 0.03170  0.38300  0.09220  Biso   1.000  C
  C141     1.0000 0.38300  0.59220  0.53170  Biso   1.000  C
  C142     1.0000 0.36700  0.09220  0.71830  Biso   1.000  C
  C143     1.0000 0.09220  0.21830  0.86700  Biso   1.000  C
  C144     1.0000 0.65780  0.71830  0.38300  Biso   1.000  C
  C145     1.0000 0.11700  0.28170  0.34220  Biso   1.000  C
  C146     1.0000 0.61700  0.96830  0.40780  Biso   1.000  C
  C147     1.0000 0.63300  0.78170  0.90780  Biso   1.000  C
  C148     1.0000 0.34220  0.11700  0.28170  Biso   1.000  C
  C149     1.0000 0.40780  0.61700  0.96830  Biso   1.000  C
  C150     1.0000 0.90780  0.63300  0.78170  Biso   1.000  C
  C151     1.0000 0.28170  0.34220  0.11700  Biso   1.000  C
  C152     1.0000 0.96830  0.40780  0.61700  Biso   1.000  C
  C153     1.0000 0.78170  0.90780  0.63300  Biso   1.000  C
  C154     1.0000 0.03170  0.36700  0.65780  Biso   1.000  C
  C155     1.0000 0.36700  0.65780  0.03170  Biso   1.000  C
  C156     1.0000 0.65780  0.03170  0.36700  Biso   1.000  C
  C157     1.0000 0.61700  0.46830  0.90780  Biso   1.000  C
  C158     1.0000 0.63300  0.28170  0.40780  Biso   1.000  C
  C159     1.0000 0.34220  0.61700  0.78170  Biso   1.000  C
  C160     1.0000 0.90780  0.13300  0.28170  Biso   1.000  C
  C161     1.0000 0.28170  0.84220  0.61700  Biso   1.000  C
  C162     1.0000 0.96830  0.90780  0.11700  Biso   1.000  C
  C163     1.0000 0.21830  0.88300  0.65780  Biso   1.000  C
  C164     1.0000 0.03170  0.86700  0.15780  Biso   1.000  C
  C165     1.0000 0.88300  0.59220  0.03170  Biso   1.000  C
  C166     1.0000 0.36700  0.15780  0.53170  Biso   1.000  C
  C167     1.0000 0.59220  0.21830  0.36700  Biso   1.000  C
  C168     1.0000 0.65780  0.53170  0.86700  Biso   1.000  C
  C169     1.0000 0.61700  0.28170  0.84220  Biso   1.000  C
  C170     1.0000 0.11700  0.96830  0.90780  Biso   1.000  C
  C171     1.0000 0.90780  0.61700  0.46830  Biso   1.000  C
  C172     1.0000 0.40780  0.63300  0.28170  Biso   1.000  C
  C173     1.0000 0.78170  0.34220  0.61700  Biso   1.000  C
  C174     1.0000 0.28170  0.90780  0.13300  Biso   1.000  C
  C175     1.0000 0.53170  0.36700  0.15780  Biso   1.000  C
  C176     1.0000 0.03170  0.88300  0.59220  Biso   1.000  C
  C177     1.0000 0.36700  0.59220  0.21830  Biso   1.000  C
  C178     1.0000 0.86700  0.65780  0.53170  Biso   1.000  C
  C179     1.0000 0.65780  0.21830  0.88300  Biso   1.000  C
  C180     1.0000 0.15780  0.03170  0.86700  Biso   1.000  C
  C181     1.0000 0.61700  0.78170  0.34220  Biso   1.000  C
  C182     1.0000 0.13300  0.28170  0.90780  Biso   1.000  C
  C183     1.0000 0.84220  0.61700  0.28170  Biso   1.000  C
  C184     1.0000 0.90780  0.11700  0.96830  Biso   1.000  C
  C185     1.0000 0.46830  0.90780  0.61700  Biso   1.000  C
  C186     1.0000 0.28170  0.40780  0.63300  Biso   1.000  C
  C187     1.0000 0.53170  0.86700  0.65780  Biso   1.000  C
  C188     1.0000 0.21830  0.36700  0.59220  Biso   1.000  C
  C189     1.0000 0.86700  0.15780  0.03170  Biso   1.000  C
  C190     1.0000 0.88300  0.65780  0.21830  Biso   1.000  C
  C191     1.0000 0.59220  0.03170  0.88300  Biso   1.000  C
  C192     1.0000 0.15780  0.53170  0.36700  Biso   1.000  C
  Cl1      1.0000 0.87230  0.43030  0.99380  Biso   1.000  Cl
  Cl2      1.0000 0.99380  0.87230  0.43030  Biso   1.000  Cl
  Cl3      1.0000 0.43030  0.99380  0.87230  Biso   1.000  Cl
  Cl4      1.0000 0.18030  0.12230  0.00620  Biso   1.000  Cl
  Cl5      1.0000 0.68030  0.12770  0.74380  Biso   1.000  Cl
  Cl6      1.0000 0.56970  0.62230  0.24380  Biso   1.000  Cl
  Cl7      1.0000 0.62230  0.24380  0.56970  Biso   1.000  Cl
  Cl8      1.0000 0.12770  0.74380  0.68030  Biso   1.000  Cl
  Cl9      1.0000 0.12230  0.00620  0.18030  Biso   1.000  Cl
  Cl10     1.0000 0.74380  0.68030  0.12770  Biso   1.000  Cl
  Cl11     1.0000 0.24380  0.56970  0.62230  Biso   1.000  Cl
  Cl12     1.0000 0.00620  0.18030  0.12230  Biso   1.000  Cl
  Cl13     1.0000 0.87230  0.93030  0.49380  Biso   1.000  Cl
  Cl14     1.0000 0.37770  0.81970  0.99380  Biso   1.000  Cl
  Cl15     1.0000 0.99380  0.37230  0.93030  Biso   1.000  Cl
  Cl16     1.0000 0.25620  0.37770  0.43030  Biso   1.000  Cl
  Cl17     1.0000 0.43030  0.49380  0.37230  Biso   1.000  Cl
  Cl18     1.0000 0.81970  0.25620  0.87230  Biso   1.000  Cl
  Cl19     1.0000 0.68030  0.62770  0.24380  Biso   1.000  Cl
  Cl20     1.0000 0.56970  0.12230  0.74380  Biso   1.000  Cl
  Cl21     1.0000 0.12770  0.24380  0.18030  Biso   1.000  Cl
  Cl22     1.0000 0.12230  0.50620  0.68030  Biso   1.000  Cl
  Cl23     1.0000 0.24380  0.06970  0.12230  Biso   1.000  Cl
  Cl24     1.0000 0.00620  0.68030  0.62230  Biso   1.000  Cl
  Cl25     1.0000 0.37230  0.43030  0.49380  Biso   1.000  Cl
  Cl26     1.0000 0.87230  0.81970  0.25620  Biso   1.000  Cl
  Cl27     1.0000 0.49380  0.87230  0.93030  Biso   1.000  Cl
  Cl28     1.0000 0.99380  0.37770  0.81970  Biso   1.000  Cl
  Cl29     1.0000 0.93030  0.99380  0.37230  Biso   1.000  Cl
  Cl30     1.0000 0.43030  0.25620  0.37770  Biso   1.000  Cl
  Cl31     1.0000 0.68030  0.12230  0.50620  Biso   1.000  Cl
  Cl32     1.0000 0.18030  0.12770  0.24380  Biso   1.000  Cl
  Cl33     1.0000 0.12230  0.24380  0.06970  Biso   1.000  Cl
  Cl34     1.0000 0.62230  0.00620  0.68030  Biso   1.000  Cl
  Cl35     1.0000 0.24380  0.68030  0.62770  Biso   1.000  Cl
  Cl36     1.0000 0.74380  0.56970  0.12230  Biso   1.000  Cl
  Cl37     1.0000 0.37230  0.93030  0.99380  Biso   1.000  Cl
  Cl38     1.0000 0.37770  0.43030  0.25620  Biso   1.000  Cl
  Cl39     1.0000 0.49380  0.37230  0.43030  Biso   1.000  Cl
  Cl40     1.0000 0.25620  0.87230  0.81970  Biso   1.000  Cl
  Cl41     1.0000 0.93030  0.49380  0.87230  Biso   1.000  Cl
  Cl42     1.0000 0.81970  0.99380  0.37770  Biso   1.000  Cl
  Cl43     1.0000 0.68030  0.62230  0.00620  Biso   1.000  Cl
  Cl44     1.0000 0.06970  0.12230  0.24380  Biso   1.000  Cl
  Cl45     1.0000 0.12230  0.74380  0.56970  Biso   1.000  Cl
  Cl46     1.0000 0.62770  0.24380  0.68030  Biso   1.000  Cl
  Cl47     1.0000 0.24380  0.18030  0.12770  Biso   1.000  Cl
  Cl48     1.0000 0.50620  0.68030  0.12230  Biso   1.000  Cl
  Cl49     1.0000 0.37770  0.31970  0.49380  Biso   1.000  Cl
  Cl50     1.0000 0.87770  0.93030  0.25620  Biso   1.000  Cl
  Cl51     1.0000 0.37230  0.81970  0.75620  Biso   1.000  Cl
  Cl52     1.0000 0.49380  0.37770  0.31970  Biso   1.000  Cl
  Cl53     1.0000 0.25620  0.87770  0.93030  Biso   1.000  Cl
  Cl54     1.0000 0.75620  0.37230  0.81970  Biso   1.000  Cl
  Cl55     1.0000 0.31970  0.49380  0.37770  Biso   1.000  Cl
  Cl56     1.0000 0.93030  0.25620  0.87770  Biso   1.000  Cl
  Cl57     1.0000 0.81970  0.75620  0.37230  Biso   1.000  Cl
  Cl58     1.0000 0.06970  0.62770  0.50620  Biso   1.000  Cl
  Cl59     1.0000 0.62770  0.50620  0.06970  Biso   1.000  Cl
  Cl60     1.0000 0.50620  0.06970  0.62770  Biso   1.000  Cl
  Cl61     1.0000 0.87770  0.43030  0.75620  Biso   1.000  Cl
  Cl62     1.0000 0.37230  0.31970  0.25620  Biso   1.000  Cl
  Cl63     1.0000 0.49380  0.87770  0.81970  Biso   1.000  Cl
  Cl64     1.0000 0.75620  0.87230  0.31970  Biso   1.000  Cl
  Cl65     1.0000 0.31970  0.99380  0.87770  Biso   1.000  Cl
  Cl66     1.0000 0.93030  0.75620  0.37770  Biso   1.000  Cl
  Cl67     1.0000 0.18030  0.62230  0.50620  Biso   1.000  Cl
  Cl68     1.0000 0.06970  0.12770  0.00620  Biso   1.000  Cl
  Cl69     1.0000 0.62230  0.74380  0.06970  Biso   1.000  Cl
  Cl70     1.0000 0.62770  0.00620  0.56970  Biso   1.000  Cl
  Cl71     1.0000 0.74380  0.18030  0.62770  Biso   1.000  Cl
  Cl72     1.0000 0.50620  0.56970  0.12770  Biso   1.000  Cl
  Cl73     1.0000 0.87770  0.31970  0.99380  Biso   1.000  Cl
  Cl74     1.0000 0.37770  0.93030  0.75620  Biso   1.000  Cl
  Cl75     1.0000 0.75620  0.87770  0.43030  Biso   1.000  Cl
  Cl76     1.0000 0.25620  0.37230  0.31970  Biso   1.000  Cl
  Cl77     1.0000 0.81970  0.49380  0.87770  Biso   1.000  Cl
  Cl78     1.0000 0.31970  0.75620  0.87230  Biso   1.000  Cl
  Cl79     1.0000 0.56970  0.62770  0.00620  Biso   1.000  Cl
  Cl80     1.0000 0.06970  0.62230  0.74380  Biso   1.000  Cl
  Cl81     1.0000 0.62770  0.74380  0.18030  Biso   1.000  Cl
  Cl82     1.0000 0.12770  0.50620  0.56970  Biso   1.000  Cl
  Cl83     1.0000 0.50620  0.18030  0.62230  Biso   1.000  Cl
  Cl84     1.0000 0.00620  0.06970  0.12770  Biso   1.000  Cl
  Cl85     1.0000 0.87770  0.81970  0.49380  Biso   1.000  Cl
  Cl86     1.0000 0.87230  0.31970  0.75620  Biso   1.000  Cl
  Cl87     1.0000 0.99380  0.87770  0.31970  Biso   1.000  Cl
  Cl88     1.0000 0.75620  0.37770  0.93030  Biso   1.000  Cl
  Cl89     1.0000 0.43030  0.75620  0.87770  Biso   1.000  Cl
  Cl90     1.0000 0.31970  0.25620  0.37230  Biso   1.000  Cl
  Cl91     1.0000 0.56970  0.12770  0.50620  Biso   1.000  Cl
  Cl92     1.0000 0.18030  0.62770  0.74380  Biso   1.000  Cl
  Cl93     1.0000 0.12770  0.00620  0.06970  Biso   1.000  Cl
  Cl94     1.0000 0.62230  0.50620  0.18030  Biso   1.000  Cl
  Cl95     1.0000 0.74380  0.06970  0.62230  Biso   1.000  Cl
  Cl96     1.0000 0.00620  0.56970  0.62770  Biso   1.000  Cl
  Cl97     1.0000 0.12770  0.56970  0.00620  Biso   1.000  Cl
  Cl98     1.0000 0.00620  0.12770  0.56970  Biso   1.000  Cl
  Cl99     1.0000 0.56970  0.00620  0.12770  Biso   1.000  Cl
  Cl100    1.0000 0.31970  0.37770  0.99380  Biso   1.000  Cl
  Cl101    1.0000 0.81970  0.87230  0.75620  Biso   1.000  Cl
  Cl102    1.0000 0.43030  0.87770  0.25620  Biso   1.000  Cl
  Cl103    1.0000 0.87770  0.25620  0.43030  Biso   1.000  Cl
  Cl104    1.0000 0.87230  0.75620  0.81970  Biso   1.000  Cl
  Cl105    1.0000 0.37770  0.99380  0.31970  Biso   1.000  Cl
  Cl106    1.0000 0.75620  0.81970  0.87230  Biso   1.000  Cl
  Cl107    1.0000 0.25620  0.43030  0.87770  Biso   1.000  Cl
  Cl108    1.0000 0.99380  0.31970  0.37770  Biso   1.000  Cl
  Cl109    1.0000 0.12770  0.06970  0.50620  Biso   1.000  Cl
  Cl110    1.0000 0.12230  0.68030  0.00620  Biso   1.000  Cl
  Cl111    1.0000 0.00620  0.62770  0.06970  Biso   1.000  Cl
  Cl112    1.0000 0.24380  0.12230  0.56970  Biso   1.000  Cl
  Cl113    1.0000 0.56970  0.50620  0.62770  Biso   1.000  Cl
  Cl114    1.0000 0.68030  0.24380  0.12770  Biso   1.000  Cl
  Cl115    1.0000 0.81970  0.37230  0.25620  Biso   1.000  Cl
  Cl116    1.0000 0.43030  0.37770  0.75620  Biso   1.000  Cl
  Cl117    1.0000 0.87230  0.25620  0.31970  Biso   1.000  Cl
  Cl118    1.0000 0.37770  0.49380  0.81970  Biso   1.000  Cl
  Cl119    1.0000 0.25620  0.93030  0.37770  Biso   1.000  Cl
  Cl120    1.0000 0.99380  0.81970  0.87770  Biso   1.000  Cl
  Cl121    1.0000 0.62770  0.56970  0.50620  Biso   1.000  Cl
  Cl122    1.0000 0.12770  0.68030  0.24380  Biso   1.000  Cl
  Cl123    1.0000 0.50620  0.12770  0.06970  Biso   1.000  Cl
  Cl124    1.0000 0.00620  0.12230  0.68030  Biso   1.000  Cl
  Cl125    1.0000 0.06970  0.00620  0.62770  Biso   1.000  Cl
  Cl126    1.0000 0.56970  0.24380  0.12230  Biso   1.000  Cl
  Cl127    1.0000 0.81970  0.37770  0.49380  Biso   1.000  Cl
  Cl128    1.0000 0.31970  0.87230  0.25620  Biso   1.000  Cl
  Cl129    1.0000 0.37770  0.25620  0.93030  Biso   1.000  Cl
  Cl130    1.0000 0.87770  0.99380  0.81970  Biso   1.000  Cl
  Cl131    1.0000 0.25620  0.81970  0.37230  Biso   1.000  Cl
  Cl132    1.0000 0.75620  0.43030  0.37770  Biso   1.000  Cl
  Cl133    1.0000 0.62770  0.06970  0.00620  Biso   1.000  Cl
  Cl134    1.0000 0.12230  0.56970  0.24380  Biso   1.000  Cl
  Cl135    1.0000 0.50620  0.62770  0.56970  Biso   1.000  Cl
  Cl136    1.0000 0.24380  0.12770  0.68030  Biso   1.000  Cl
  Cl137    1.0000 0.06970  0.50620  0.12770  Biso   1.000  Cl
  Cl138    1.0000 0.68030  0.00620  0.12230  Biso   1.000  Cl
  Cl139    1.0000 0.81970  0.87770  0.99380  Biso   1.000  Cl
  Cl140    1.0000 0.93030  0.37770  0.25620  Biso   1.000  Cl
  Cl141    1.0000 0.37770  0.75620  0.43030  Biso   1.000  Cl
  Cl142    1.0000 0.37230  0.25620  0.81970  Biso   1.000  Cl
  Cl143    1.0000 0.25620  0.31970  0.87230  Biso   1.000  Cl
  Cl144    1.0000 0.49380  0.81970  0.37770  Biso   1.000  Cl
  Cl145    1.0000 0.12230  0.18030  0.50620  Biso   1.000  Cl
  Cl146    1.0000 0.62230  0.06970  0.24380  Biso   1.000  Cl
  Cl147    1.0000 0.62770  0.68030  0.74380  Biso   1.000  Cl
  Cl148    1.0000 0.50620  0.12230  0.18030  Biso   1.000  Cl
  Cl149    1.0000 0.24380  0.62230  0.06970  Biso   1.000  Cl
  Cl150    1.0000 0.74380  0.62770  0.68030  Biso   1.000  Cl
  Cl151    1.0000 0.18030  0.50620  0.12230  Biso   1.000  Cl
  Cl152    1.0000 0.06970  0.24380  0.62230  Biso   1.000  Cl
  Cl153    1.0000 0.68030  0.74380  0.62770  Biso   1.000  Cl
  Cl154    1.0000 0.93030  0.37230  0.49380  Biso   1.000  Cl
  Cl155    1.0000 0.37230  0.49380  0.93030  Biso   1.000  Cl
  Cl156    1.0000 0.49380  0.93030  0.37230  Biso   1.000  Cl
  Cl157    1.0000 0.62230  0.56970  0.74380  Biso   1.000  Cl
  Cl158    1.0000 0.62770  0.18030  0.24380  Biso   1.000  Cl
  Cl159    1.0000 0.50620  0.62230  0.68030  Biso   1.000  Cl
  Cl160    1.0000 0.74380  0.12770  0.18030  Biso   1.000  Cl
  Cl161    1.0000 0.18030  0.00620  0.62230  Biso   1.000  Cl
  Cl162    1.0000 0.06970  0.74380  0.12230  Biso   1.000  Cl
  Cl163    1.0000 0.31970  0.87770  0.49380  Biso   1.000  Cl
  Cl164    1.0000 0.93030  0.87230  0.99380  Biso   1.000  Cl
  Cl165    1.0000 0.87770  0.75620  0.93030  Biso   1.000  Cl
  Cl166    1.0000 0.37230  0.99380  0.43030  Biso   1.000  Cl
  Cl167    1.0000 0.75620  0.31970  0.37230  Biso   1.000  Cl
  Cl168    1.0000 0.49380  0.43030  0.87230  Biso   1.000  Cl
  Cl169    1.0000 0.62230  0.18030  0.00620  Biso   1.000  Cl
  Cl170    1.0000 0.12230  0.06970  0.74380  Biso   1.000  Cl
  Cl171    1.0000 0.74380  0.62230  0.56970  Biso   1.000  Cl
  Cl172    1.0000 0.24380  0.62770  0.18030  Biso   1.000  Cl
  Cl173    1.0000 0.68030  0.50620  0.62230  Biso   1.000  Cl
  Cl174    1.0000 0.18030  0.74380  0.12770  Biso   1.000  Cl
  Cl175    1.0000 0.43030  0.37230  0.99380  Biso   1.000  Cl
  Cl176    1.0000 0.93030  0.87770  0.75620  Biso   1.000  Cl
  Cl177    1.0000 0.37230  0.75620  0.31970  Biso   1.000  Cl
  Cl178    1.0000 0.87230  0.49380  0.43030  Biso   1.000  Cl
  Cl179    1.0000 0.49380  0.31970  0.87770  Biso   1.000  Cl
  Cl180    1.0000 0.99380  0.93030  0.87230  Biso   1.000  Cl
  Cl181    1.0000 0.62230  0.68030  0.50620  Biso   1.000  Cl
  Cl182    1.0000 0.12770  0.18030  0.74380  Biso   1.000  Cl
  Cl183    1.0000 0.00620  0.62230  0.18030  Biso   1.000  Cl
  Cl184    1.0000 0.74380  0.12230  0.06970  Biso   1.000  Cl
  Cl185    1.0000 0.56970  0.74380  0.62230  Biso   1.000  Cl
  Cl186    1.0000 0.18030  0.24380  0.62770  Biso   1.000  Cl
  Cl187    1.0000 0.43030  0.87230  0.49380  Biso   1.000  Cl
  Cl188    1.0000 0.31970  0.37230  0.75620  Biso   1.000  Cl
  Cl189    1.0000 0.87230  0.99380  0.93030  Biso   1.000  Cl
  Cl190    1.0000 0.87770  0.49380  0.31970  Biso   1.000  Cl
  Cl191    1.0000 0.75620  0.93030  0.87770  Biso   1.000  Cl
  Cl192    1.0000 0.99380  0.43030  0.37230  Biso   1.000  Cl
  O33      1.0000 0.97260  0.47260  0.97260  Biso   1.000  O
  O34      1.0000 0.97260  0.97260  0.47260  Biso   1.000  O
  O35      1.0000 0.47260  0.97260  0.97260  Biso   1.000  O
  O36      1.0000 0.22260  0.22260  0.02740  Biso   1.000  O
  O37      1.0000 0.72260  0.02740  0.72260  Biso   1.000  O
  O38      1.0000 0.52740  0.72260  0.22260  Biso   1.000  O
  O39      1.0000 0.72260  0.22260  0.52740  Biso   1.000  O
  O40      1.0000 0.02740  0.72260  0.72260  Biso   1.000  O
  O41      1.0000 0.22260  0.02740  0.22260  Biso   1.000  O
  O42      1.0000 0.72260  0.72260  0.02740  Biso   1.000  O
  O43      1.0000 0.22260  0.52740  0.72260  Biso   1.000  O
  O44      1.0000 0.02740  0.22260  0.22260  Biso   1.000  O
  O45      1.0000 0.27740  0.77740  0.97260  Biso   1.000  O
  O46      1.0000 0.27740  0.27740  0.47260  Biso   1.000  O
  O47      1.0000 0.47260  0.47260  0.47260  Biso   1.000  O
  O48      1.0000 0.77740  0.27740  0.97260  Biso   1.000  O
  O49      1.0000 0.72260  0.52740  0.22260  Biso   1.000  O
  O50      1.0000 0.52740  0.22260  0.72260  Biso   1.000  O
  O51      1.0000 0.97260  0.77740  0.27740  Biso   1.000  O
  O52      1.0000 0.97260  0.27740  0.77740  Biso   1.000  O
  O53      1.0000 0.47260  0.27740  0.27740  Biso   1.000  O
  O54      1.0000 0.22260  0.72260  0.52740  Biso   1.000  O
  O55      1.0000 0.27740  0.47260  0.27740  Biso   1.000  O
  O56      1.0000 0.27740  0.97260  0.77740  Biso   1.000  O
  O57      1.0000 0.77740  0.97260  0.27740  Biso   1.000  O
  O58      1.0000 0.47260  0.77740  0.77740  Biso   1.000  O
  O59      1.0000 0.77740  0.47260  0.77740  Biso   1.000  O
  O60      1.0000 0.77740  0.77740  0.47260  Biso   1.000  O
  O61      1.0000 0.02740  0.52740  0.52740  Biso   1.000  O
  O62      1.0000 0.52740  0.52740  0.02740  Biso   1.000  O
  O63      1.0000 0.52740  0.02740  0.52740  Biso   1.000  O
  O64      1.0000 0.02740  0.02740  0.02740  Biso   1.000  O
  O65      1.0000 0.02740  0.52740  0.02740  Biso   1.000  O
  O66      1.0000 0.02740  0.02740  0.52740  Biso   1.000  O
  O67      1.0000 0.52740  0.02740  0.02740  Biso   1.000  O
  O68      1.0000 0.27740  0.27740  0.97260  Biso   1.000  O
  O69      1.0000 0.77740  0.97260  0.77740  Biso   1.000  O
  O70      1.0000 0.47260  0.77740  0.27740  Biso   1.000  O
  O71      1.0000 0.77740  0.27740  0.47260  Biso   1.000  O
  O72      1.0000 0.97260  0.77740  0.77740  Biso   1.000  O
  O73      1.0000 0.27740  0.97260  0.27740  Biso   1.000  O
  O74      1.0000 0.77740  0.77740  0.97260  Biso   1.000  O
  O75      1.0000 0.27740  0.47260  0.77740  Biso   1.000  O
  O76      1.0000 0.97260  0.27740  0.27740  Biso   1.000  O
  O77      1.0000 0.22260  0.72260  0.02740  Biso   1.000  O
  O78      1.0000 0.22260  0.22260  0.52740  Biso   1.000  O
  O79      1.0000 0.52740  0.52740  0.52740  Biso   1.000  O
  O80      1.0000 0.72260  0.22260  0.02740  Biso   1.000  O
  O81      1.0000 0.77740  0.47260  0.27740  Biso   1.000  O
  O82      1.0000 0.47260  0.27740  0.77740  Biso   1.000  O
  O83      1.0000 0.02740  0.72260  0.22260  Biso   1.000  O
  O84      1.0000 0.02740  0.22260  0.72260  Biso   1.000  O
  O85      1.0000 0.52740  0.22260  0.22260  Biso   1.000  O
  O86      1.0000 0.27740  0.77740  0.47260  Biso   1.000  O
  O87      1.0000 0.22260  0.52740  0.22260  Biso   1.000  O
  O88      1.0000 0.22260  0.02740  0.72260  Biso   1.000  O
  O89      1.0000 0.72260  0.02740  0.22260  Biso   1.000  O
  O90      1.0000 0.52740  0.72260  0.72260  Biso   1.000  O
  O91      1.0000 0.72260  0.52740  0.72260  Biso   1.000  O
  O92      1.0000 0.72260  0.72260  0.52740  Biso   1.000  O
  O93      1.0000 0.97260  0.47260  0.47260  Biso   1.000  O
  O94      1.0000 0.47260  0.47260  0.97260  Biso   1.000  O
  O95      1.0000 0.47260  0.97260  0.47260  Biso   1.000  O
  O96      1.0000 0.97260  0.97260  0.97260  Biso   1.000  O
  O97      1.0000 0.85830  0.43800  0.99910  Biso   1.000  O
  O98      1.0000 0.99910  0.85830  0.43800  Biso   1.000  O
  O99      1.0000 0.43800  0.99910  0.85830  Biso   1.000  O
  O100     1.0000 0.18800  0.10830  0.00090  Biso   1.000  O
  O101     1.0000 0.68800  0.14170  0.74910  Biso   1.000  O
  O102     1.0000 0.56200  0.60830  0.24910  Biso   1.000  O
  O103     1.0000 0.60830  0.24910  0.56200  Biso   1.000  O
  O104     1.0000 0.14170  0.74910  0.68800  Biso   1.000  O
  O105     1.0000 0.10830  0.00090  0.18800  Biso   1.000  O
  O106     1.0000 0.74910  0.68800  0.14170  Biso   1.000  O
  O107     1.0000 0.24910  0.56200  0.60830  Biso   1.000  O
  O108     1.0000 0.00090  0.18800  0.10830  Biso   1.000  O
  O109     1.0000 0.85830  0.93800  0.49910  Biso   1.000  O
  O110     1.0000 0.39170  0.81200  0.99910  Biso   1.000  O
  O111     1.0000 0.99910  0.35830  0.93800  Biso   1.000  O
  O112     1.0000 0.25090  0.39170  0.43800  Biso   1.000  O
  O113     1.0000 0.43800  0.49910  0.35830  Biso   1.000  O
  O114     1.0000 0.81200  0.25090  0.85830  Biso   1.000  O
  O115     1.0000 0.68800  0.64170  0.24910  Biso   1.000  O
  O116     1.0000 0.56200  0.10830  0.74910  Biso   1.000  O
  O117     1.0000 0.14170  0.24910  0.18800  Biso   1.000  O
  O118     1.0000 0.10830  0.50090  0.68800  Biso   1.000  O
  O119     1.0000 0.24910  0.06200  0.10830  Biso   1.000  O
  O120     1.0000 0.00090  0.68800  0.60830  Biso   1.000  O
  O121     1.0000 0.35830  0.43800  0.49910  Biso   1.000  O
  O122     1.0000 0.85830  0.81200  0.25090  Biso   1.000  O
  O123     1.0000 0.49910  0.85830  0.93800  Biso   1.000  O
  O124     1.0000 0.99910  0.39170  0.81200  Biso   1.000  O
  O125     1.0000 0.93800  0.99910  0.35830  Biso   1.000  O
  O126     1.0000 0.43800  0.25090  0.39170  Biso   1.000  O
  O127     1.0000 0.68800  0.10830  0.50090  Biso   1.000  O
  O128     1.0000 0.18800  0.14170  0.24910  Biso   1.000  O
  O129     1.0000 0.10830  0.24910  0.06200  Biso   1.000  O
  O130     1.0000 0.60830  0.00090  0.68800  Biso   1.000  O
  O131     1.0000 0.24910  0.68800  0.64170  Biso   1.000  O
  O132     1.0000 0.74910  0.56200  0.10830  Biso   1.000  O
  O133     1.0000 0.35830  0.93800  0.99910  Biso   1.000  O
  O134     1.0000 0.39170  0.43800  0.25090  Biso   1.000  O
  O135     1.0000 0.49910  0.35830  0.43800  Biso   1.000  O
  O136     1.0000 0.25090  0.85830  0.81200  Biso   1.000  O
  O137     1.0000 0.93800  0.49910  0.85830  Biso   1.000  O
  O138     1.0000 0.81200  0.99910  0.39170  Biso   1.000  O
  O139     1.0000 0.68800  0.60830  0.00090  Biso   1.000  O
  O140     1.0000 0.06200  0.10830  0.24910  Biso   1.000  O
  O141     1.0000 0.10830  0.74910  0.56200  Biso   1.000  O
  O142     1.0000 0.64170  0.24910  0.68800  Biso   1.000  O
  O143     1.0000 0.24910  0.18800  0.14170  Biso   1.000  O
  O144     1.0000 0.50090  0.68800  0.10830  Biso   1.000  O
  O145     1.0000 0.39170  0.31200  0.49910  Biso   1.000  O
  O146     1.0000 0.89170  0.93800  0.25090  Biso   1.000  O
  O147     1.0000 0.35830  0.81200  0.75090  Biso   1.000  O
  O148     1.0000 0.49910  0.39170  0.31200  Biso   1.000  O
  O149     1.0000 0.25090  0.89170  0.93800  Biso   1.000  O
  O150     1.0000 0.75090  0.35830  0.81200  Biso   1.000  O
  O151     1.0000 0.31200  0.49910  0.39170  Biso   1.000  O
  O152     1.0000 0.93800  0.25090  0.89170  Biso   1.000  O
  O153     1.0000 0.81200  0.75090  0.35830  Biso   1.000  O
  O154     1.0000 0.06200  0.64170  0.50090  Biso   1.000  O
  O155     1.0000 0.64170  0.50090  0.06200  Biso   1.000  O
  O156     1.0000 0.50090  0.06200  0.64170  Biso   1.000  O
  O157     1.0000 0.89170  0.43800  0.75090  Biso   1.000  O
  O158     1.0000 0.35830  0.31200  0.25090  Biso   1.000  O
  O159     1.0000 0.49910  0.89170  0.81200  Biso   1.000  O
  O160     1.0000 0.75090  0.85830  0.31200  Biso   1.000  O
  O161     1.0000 0.31200  0.99910  0.89170  Biso   1.000  O
  O162     1.0000 0.93800  0.75090  0.39170  Biso   1.000  O
  O163     1.0000 0.18800  0.60830  0.50090  Biso   1.000  O
  O164     1.0000 0.06200  0.14170  0.00090  Biso   1.000  O
  O165     1.0000 0.60830  0.74910  0.06200  Biso   1.000  O
  O166     1.0000 0.64170  0.00090  0.56200  Biso   1.000  O
  O167     1.0000 0.74910  0.18800  0.64170  Biso   1.000  O
  O168     1.0000 0.50090  0.56200  0.14170  Biso   1.000  O
  O169     1.0000 0.89170  0.31200  0.99910  Biso   1.000  O
  O170     1.0000 0.39170  0.93800  0.75090  Biso   1.000  O
  O171     1.0000 0.75090  0.89170  0.43800  Biso   1.000  O
  O172     1.0000 0.25090  0.35830  0.31200  Biso   1.000  O
  O173     1.0000 0.81200  0.49910  0.89170  Biso   1.000  O
  O174     1.0000 0.31200  0.75090  0.85830  Biso   1.000  O
  O175     1.0000 0.56200  0.64170  0.00090  Biso   1.000  O
  O176     1.0000 0.06200  0.60830  0.74910  Biso   1.000  O
  O177     1.0000 0.64170  0.74910  0.18800  Biso   1.000  O
  O178     1.0000 0.14170  0.50090  0.56200  Biso   1.000  O
  O179     1.0000 0.50090  0.18800  0.60830  Biso   1.000  O
  O180     1.0000 0.00090  0.06200  0.14170  Biso   1.000  O
  O181     1.0000 0.89170  0.81200  0.49910  Biso   1.000  O
  O182     1.0000 0.85830  0.31200  0.75090  Biso   1.000  O
  O183     1.0000 0.99910  0.89170  0.31200  Biso   1.000  O
  O184     1.0000 0.75090  0.39170  0.93800  Biso   1.000  O
  O185     1.0000 0.43800  0.75090  0.89170  Biso   1.000  O
  O186     1.0000 0.31200  0.25090  0.35830  Biso   1.000  O
  O187     1.0000 0.56200  0.14170  0.50090  Biso   1.000  O
  O188     1.0000 0.18800  0.64170  0.74910  Biso   1.000  O
  O189     1.0000 0.14170  0.00090  0.06200  Biso   1.000  O
  O190     1.0000 0.60830  0.50090  0.18800  Biso   1.000  O
  O191     1.0000 0.74910  0.06200  0.60830  Biso   1.000  O
  O192     1.0000 0.00090  0.56200  0.64170  Biso   1.000  O
  O193     1.0000 0.14170  0.56200  0.00090  Biso   1.000  O
  O194     1.0000 0.00090  0.14170  0.56200  Biso   1.000  O
  O195     1.0000 0.56200  0.00090  0.14170  Biso   1.000  O
  O196     1.0000 0.31200  0.39170  0.99910  Biso   1.000  O
  O197     1.0000 0.81200  0.85830  0.75090  Biso   1.000  O
  O198     1.0000 0.43800  0.89170  0.25090  Biso   1.000  O
  O199     1.0000 0.89170  0.25090  0.43800  Biso   1.000  O
  O200     1.0000 0.85830  0.75090  0.81200  Biso   1.000  O
  O201     1.0000 0.39170  0.99910  0.31200  Biso   1.000  O
  O202     1.0000 0.75090  0.81200  0.85830  Biso   1.000  O
  O203     1.0000 0.25090  0.43800  0.89170  Biso   1.000  O
  O204     1.0000 0.99910  0.31200  0.39170  Biso   1.000  O
  O205     1.0000 0.14170  0.06200  0.50090  Biso   1.000  O
  O206     1.0000 0.10830  0.68800  0.00090  Biso   1.000  O
  O207     1.0000 0.00090  0.64170  0.06200  Biso   1.000  O
  O208     1.0000 0.24910  0.10830  0.56200  Biso   1.000  O
  O209     1.0000 0.56200  0.50090  0.64170  Biso   1.000  O
  O210     1.0000 0.68800  0.24910  0.14170  Biso   1.000  O
  O211     1.0000 0.81200  0.35830  0.25090  Biso   1.000  O
  O212     1.0000 0.43800  0.39170  0.75090  Biso   1.000  O
  O213     1.0000 0.85830  0.25090  0.31200  Biso   1.000  O
  O214     1.0000 0.39170  0.49910  0.81200  Biso   1.000  O
  O215     1.0000 0.25090  0.93800  0.39170  Biso   1.000  O
  O216     1.0000 0.99910  0.81200  0.89170  Biso   1.000  O
  O217     1.0000 0.64170  0.56200  0.50090  Biso   1.000  O
  O218     1.0000 0.14170  0.68800  0.24910  Biso   1.000  O
  O219     1.0000 0.50090  0.14170  0.06200  Biso   1.000  O
  O220     1.0000 0.00090  0.10830  0.68800  Biso   1.000  O
  O221     1.0000 0.06200  0.00090  0.64170  Biso   1.000  O
  O222     1.0000 0.56200  0.24910  0.10830  Biso   1.000  O
  O223     1.0000 0.81200  0.39170  0.49910  Biso   1.000  O
  O224     1.0000 0.31200  0.85830  0.25090  Biso   1.000  O
  O225     1.0000 0.39170  0.25090  0.93800  Biso   1.000  O
  O226     1.0000 0.89170  0.99910  0.81200  Biso   1.000  O
  O227     1.0000 0.25090  0.81200  0.35830  Biso   1.000  O
  O228     1.0000 0.75090  0.43800  0.39170  Biso   1.000  O
  O229     1.0000 0.64170  0.06200  0.00090  Biso   1.000  O
  O230     1.0000 0.10830  0.56200  0.24910  Biso   1.000  O
  O231     1.0000 0.50090  0.64170  0.56200  Biso   1.000  O
  O232     1.0000 0.24910  0.14170  0.68800  Biso   1.000  O
  O233     1.0000 0.06200  0.50090  0.14170  Biso   1.000  O
  O234     1.0000 0.68800  0.00090  0.10830  Biso   1.000  O
  O235     1.0000 0.81200  0.89170  0.99910  Biso   1.000  O
  O236     1.0000 0.93800  0.39170  0.25090  Biso   1.000  O
  O237     1.0000 0.39170  0.75090  0.43800  Biso   1.000  O
  O238     1.0000 0.35830  0.25090  0.81200  Biso   1.000  O
  O239     1.0000 0.25090  0.31200  0.85830  Biso   1.000  O
  O240     1.0000 0.49910  0.81200  0.39170  Biso   1.000  O
  O241     1.0000 0.10830  0.18800  0.50090  Biso   1.000  O
  O242     1.0000 0.60830  0.06200  0.24910  Biso   1.000  O
  O243     1.0000 0.64170  0.68800  0.74910  Biso   1.000  O
  O244     1.0000 0.50090  0.10830  0.18800  Biso   1.000  O
  O245     1.0000 0.24910  0.60830  0.06200  Biso   1.000  O
  O246     1.0000 0.74910  0.64170  0.68800  Biso   1.000  O
  O247     1.0000 0.18800  0.50090  0.10830  Biso   1.000  O
  O248     1.0000 0.06200  0.24910  0.60830  Biso   1.000  O
  O249     1.0000 0.68800  0.74910  0.64170  Biso   1.000  O
  O250     1.0000 0.93800  0.35830  0.49910  Biso   1.000  O
  O251     1.0000 0.35830  0.49910  0.93800  Biso   1.000  O
  O252     1.0000 0.49910  0.93800  0.35830  Biso   1.000  O
  O253     1.0000 0.60830  0.56200  0.74910  Biso   1.000  O
  O254     1.0000 0.64170  0.18800  0.24910  Biso   1.000  O
  O255     1.0000 0.50090  0.60830  0.68800  Biso   1.000  O
  O256     1.0000 0.74910  0.14170  0.18800  Biso   1.000  O
  O257     1.0000 0.18800  0.00090  0.60830  Biso   1.000  O
  O258     1.0000 0.06200  0.74910  0.10830  Biso   1.000  O
  O259     1.0000 0.31200  0.89170  0.49910  Biso   1.000  O
  O260     1.0000 0.93800  0.85830  0.99910  Biso   1.000  O
  O261     1.0000 0.89170  0.75090  0.93800  Biso   1.000  O
  O262     1.0000 0.35830  0.99910  0.43800  Biso   1.000  O
  O263     1.0000 0.75090  0.31200  0.35830  Biso   1.000  O
  O264     1.0000 0.49910  0.43800  0.85830  Biso   1.000  O
  O265     1.0000 0.60830  0.18800  0.00090  Biso   1.000  O
  O266     1.0000 0.10830  0.06200  0.74910  Biso   1.000  O
  O267     1.0000 0.74910  0.60830  0.56200  Biso   1.000  O
  O268     1.0000 0.24910  0.64170  0.18800  Biso   1.000  O
  O269     1.0000 0.68800  0.50090  0.60830  Biso   1.000  O
  O270     1.0000 0.18800  0.74910  0.14170  Biso   1.000  O
  O271     1.0000 0.43800  0.35830  0.99910  Biso   1.000  O
  O272     1.0000 0.93800  0.89170  0.75090  Biso   1.000  O
  O273     1.0000 0.35830  0.75090  0.31200  Biso   1.000  O
  O274     1.0000 0.85830  0.49910  0.43800  Biso   1.000  O
  O275     1.0000 0.49910  0.31200  0.89170  Biso   1.000  O
  O276     1.0000 0.99910  0.93800  0.85830  Biso   1.000  O
  O277     1.0000 0.60830  0.68800  0.50090  Biso   1.000  O
  O278     1.0000 0.14170  0.18800  0.74910  Biso   1.000  O
  O279     1.0000 0.00090  0.60830  0.18800  Biso   1.000  O
  O280     1.0000 0.74910  0.10830  0.06200  Biso   1.000  O
  O281     1.0000 0.56200  0.74910  0.60830  Biso   1.000  O
  O282     1.0000 0.18800  0.24910  0.64170  Biso   1.000  O
  O283     1.0000 0.43800  0.85830  0.49910  Biso   1.000  O
  O284     1.0000 0.31200  0.35830  0.75090  Biso   1.000  O
  O285     1.0000 0.85830  0.99910  0.93800  Biso   1.000  O
  O286     1.0000 0.89170  0.49910  0.31200  Biso   1.000  O
  O287     1.0000 0.75090  0.93800  0.89170  Biso   1.000  O
  O288     1.0000 0.99910  0.43800  0.35830  Biso   1.000  O
