data_image0
_cell_length_a       31.4065
_cell_length_b       31.4065
_cell_length_c       21.5732
_cell_angle_alpha    90
_cell_angle_beta     90
_cell_angle_gamma    90

_symmetry_space_group_name_H-M    "P 1"
_symmetry_int_tables_number       1

loop_
  _symmetry_equiv_pos_as_xyz
  'x, y, z'

loop_
  _atom_site_label
  _atom_site_occupancy
  _atom_site_fract_x
  _atom_site_fract_y
  _atom_site_fract_z
  _atom_site_thermal_displace_type
  _atom_site_B_iso_or_equiv
  _atom_site_type_symbol
  Cu1      1.0000 0.96814  0.49830  0.29970  Biso   1.000  Cu
  Cu2      1.0000 0.53186  0.00170  0.29970  Biso   1.000  Cu
  Cu3      1.0000 0.00170  0.96814  0.29970  Biso   1.000  Cu
  Cu4      1.0000 0.49830  0.53186  0.29970  Biso   1.000  Cu
  Cu5      1.0000 0.53186  0.49830  0.20030  Biso   1.000  Cu
  Cu6      1.0000 0.96814  0.00170  0.20030  Biso   1.000  Cu
  Cu7      1.0000 0.49830  0.96814  0.20030  Biso   1.000  Cu
  Cu8      1.0000 0.00170  0.53186  0.20030  Biso   1.000  Cu
  Cu9      1.0000 0.03186  0.50170  0.70030  Biso   1.000  Cu
  Cu10     1.0000 0.46814  0.99830  0.70030  Biso   1.000  Cu
  Cu11     1.0000 0.99830  0.03186  0.70030  Biso   1.000  Cu
  Cu12     1.0000 0.50170  0.46814  0.70030  Biso   1.000  Cu
  Cu13     1.0000 0.46814  0.50170  0.79970  Biso   1.000  Cu
  Cu14     1.0000 0.03186  0.99830  0.79970  Biso   1.000  Cu
  Cu15     1.0000 0.50170  0.03186  0.79970  Biso   1.000  Cu
  Cu16     1.0000 0.99830  0.46814  0.79970  Biso   1.000  Cu
  Cu17     1.0000 0.25000  0.25000  0.42100  Biso   1.000  Cu
  Cu18     1.0000 0.25000  0.25000  0.07900  Biso   1.000  Cu
  Cu19     1.0000 0.75000  0.75000  0.57900  Biso   1.000  Cu
  Cu20     1.0000 0.75000  0.75000  0.92100  Biso   1.000  Cu
  Cu21     1.0000 0.25000  0.25000  0.54309  Biso   1.000  Cu
  Cu22     1.0000 0.25000  0.25000  0.95691  Biso   1.000  Cu
  Cu23     1.0000 0.75000  0.75000  0.45691  Biso   1.000  Cu
  Cu24     1.0000 0.75000  0.75000  0.04309  Biso   1.000  Cu
  O1       1.0000 0.41235  0.49313  0.75880  Biso   1.000  O
  O2       1.0000 0.08765  0.00687  0.75880  Biso   1.000  O
  O3       1.0000 0.00687  0.41235  0.75880  Biso   1.000  O
  O4       1.0000 0.49313  0.08765  0.75880  Biso   1.000  O
  O5       1.0000 0.08765  0.49313  0.74120  Biso   1.000  O
  O6       1.0000 0.41235  0.00687  0.74120  Biso   1.000  O
  O7       1.0000 0.49313  0.41235  0.74120  Biso   1.000  O
  O8       1.0000 0.00687  0.08765  0.74120  Biso   1.000  O
  O9       1.0000 0.58765  0.50687  0.24120  Biso   1.000  O
  O10      1.0000 0.91235  0.99313  0.24120  Biso   1.000  O
  O11      1.0000 0.99313  0.58765  0.24120  Biso   1.000  O
  O12      1.0000 0.50687  0.91235  0.24120  Biso   1.000  O
  O13      1.0000 0.91235  0.50687  0.25880  Biso   1.000  O
  O14      1.0000 0.58765  0.99313  0.25880  Biso   1.000  O
  O15      1.0000 0.50687  0.58765  0.25880  Biso   1.000  O
  O16      1.0000 0.99313  0.91235  0.25880  Biso   1.000  O
  O17      1.0000 0.44234  0.46772  0.67160  Biso   1.000  O
  O18      1.0000 0.05766  0.03228  0.67160  Biso   1.000  O
  O19      1.0000 0.03228  0.44234  0.67160  Biso   1.000  O
  O20      1.0000 0.46772  0.05766  0.67160  Biso   1.000  O
  O21      1.0000 0.05766  0.46772  0.82840  Biso   1.000  O
  O22      1.0000 0.44234  0.03228  0.82840  Biso   1.000  O
  O23      1.0000 0.46772  0.44234  0.82840  Biso   1.000  O
  O24      1.0000 0.03228  0.05766  0.82840  Biso   1.000  O
  O25      1.0000 0.55766  0.53228  0.32840  Biso   1.000  O
  O26      1.0000 0.94234  0.96772  0.32840  Biso   1.000  O
  O27      1.0000 0.96772  0.55766  0.32840  Biso   1.000  O
  O28      1.0000 0.53228  0.94234  0.32840  Biso   1.000  O
  O29      1.0000 0.94234  0.53228  0.17160  Biso   1.000  O
  O30      1.0000 0.55766  0.96772  0.17160  Biso   1.000  O
  O31      1.0000 0.53228  0.55766  0.17160  Biso   1.000  O
  O32      1.0000 0.96772  0.94234  0.17160  Biso   1.000  O
  O33      1.0000 0.02760  0.49263  0.32530  Biso   1.000  O
  O34      1.0000 0.47240  0.00737  0.32530  Biso   1.000  O
  O35      1.0000 0.00737  0.02760  0.32530  Biso   1.000  O
  O36      1.0000 0.49263  0.47240  0.32530  Biso   1.000  O
  O37      1.0000 0.47240  0.49263  0.17470  Biso   1.000  O
  O38      1.0000 0.02760  0.00737  0.17470  Biso   1.000  O
  O39      1.0000 0.49263  0.02760  0.17470  Biso   1.000  O
  O40      1.0000 0.00737  0.47240  0.17470  Biso   1.000  O
  O41      1.0000 0.97240  0.50737  0.67470  Biso   1.000  O
  O42      1.0000 0.52760  0.99263  0.67470  Biso   1.000  O
  O43      1.0000 0.99263  0.97240  0.67470  Biso   1.000  O
  O44      1.0000 0.50737  0.52760  0.67470  Biso   1.000  O
  O45      1.0000 0.52760  0.50737  0.82530  Biso   1.000  O
  O46      1.0000 0.97240  0.99263  0.82530  Biso   1.000  O
  O47      1.0000 0.50737  0.97240  0.82530  Biso   1.000  O
  O48      1.0000 0.99263  0.52760  0.82530  Biso   1.000  O
  O49      1.0000 0.05586  0.52550  0.24360  Biso   1.000  O
  O50      1.0000 0.44414  0.97450  0.24360  Biso   1.000  O
  O51      1.0000 0.97450  0.05586  0.24360  Biso   1.000  O
  O52      1.0000 0.52550  0.44414  0.24360  Biso   1.000  O
  O53      1.0000 0.44414  0.52550  0.25640  Biso   1.000  O
  O54      1.0000 0.05586  0.97450  0.25640  Biso   1.000  O
  O55      1.0000 0.52550  0.05586  0.25640  Biso   1.000  O
  O56      1.0000 0.97450  0.44414  0.25640  Biso   1.000  O
  O57      1.0000 0.94414  0.47450  0.75640  Biso   1.000  O
  O58      1.0000 0.55586  0.02550  0.75640  Biso   1.000  O
  O59      1.0000 0.02550  0.94414  0.75640  Biso   1.000  O
  O60      1.0000 0.47450  0.55586  0.75640  Biso   1.000  O
  O61      1.0000 0.55586  0.47450  0.74360  Biso   1.000  O
  O62      1.0000 0.94414  0.02550  0.74360  Biso   1.000  O
  O63      1.0000 0.47450  0.94414  0.74360  Biso   1.000  O
  O64      1.0000 0.02550  0.55586  0.74360  Biso   1.000  O
  O65      1.0000 0.25181  0.31219  0.53340  Biso   1.000  O
  O66      1.0000 0.24819  0.18781  0.53340  Biso   1.000  O
  O67      1.0000 0.18781  0.25181  0.53340  Biso   1.000  O
  O68      1.0000 0.31219  0.24819  0.53340  Biso   1.000  O
  O69      1.0000 0.24819  0.31219  0.96660  Biso   1.000  O
  O70      1.0000 0.25181  0.18781  0.96660  Biso   1.000  O
  O71      1.0000 0.31219  0.25181  0.96660  Biso   1.000  O
  O72      1.0000 0.18781  0.24819  0.96660  Biso   1.000  O
  O73      1.0000 0.74819  0.68781  0.46660  Biso   1.000  O
  O74      1.0000 0.75181  0.81219  0.46660  Biso   1.000  O
  O75      1.0000 0.81219  0.74819  0.46660  Biso   1.000  O
  O76      1.0000 0.68781  0.75181  0.46660  Biso   1.000  O
  O77      1.0000 0.75181  0.68781  0.03340  Biso   1.000  O
  O78      1.0000 0.74819  0.81219  0.03340  Biso   1.000  O
  O79      1.0000 0.68781  0.74819  0.03340  Biso   1.000  O
  O80      1.0000 0.81219  0.75181  0.03340  Biso   1.000  O
  O81      1.0000 0.24118  0.31209  0.43010  Biso   1.000  O
  O82      1.0000 0.25882  0.18791  0.43010  Biso   1.000  O
  O83      1.0000 0.18791  0.24118  0.43010  Biso   1.000  O
  O84      1.0000 0.31209  0.25882  0.43010  Biso   1.000  O
  O85      1.0000 0.25882  0.31209  0.06990  Biso   1.000  O
  O86      1.0000 0.24118  0.18791  0.06990  Biso   1.000  O
  O87      1.0000 0.31209  0.24118  0.06990  Biso   1.000  O
  O88      1.0000 0.18791  0.25882  0.06990  Biso   1.000  O
  O89      1.0000 0.75882  0.68791  0.56990  Biso   1.000  O
  O90      1.0000 0.74118  0.81209  0.56990  Biso   1.000  O
  O91      1.0000 0.81209  0.75882  0.56990  Biso   1.000  O
  O92      1.0000 0.68791  0.74118  0.56990  Biso   1.000  O
  O93      1.0000 0.74118  0.68791  0.93010  Biso   1.000  O
  O94      1.0000 0.75882  0.81209  0.93010  Biso   1.000  O
  O95      1.0000 0.68791  0.75882  0.93010  Biso   1.000  O
  O96      1.0000 0.81209  0.74118  0.93010  Biso   1.000  O
  O97      1.0000 0.24928  0.46629  0.59290  Biso   1.000  O
  O98      1.0000 0.25072  0.03371  0.59290  Biso   1.000  O
  O99      1.0000 0.03371  0.24928  0.59290  Biso   1.000  O
  O100     1.0000 0.46629  0.25072  0.59290  Biso   1.000  O
  O101     1.0000 0.25072  0.46629  0.90710  Biso   1.000  O
  O102     1.0000 0.24928  0.03371  0.90710  Biso   1.000  O
  O103     1.0000 0.46629  0.24928  0.90710  Biso   1.000  O
  O104     1.0000 0.03371  0.25072  0.90710  Biso   1.000  O
  O105     1.0000 0.75072  0.53371  0.40710  Biso   1.000  O
  O106     1.0000 0.74928  0.96629  0.40710  Biso   1.000  O
  O107     1.0000 0.96629  0.75072  0.40710  Biso   1.000  O
  O108     1.0000 0.53371  0.74928  0.40710  Biso   1.000  O
  O109     1.0000 0.74928  0.53371  0.09290  Biso   1.000  O
  O110     1.0000 0.75072  0.96629  0.09290  Biso   1.000  O
  O111     1.0000 0.53371  0.75072  0.09290  Biso   1.000  O
  O112     1.0000 0.96629  0.74928  0.09290  Biso   1.000  O
  O113     1.0000 0.94504  0.47384  0.38900  Biso   1.000  O
  O114     1.0000 0.55496  0.02616  0.38900  Biso   1.000  O
  O115     1.0000 0.02616  0.94504  0.38900  Biso   1.000  O
  O116     1.0000 0.47384  0.55496  0.38900  Biso   1.000  O
  O117     1.0000 0.55496  0.47384  0.11100  Biso   1.000  O
  O118     1.0000 0.94504  0.02616  0.11100  Biso   1.000  O
  O119     1.0000 0.47384  0.94504  0.11100  Biso   1.000  O
  O120     1.0000 0.02616  0.55496  0.11100  Biso   1.000  O
  O121     1.0000 0.05496  0.52616  0.61100  Biso   1.000  O
  O122     1.0000 0.44504  0.97384  0.61100  Biso   1.000  O
  O123     1.0000 0.97384  0.05496  0.61100  Biso   1.000  O
  O124     1.0000 0.52616  0.44504  0.61100  Biso   1.000  O
  O125     1.0000 0.44504  0.52616  0.88900  Biso   1.000  O
  O126     1.0000 0.05496  0.97384  0.88900  Biso   1.000  O
  O127     1.0000 0.52616  0.05496  0.88900  Biso   1.000  O
  O128     1.0000 0.97384  0.44504  0.88900  Biso   1.000  O
  H1       1.0000 0.96173  0.46871  0.42515  Biso   1.000  H
  H2       1.0000 0.53827  0.03129  0.42515  Biso   1.000  H
  H3       1.0000 0.03129  0.96173  0.42515  Biso   1.000  H
  H4       1.0000 0.46871  0.53827  0.42515  Biso   1.000  H
  H5       1.0000 0.53827  0.46871  0.07485  Biso   1.000  H
  H6       1.0000 0.96173  0.03129  0.07485  Biso   1.000  H
  H7       1.0000 0.46871  0.96173  0.07485  Biso   1.000  H
  H8       1.0000 0.03129  0.53827  0.07485  Biso   1.000  H
  H9       1.0000 0.03827  0.53129  0.57485  Biso   1.000  H
  H10      1.0000 0.46173  0.96871  0.57485  Biso   1.000  H
  H11      1.0000 0.96871  0.03827  0.57485  Biso   1.000  H
  H12      1.0000 0.53129  0.46173  0.57485  Biso   1.000  H
  H13      1.0000 0.46173  0.53129  0.92515  Biso   1.000  H
  H14      1.0000 0.03827  0.96871  0.92515  Biso   1.000  H
  H15      1.0000 0.53129  0.03827  0.92515  Biso   1.000  H
  H16      1.0000 0.96871  0.46173  0.92515  Biso   1.000  H
  H17      1.0000 0.91636  0.46658  0.39859  Biso   1.000  H
  H18      1.0000 0.58364  0.03342  0.39859  Biso   1.000  H
  H19      1.0000 0.03342  0.91636  0.39859  Biso   1.000  H
  H20      1.0000 0.46658  0.58364  0.39859  Biso   1.000  H
  H21      1.0000 0.58364  0.46658  0.10141  Biso   1.000  H
  H22      1.0000 0.91636  0.03342  0.10141  Biso   1.000  H
  H23      1.0000 0.46658  0.91636  0.10141  Biso   1.000  H
  H24      1.0000 0.03342  0.58364  0.10141  Biso   1.000  H
  H25      1.0000 0.08364  0.53342  0.60141  Biso   1.000  H
  H26      1.0000 0.41636  0.96658  0.60141  Biso   1.000  H
  H27      1.0000 0.96658  0.08364  0.60141  Biso   1.000  H
  H28      1.0000 0.53342  0.41636  0.60141  Biso   1.000  H
  H29      1.0000 0.41636  0.53342  0.89859  Biso   1.000  H
  H30      1.0000 0.08364  0.96658  0.89859  Biso   1.000  H
  H31      1.0000 0.53342  0.08364  0.89859  Biso   1.000  H
  H32      1.0000 0.96658  0.41636  0.89859  Biso   1.000  H
  O129     1.0000 0.22494  0.46650  0.37570  Biso   1.000  O
  O130     1.0000 0.27506  0.03350  0.37570  Biso   1.000  O
  O131     1.0000 0.03350  0.22494  0.37570  Biso   1.000  O
  O132     1.0000 0.46650  0.27506  0.37570  Biso   1.000  O
  O133     1.0000 0.27506  0.46650  0.12430  Biso   1.000  O
  O134     1.0000 0.22494  0.03350  0.12430  Biso   1.000  O
  O135     1.0000 0.46650  0.22494  0.12430  Biso   1.000  O
  O136     1.0000 0.03350  0.27506  0.12430  Biso   1.000  O
  O137     1.0000 0.77506  0.53350  0.62430  Biso   1.000  O
  O138     1.0000 0.72494  0.96650  0.62430  Biso   1.000  O
  O139     1.0000 0.96650  0.77506  0.62430  Biso   1.000  O
  O140     1.0000 0.53350  0.72494  0.62430  Biso   1.000  O
  O141     1.0000 0.72494  0.53350  0.87570  Biso   1.000  O
  O142     1.0000 0.77506  0.96650  0.87570  Biso   1.000  O
  O143     1.0000 0.53350  0.77506  0.87570  Biso   1.000  O
  O144     1.0000 0.96650  0.72494  0.87570  Biso   1.000  O
  C1       1.0000 0.36940  0.47460  0.67410  Biso   1.000  C
  C2       1.0000 0.13060  0.02540  0.67410  Biso   1.000  C
  C3       1.0000 0.02540  0.36940  0.67410  Biso   1.000  C
  C4       1.0000 0.47460  0.13060  0.67410  Biso   1.000  C
  C5       1.0000 0.13060  0.47460  0.82590  Biso   1.000  C
  C6       1.0000 0.36940  0.02540  0.82590  Biso   1.000  C
  C7       1.0000 0.47460  0.36940  0.82590  Biso   1.000  C
  C8       1.0000 0.02540  0.13060  0.82590  Biso   1.000  C
  C9       1.0000 0.63060  0.52540  0.32590  Biso   1.000  C
  C10      1.0000 0.86940  0.97460  0.32590  Biso   1.000  C
  C11      1.0000 0.97460  0.63060  0.32590  Biso   1.000  C
  C12      1.0000 0.52540  0.86940  0.32590  Biso   1.000  C
  C13      1.0000 0.86940  0.52540  0.17410  Biso   1.000  C
  C14      1.0000 0.63060  0.97460  0.17410  Biso   1.000  C
  C15      1.0000 0.52540  0.63060  0.17410  Biso   1.000  C
  C16      1.0000 0.97460  0.86940  0.17410  Biso   1.000  C
  C17      1.0000 0.10290  0.49560  0.31660  Biso   1.000  C
  C18      1.0000 0.39710  0.00440  0.31660  Biso   1.000  C
  C19      1.0000 0.00440  0.10290  0.31660  Biso   1.000  C
  C20      1.0000 0.49560  0.39710  0.31660  Biso   1.000  C
  C21      1.0000 0.39710  0.49560  0.18340  Biso   1.000  C
  C22      1.0000 0.10290  0.00440  0.18340  Biso   1.000  C
  C23      1.0000 0.49560  0.10290  0.18340  Biso   1.000  C
  C24      1.0000 0.00440  0.39710  0.18340  Biso   1.000  C
  C25      1.0000 0.89710  0.50440  0.68340  Biso   1.000  C
  C26      1.0000 0.60290  0.99560  0.68340  Biso   1.000  C
  C27      1.0000 0.99560  0.89710  0.68340  Biso   1.000  C
  C28      1.0000 0.50440  0.60290  0.68340  Biso   1.000  C
  C29      1.0000 0.60290  0.50440  0.81660  Biso   1.000  C
  C30      1.0000 0.89710  0.99560  0.81660  Biso   1.000  C
  C31      1.0000 0.50440  0.89710  0.81660  Biso   1.000  C
  C32      1.0000 0.99560  0.60290  0.81660  Biso   1.000  C
  C33      1.0000 0.24230  0.37760  0.48270  Biso   1.000  C
  C34      1.0000 0.25770  0.12240  0.48270  Biso   1.000  C
  C35      1.0000 0.12240  0.24230  0.48270  Biso   1.000  C
  C36      1.0000 0.37760  0.25770  0.48270  Biso   1.000  C
  C37      1.0000 0.25770  0.37760  0.01730  Biso   1.000  C
  C38      1.0000 0.24230  0.12240  0.01730  Biso   1.000  C
  C39      1.0000 0.37760  0.24230  0.01730  Biso   1.000  C
  C40      1.0000 0.12240  0.25770  0.01730  Biso   1.000  C
  C41      1.0000 0.75770  0.62240  0.51730  Biso   1.000  C
  C42      1.0000 0.74230  0.87760  0.51730  Biso   1.000  C
  C43      1.0000 0.87760  0.75770  0.51730  Biso   1.000  C
  C44      1.0000 0.62240  0.74230  0.51730  Biso   1.000  C
  C45      1.0000 0.74230  0.62240  0.98270  Biso   1.000  C
  C46      1.0000 0.75770  0.87760  0.98270  Biso   1.000  C
  C47      1.0000 0.62240  0.75770  0.98270  Biso   1.000  C
  C48      1.0000 0.87760  0.74230  0.98270  Biso   1.000  C
  C49      1.0000 0.41140  0.47920  0.70420  Biso   1.000  C
  C50      1.0000 0.08860  0.02080  0.70420  Biso   1.000  C
  C51      1.0000 0.02080  0.41140  0.70420  Biso   1.000  C
  C52      1.0000 0.47920  0.08860  0.70420  Biso   1.000  C
  C53      1.0000 0.08860  0.47920  0.79580  Biso   1.000  C
  C54      1.0000 0.41140  0.02080  0.79580  Biso   1.000  C
  C55      1.0000 0.47920  0.41140  0.79580  Biso   1.000  C
  C56      1.0000 0.02080  0.08860  0.79580  Biso   1.000  C
  C57      1.0000 0.58860  0.52080  0.29580  Biso   1.000  C
  C58      1.0000 0.91140  0.97920  0.29580  Biso   1.000  C
  C59      1.0000 0.97920  0.58860  0.29580  Biso   1.000  C
  C60      1.0000 0.52080  0.91140  0.29580  Biso   1.000  C
  C61      1.0000 0.91140  0.52080  0.20420  Biso   1.000  C
  C62      1.0000 0.58860  0.97920  0.20420  Biso   1.000  C
  C63      1.0000 0.52080  0.58860  0.20420  Biso   1.000  C
  C64      1.0000 0.97920  0.91140  0.20420  Biso   1.000  C
  C65      1.0000 0.05730  0.50590  0.29330  Biso   1.000  C
  C66      1.0000 0.44270  0.99410  0.29330  Biso   1.000  C
  C67      1.0000 0.99410  0.05730  0.29330  Biso   1.000  C
  C68      1.0000 0.50590  0.44270  0.29330  Biso   1.000  C
  C69      1.0000 0.44270  0.50590  0.20670  Biso   1.000  C
  C70      1.0000 0.05730  0.99410  0.20670  Biso   1.000  C
  C71      1.0000 0.50590  0.05730  0.20670  Biso   1.000  C
  C72      1.0000 0.99410  0.44270  0.20670  Biso   1.000  C
  C73      1.0000 0.94270  0.49410  0.70670  Biso   1.000  C
  C74      1.0000 0.55730  0.00590  0.70670  Biso   1.000  C
  C75      1.0000 0.00590  0.94270  0.70670  Biso   1.000  C
  C76      1.0000 0.49410  0.55730  0.70670  Biso   1.000  C
  C77      1.0000 0.55730  0.49410  0.79330  Biso   1.000  C
  C78      1.0000 0.94270  0.00590  0.79330  Biso   1.000  C
  C79      1.0000 0.49410  0.94270  0.79330  Biso   1.000  C
  C80      1.0000 0.00590  0.55730  0.79330  Biso   1.000  C
  C81      1.0000 0.24900  0.39900  0.53810  Biso   1.000  C
  C82      1.0000 0.25100  0.10100  0.53810  Biso   1.000  C
  C83      1.0000 0.10100  0.24900  0.53810  Biso   1.000  C
  C84      1.0000 0.39900  0.25100  0.53810  Biso   1.000  C
  C85      1.0000 0.25100  0.39900  0.96190  Biso   1.000  C
  C86      1.0000 0.24900  0.10100  0.96190  Biso   1.000  C
  C87      1.0000 0.39900  0.24900  0.96190  Biso   1.000  C
  C88      1.0000 0.10100  0.25100  0.96190  Biso   1.000  C
  C89      1.0000 0.75100  0.60100  0.46190  Biso   1.000  C
  C90      1.0000 0.74900  0.89900  0.46190  Biso   1.000  C
  C91      1.0000 0.89900  0.75100  0.46190  Biso   1.000  C
  C92      1.0000 0.60100  0.74900  0.46190  Biso   1.000  C
  C93      1.0000 0.74900  0.60100  0.03810  Biso   1.000  C
  C94      1.0000 0.75100  0.89900  0.03810  Biso   1.000  C
  C95      1.0000 0.60100  0.75100  0.03810  Biso   1.000  C
  C96      1.0000 0.89900  0.74900  0.03810  Biso   1.000  C
  H33      1.0000 0.25536  0.38442  0.57451  Biso   1.000  H
  H34      1.0000 0.24464  0.11558  0.57451  Biso   1.000  H
  H35      1.0000 0.11558  0.25536  0.57451  Biso   1.000  H
  H36      1.0000 0.38442  0.24464  0.57451  Biso   1.000  H
  H37      1.0000 0.24464  0.38442  0.92549  Biso   1.000  H
  H38      1.0000 0.25536  0.11558  0.92549  Biso   1.000  H
  H39      1.0000 0.38442  0.25536  0.92549  Biso   1.000  H
  H40      1.0000 0.11558  0.24464  0.92549  Biso   1.000  H
  H41      1.0000 0.74464  0.61558  0.42549  Biso   1.000  H
  H42      1.0000 0.75536  0.88442  0.42549  Biso   1.000  H
  H43      1.0000 0.88442  0.74464  0.42549  Biso   1.000  H
  H44      1.0000 0.61558  0.75536  0.42549  Biso   1.000  H
  H45      1.0000 0.75536  0.61558  0.07451  Biso   1.000  H
  H46      1.0000 0.74464  0.88442  0.07451  Biso   1.000  H
  H47      1.0000 0.61558  0.74464  0.07451  Biso   1.000  H
  H48      1.0000 0.88442  0.75536  0.07451  Biso   1.000  H
  C97      1.0000 0.24650  0.32980  0.48240  Biso   1.000  C
  C98      1.0000 0.25350  0.17020  0.48240  Biso   1.000  C
  C99      1.0000 0.17020  0.24650  0.48240  Biso   1.000  C
  C100     1.0000 0.32980  0.25350  0.48240  Biso   1.000  C
  C101     1.0000 0.25350  0.32980  0.01760  Biso   1.000  C
  C102     1.0000 0.24650  0.17020  0.01760  Biso   1.000  C
  C103     1.0000 0.32980  0.24650  0.01760  Biso   1.000  C
  C104     1.0000 0.17020  0.25350  0.01760  Biso   1.000  C
  C105     1.0000 0.75350  0.67020  0.51760  Biso   1.000  C
  C106     1.0000 0.74650  0.82980  0.51760  Biso   1.000  C
  C107     1.0000 0.82980  0.75350  0.51760  Biso   1.000  C
  C108     1.0000 0.67020  0.74650  0.51760  Biso   1.000  C
  C109     1.0000 0.74650  0.67020  0.98240  Biso   1.000  C
  C110     1.0000 0.75350  0.82980  0.98240  Biso   1.000  C
  C111     1.0000 0.67020  0.75350  0.98240  Biso   1.000  C
  C112     1.0000 0.82980  0.74650  0.98240  Biso   1.000  C
  C113     1.0000 0.10660  0.47070  0.36880  Biso   1.000  C
  C114     1.0000 0.39340  0.02930  0.36880  Biso   1.000  C
  C115     1.0000 0.02930  0.10660  0.36880  Biso   1.000  C
  C116     1.0000 0.47070  0.39340  0.36880  Biso   1.000  C
  C117     1.0000 0.39340  0.47070  0.13120  Biso   1.000  C
  C118     1.0000 0.10660  0.02930  0.13120  Biso   1.000  C
  C119     1.0000 0.47070  0.10660  0.13120  Biso   1.000  C
  C120     1.0000 0.02930  0.39340  0.13120  Biso   1.000  C
  C121     1.0000 0.89340  0.52930  0.63120  Biso   1.000  C
  C122     1.0000 0.60660  0.97070  0.63120  Biso   1.000  C
  C123     1.0000 0.97070  0.89340  0.63120  Biso   1.000  C
  C124     1.0000 0.52930  0.60660  0.63120  Biso   1.000  C
  C125     1.0000 0.60660  0.52930  0.86880  Biso   1.000  C
  C126     1.0000 0.89340  0.97070  0.86880  Biso   1.000  C
  C127     1.0000 0.52930  0.89340  0.86880  Biso   1.000  C
  C128     1.0000 0.97070  0.60660  0.86880  Biso   1.000  C
  H49      1.0000 0.08220  0.46024  0.38794  Biso   1.000  H
  H50      1.0000 0.41780  0.03976  0.38794  Biso   1.000  H
  H51      1.0000 0.03976  0.08220  0.38794  Biso   1.000  H
  H52      1.0000 0.46024  0.41780  0.38794  Biso   1.000  H
  H53      1.0000 0.41780  0.46024  0.11206  Biso   1.000  H
  H54      1.0000 0.08220  0.03976  0.11206  Biso   1.000  H
  H55      1.0000 0.46024  0.08220  0.11206  Biso   1.000  H
  H56      1.0000 0.03976  0.41780  0.11206  Biso   1.000  H
  H57      1.0000 0.91780  0.53976  0.61206  Biso   1.000  H
  H58      1.0000 0.58220  0.96024  0.61206  Biso   1.000  H
  H59      1.0000 0.96024  0.91780  0.61206  Biso   1.000  H
  H60      1.0000 0.53976  0.58220  0.61206  Biso   1.000  H
  H61      1.0000 0.58220  0.53976  0.88794  Biso   1.000  H
  H62      1.0000 0.91780  0.96024  0.88794  Biso   1.000  H
  H63      1.0000 0.53976  0.91780  0.88794  Biso   1.000  H
  H64      1.0000 0.96024  0.58220  0.88794  Biso   1.000  H
  C129     1.0000 0.28990  0.46840  0.61720  Biso   1.000  C
  C130     1.0000 0.21010  0.03160  0.61720  Biso   1.000  C
  C131     1.0000 0.03160  0.28990  0.61720  Biso   1.000  C
  C132     1.0000 0.46840  0.21010  0.61720  Biso   1.000  C
  C133     1.0000 0.21010  0.46840  0.88280  Biso   1.000  C
  C134     1.0000 0.28990  0.03160  0.88280  Biso   1.000  C
  C135     1.0000 0.46840  0.28990  0.88280  Biso   1.000  C
  C136     1.0000 0.03160  0.21010  0.88280  Biso   1.000  C
  C137     1.0000 0.71010  0.53160  0.38280  Biso   1.000  C
  C138     1.0000 0.78990  0.96840  0.38280  Biso   1.000  C
  C139     1.0000 0.96840  0.71010  0.38280  Biso   1.000  C
  C140     1.0000 0.53160  0.78990  0.38280  Biso   1.000  C
  C141     1.0000 0.78990  0.53160  0.11720  Biso   1.000  C
  C142     1.0000 0.71010  0.96840  0.11720  Biso   1.000  C
  C143     1.0000 0.53160  0.71010  0.11720  Biso   1.000  C
  C144     1.0000 0.96840  0.78990  0.11720  Biso   1.000  C
  C145     1.0000 0.23070  0.44030  0.43050  Biso   1.000  C
  C146     1.0000 0.26930  0.05970  0.43050  Biso   1.000  C
  C147     1.0000 0.05970  0.23070  0.43050  Biso   1.000  C
  C148     1.0000 0.44030  0.26930  0.43050  Biso   1.000  C
  C149     1.0000 0.26930  0.44030  0.06950  Biso   1.000  C
  C150     1.0000 0.23070  0.05970  0.06950  Biso   1.000  C
  C151     1.0000 0.44030  0.23070  0.06950  Biso   1.000  C
  C152     1.0000 0.05970  0.26930  0.06950  Biso   1.000  C
  C153     1.0000 0.76930  0.55970  0.56950  Biso   1.000  C
  C154     1.0000 0.73070  0.94030  0.56950  Biso   1.000  C
  C155     1.0000 0.94030  0.76930  0.56950  Biso   1.000  C
  C156     1.0000 0.55970  0.73070  0.56950  Biso   1.000  C
  C157     1.0000 0.73070  0.55970  0.93050  Biso   1.000  C
  C158     1.0000 0.76930  0.94030  0.93050  Biso   1.000  C
  C159     1.0000 0.55970  0.76930  0.93050  Biso   1.000  C
  C160     1.0000 0.94030  0.73070  0.93050  Biso   1.000  C
  C161     1.0000 0.24590  0.44310  0.53690  Biso   1.000  C
  C162     1.0000 0.25410  0.05690  0.53690  Biso   1.000  C
  C163     1.0000 0.05690  0.24590  0.53690  Biso   1.000  C
  C164     1.0000 0.44310  0.25410  0.53690  Biso   1.000  C
  C165     1.0000 0.25410  0.44310  0.96310  Biso   1.000  C
  C166     1.0000 0.24590  0.05690  0.96310  Biso   1.000  C
  C167     1.0000 0.44310  0.24590  0.96310  Biso   1.000  C
  C168     1.0000 0.05690  0.25410  0.96310  Biso   1.000  C
  C169     1.0000 0.75410  0.55690  0.46310  Biso   1.000  C
  C170     1.0000 0.74590  0.94310  0.46310  Biso   1.000  C
  C171     1.0000 0.94310  0.75410  0.46310  Biso   1.000  C
  C172     1.0000 0.55690  0.74590  0.46310  Biso   1.000  C
  C173     1.0000 0.74590  0.55690  0.03690  Biso   1.000  C
  C174     1.0000 0.75410  0.94310  0.03690  Biso   1.000  C
  C175     1.0000 0.55690  0.75410  0.03690  Biso   1.000  C
  C176     1.0000 0.94310  0.74590  0.03690  Biso   1.000  C
  C177     1.0000 0.36580  0.46100  0.61500  Biso   1.000  C
  C178     1.0000 0.13420  0.03900  0.61500  Biso   1.000  C
  C179     1.0000 0.03900  0.36580  0.61500  Biso   1.000  C
  C180     1.0000 0.46100  0.13420  0.61500  Biso   1.000  C
  C181     1.0000 0.13420  0.46100  0.88500  Biso   1.000  C
  C182     1.0000 0.36580  0.03900  0.88500  Biso   1.000  C
  C183     1.0000 0.46100  0.36580  0.88500  Biso   1.000  C
  C184     1.0000 0.03900  0.13420  0.88500  Biso   1.000  C
  C185     1.0000 0.63420  0.53900  0.38500  Biso   1.000  C
  C186     1.0000 0.86580  0.96100  0.38500  Biso   1.000  C
  C187     1.0000 0.96100  0.63420  0.38500  Biso   1.000  C
  C188     1.0000 0.53900  0.86580  0.38500  Biso   1.000  C
  C189     1.0000 0.86580  0.53900  0.11500  Biso   1.000  C
  C190     1.0000 0.63420  0.96100  0.11500  Biso   1.000  C
  C191     1.0000 0.53900  0.63420  0.11500  Biso   1.000  C
  C192     1.0000 0.96100  0.86580  0.11500  Biso   1.000  C
  H65      1.0000 0.39044  0.45399  0.59347  Biso   1.000  H
  H66      1.0000 0.10956  0.04601  0.59347  Biso   1.000  H
  H67      1.0000 0.04601  0.39044  0.59347  Biso   1.000  H
  H68      1.0000 0.45399  0.10956  0.59347  Biso   1.000  H
  H69      1.0000 0.10956  0.45399  0.90653  Biso   1.000  H
  H70      1.0000 0.39044  0.04601  0.90653  Biso   1.000  H
  H71      1.0000 0.45399  0.39044  0.90653  Biso   1.000  H
  H72      1.0000 0.04601  0.10956  0.90653  Biso   1.000  H
  H73      1.0000 0.60956  0.54601  0.40653  Biso   1.000  H
  H74      1.0000 0.89044  0.95399  0.40653  Biso   1.000  H
  H75      1.0000 0.95399  0.60956  0.40653  Biso   1.000  H
  H76      1.0000 0.54601  0.89044  0.40653  Biso   1.000  H
  H77      1.0000 0.89044  0.54601  0.09347  Biso   1.000  H
  H78      1.0000 0.60956  0.95399  0.09347  Biso   1.000  H
  H79      1.0000 0.54601  0.60956  0.09347  Biso   1.000  H
  H80      1.0000 0.95399  0.89044  0.09347  Biso   1.000  H
  C193     1.0000 0.23380  0.39930  0.42680  Biso   1.000  C
  C194     1.0000 0.26620  0.10070  0.42680  Biso   1.000  C
  C195     1.0000 0.10070  0.23380  0.42680  Biso   1.000  C
  C196     1.0000 0.39930  0.26620  0.42680  Biso   1.000  C
  C197     1.0000 0.26620  0.39930  0.07320  Biso   1.000  C
  C198     1.0000 0.23380  0.10070  0.07320  Biso   1.000  C
  C199     1.0000 0.39930  0.23380  0.07320  Biso   1.000  C
  C200     1.0000 0.10070  0.26620  0.07320  Biso   1.000  C
  C201     1.0000 0.76620  0.60070  0.57320  Biso   1.000  C
  C202     1.0000 0.73380  0.89930  0.57320  Biso   1.000  C
  C203     1.0000 0.89930  0.76620  0.57320  Biso   1.000  C
  C204     1.0000 0.60070  0.73380  0.57320  Biso   1.000  C
  C205     1.0000 0.73380  0.60070  0.92680  Biso   1.000  C
  C206     1.0000 0.76620  0.89930  0.92680  Biso   1.000  C
  C207     1.0000 0.60070  0.76620  0.92680  Biso   1.000  C
  C208     1.0000 0.89930  0.73380  0.92680  Biso   1.000  C
  H81      1.0000 0.23069  0.38499  0.38942  Biso   1.000  H
  H82      1.0000 0.26931  0.11501  0.38942  Biso   1.000  H
  H83      1.0000 0.11501  0.23069  0.38942  Biso   1.000  H
  H84      1.0000 0.38499  0.26931  0.38942  Biso   1.000  H
  H85      1.0000 0.26931  0.38499  0.11058  Biso   1.000  H
  H86      1.0000 0.23069  0.11501  0.11058  Biso   1.000  H
  H87      1.0000 0.38499  0.23069  0.11058  Biso   1.000  H
  H88      1.0000 0.11501  0.26931  0.11058  Biso   1.000  H
  H89      1.0000 0.76931  0.61501  0.61058  Biso   1.000  H
  H90      1.0000 0.73069  0.88499  0.61058  Biso   1.000  H
  H91      1.0000 0.88499  0.76931  0.61058  Biso   1.000  H
  H92      1.0000 0.61501  0.73069  0.61058  Biso   1.000  H
  H93      1.0000 0.73069  0.61501  0.88942  Biso   1.000  H
  H94      1.0000 0.76931  0.88499  0.88942  Biso   1.000  H
  H95      1.0000 0.61501  0.76931  0.88942  Biso   1.000  H
  H96      1.0000 0.88499  0.73069  0.88942  Biso   1.000  H
  C209     1.0000 0.18040  0.47450  0.36050  Biso   1.000  C
  C210     1.0000 0.31960  0.02550  0.36050  Biso   1.000  C
  C211     1.0000 0.02550  0.18040  0.36050  Biso   1.000  C
  C212     1.0000 0.47450  0.31960  0.36050  Biso   1.000  C
  C213     1.0000 0.31960  0.47450  0.13950  Biso   1.000  C
  C214     1.0000 0.18040  0.02550  0.13950  Biso   1.000  C
  C215     1.0000 0.47450  0.18040  0.13950  Biso   1.000  C
  C216     1.0000 0.02550  0.31960  0.13950  Biso   1.000  C
  C217     1.0000 0.81960  0.52550  0.63950  Biso   1.000  C
  C218     1.0000 0.68040  0.97450  0.63950  Biso   1.000  C
  C219     1.0000 0.97450  0.81960  0.63950  Biso   1.000  C
  C220     1.0000 0.52550  0.68040  0.63950  Biso   1.000  C
  C221     1.0000 0.68040  0.52550  0.86050  Biso   1.000  C
  C222     1.0000 0.81960  0.97450  0.86050  Biso   1.000  C
  C223     1.0000 0.52550  0.81960  0.86050  Biso   1.000  C
  C224     1.0000 0.97450  0.68040  0.86050  Biso   1.000  C
  C225     1.0000 0.13800  0.50990  0.28610  Biso   1.000  C
  C226     1.0000 0.36200  0.99010  0.28610  Biso   1.000  C
  C227     1.0000 0.99010  0.13800  0.28610  Biso   1.000  C
  C228     1.0000 0.50990  0.36200  0.28610  Biso   1.000  C
  C229     1.0000 0.36200  0.50990  0.21390  Biso   1.000  C
  C230     1.0000 0.13800  0.99010  0.21390  Biso   1.000  C
  C231     1.0000 0.50990  0.13800  0.21390  Biso   1.000  C
  C232     1.0000 0.99010  0.36200  0.21390  Biso   1.000  C
  C233     1.0000 0.86200  0.49010  0.71390  Biso   1.000  C
  C234     1.0000 0.63800  0.00990  0.71390  Biso   1.000  C
  C235     1.0000 0.00990  0.86200  0.71390  Biso   1.000  C
  C236     1.0000 0.49010  0.63800  0.71390  Biso   1.000  C
  C237     1.0000 0.63800  0.49010  0.78610  Biso   1.000  C
  C238     1.0000 0.86200  0.00990  0.78610  Biso   1.000  C
  C239     1.0000 0.49010  0.86200  0.78610  Biso   1.000  C
  C240     1.0000 0.00990  0.63800  0.78610  Biso   1.000  C
  H97      1.0000 0.13427  0.52580  0.25019  Biso   1.000  H
  H98      1.0000 0.36573  0.97420  0.25019  Biso   1.000  H
  H99      1.0000 0.97420  0.13427  0.25019  Biso   1.000  H
  H100     1.0000 0.52580  0.36573  0.25019  Biso   1.000  H
  H101     1.0000 0.36573  0.52580  0.24981  Biso   1.000  H
  H102     1.0000 0.13427  0.97420  0.24981  Biso   1.000  H
  H103     1.0000 0.52580  0.13427  0.24981  Biso   1.000  H
  H104     1.0000 0.97420  0.36573  0.24981  Biso   1.000  H
  H105     1.0000 0.86573  0.47420  0.74981  Biso   1.000  H
  H106     1.0000 0.63427  0.02580  0.74981  Biso   1.000  H
  H107     1.0000 0.02580  0.86573  0.74981  Biso   1.000  H
  H108     1.0000 0.47420  0.63427  0.74981  Biso   1.000  H
  H109     1.0000 0.63427  0.47420  0.75019  Biso   1.000  H
  H110     1.0000 0.86573  0.02580  0.75019  Biso   1.000  H
  H111     1.0000 0.47420  0.86573  0.75019  Biso   1.000  H
  H112     1.0000 0.02580  0.63427  0.75019  Biso   1.000  H
  C241     1.0000 0.32720  0.45710  0.58490  Biso   1.000  C
  C242     1.0000 0.17280  0.04290  0.58490  Biso   1.000  C
  C243     1.0000 0.04290  0.32720  0.58490  Biso   1.000  C
  C244     1.0000 0.45710  0.17280  0.58490  Biso   1.000  C
  C245     1.0000 0.17280  0.45710  0.91510  Biso   1.000  C
  C246     1.0000 0.32720  0.04290  0.91510  Biso   1.000  C
  C247     1.0000 0.45710  0.32720  0.91510  Biso   1.000  C
  C248     1.0000 0.04290  0.17280  0.91510  Biso   1.000  C
  C249     1.0000 0.67280  0.54290  0.41510  Biso   1.000  C
  C250     1.0000 0.82720  0.95710  0.41510  Biso   1.000  C
  C251     1.0000 0.95710  0.67280  0.41510  Biso   1.000  C
  C252     1.0000 0.54290  0.82720  0.41510  Biso   1.000  C
  C253     1.0000 0.82720  0.54290  0.08490  Biso   1.000  C
  C254     1.0000 0.67280  0.95710  0.08490  Biso   1.000  C
  C255     1.0000 0.54290  0.67280  0.08490  Biso   1.000  C
  C256     1.0000 0.95710  0.82720  0.08490  Biso   1.000  C
  H113     1.0000 0.32588  0.44733  0.54424  Biso   1.000  H
  H114     1.0000 0.17412  0.05267  0.54424  Biso   1.000  H
  H115     1.0000 0.05267  0.32588  0.54424  Biso   1.000  H
  H116     1.0000 0.44733  0.17412  0.54424  Biso   1.000  H
  H117     1.0000 0.17412  0.44733  0.95576  Biso   1.000  H
  H118     1.0000 0.32588  0.05267  0.95576  Biso   1.000  H
  H119     1.0000 0.44733  0.32588  0.95576  Biso   1.000  H
  H120     1.0000 0.05267  0.17412  0.95576  Biso   1.000  H
  H121     1.0000 0.67412  0.55267  0.45576  Biso   1.000  H
  H122     1.0000 0.82588  0.94733  0.45576  Biso   1.000  H
  H123     1.0000 0.94733  0.67412  0.45576  Biso   1.000  H
  H124     1.0000 0.55267  0.82588  0.45576  Biso   1.000  H
  H125     1.0000 0.82588  0.55267  0.04424  Biso   1.000  H
  H126     1.0000 0.67412  0.94733  0.04424  Biso   1.000  H
  H127     1.0000 0.55267  0.67412  0.04424  Biso   1.000  H
  H128     1.0000 0.94733  0.82588  0.04424  Biso   1.000  H
  C257     1.0000 0.23680  0.46470  0.48220  Biso   1.000  C
  C258     1.0000 0.26320  0.03530  0.48220  Biso   1.000  C
  C259     1.0000 0.03530  0.23680  0.48220  Biso   1.000  C
  C260     1.0000 0.46470  0.26320  0.48220  Biso   1.000  C
  C261     1.0000 0.26320  0.46470  0.01780  Biso   1.000  C
  C262     1.0000 0.23680  0.03530  0.01780  Biso   1.000  C
  C263     1.0000 0.46470  0.23680  0.01780  Biso   1.000  C
  C264     1.0000 0.03530  0.26320  0.01780  Biso   1.000  C
  C265     1.0000 0.76320  0.53530  0.51780  Biso   1.000  C
  C266     1.0000 0.73680  0.96470  0.51780  Biso   1.000  C
  C267     1.0000 0.96470  0.76320  0.51780  Biso   1.000  C
  C268     1.0000 0.53530  0.73680  0.51780  Biso   1.000  C
  C269     1.0000 0.73680  0.53530  0.98220  Biso   1.000  C
  C270     1.0000 0.76320  0.96470  0.98220  Biso   1.000  C
  C271     1.0000 0.53530  0.76320  0.98220  Biso   1.000  C
  C272     1.0000 0.96470  0.73680  0.98220  Biso   1.000  C
  H129     1.0000 0.23488  0.49425  0.48089  Biso   1.000  H
  H130     1.0000 0.26512  0.00575  0.48089  Biso   1.000  H
  H131     1.0000 0.00575  0.23488  0.48089  Biso   1.000  H
  H132     1.0000 0.49425  0.26512  0.48089  Biso   1.000  H
  H133     1.0000 0.26512  0.49425  0.01911  Biso   1.000  H
  H134     1.0000 0.23488  0.00575  0.01911  Biso   1.000  H
  H135     1.0000 0.49425  0.23488  0.01911  Biso   1.000  H
  H136     1.0000 0.00575  0.26512  0.01911  Biso   1.000  H
  H137     1.0000 0.76512  0.50575  0.51911  Biso   1.000  H
  H138     1.0000 0.73488  0.99425  0.51911  Biso   1.000  H
  H139     1.0000 0.99425  0.76512  0.51911  Biso   1.000  H
  H140     1.0000 0.50575  0.73488  0.51911  Biso   1.000  H
  H141     1.0000 0.73488  0.50575  0.98089  Biso   1.000  H
  H142     1.0000 0.76512  0.99425  0.98089  Biso   1.000  H
  H143     1.0000 0.50575  0.76512  0.98089  Biso   1.000  H
  H144     1.0000 0.99425  0.73488  0.98089  Biso   1.000  H
  C273     1.0000 0.17970  0.50160  0.30680  Biso   1.000  C
  C274     1.0000 0.32030  0.99840  0.30680  Biso   1.000  C
  C275     1.0000 0.99840  0.17970  0.30680  Biso   1.000  C
  C276     1.0000 0.50160  0.32030  0.30680  Biso   1.000  C
  C277     1.0000 0.32030  0.50160  0.19320  Biso   1.000  C
  C278     1.0000 0.17970  0.99840  0.19320  Biso   1.000  C
  C279     1.0000 0.50160  0.17970  0.19320  Biso   1.000  C
  C280     1.0000 0.99840  0.32030  0.19320  Biso   1.000  C
  C281     1.0000 0.82030  0.49840  0.69320  Biso   1.000  C
  C282     1.0000 0.67970  0.00160  0.69320  Biso   1.000  C
  C283     1.0000 0.00160  0.82030  0.69320  Biso   1.000  C
  C284     1.0000 0.49840  0.67970  0.69320  Biso   1.000  C
  C285     1.0000 0.67970  0.49840  0.80680  Biso   1.000  C
  C286     1.0000 0.82030  0.00160  0.80680  Biso   1.000  C
  C287     1.0000 0.49840  0.82030  0.80680  Biso   1.000  C
  C288     1.0000 0.00160  0.67970  0.80680  Biso   1.000  C
  H145     1.0000 0.20396  0.51235  0.28782  Biso   1.000  H
  H146     1.0000 0.29604  0.98765  0.28782  Biso   1.000  H
  H147     1.0000 0.98765  0.20396  0.28782  Biso   1.000  H
  H148     1.0000 0.51235  0.29604  0.28782  Biso   1.000  H
  H149     1.0000 0.29604  0.51235  0.21218  Biso   1.000  H
  H150     1.0000 0.20396  0.98765  0.21218  Biso   1.000  H
  H151     1.0000 0.51235  0.20396  0.21218  Biso   1.000  H
  H152     1.0000 0.98765  0.29604  0.21218  Biso   1.000  H
  H153     1.0000 0.79604  0.48765  0.71218  Biso   1.000  H
  H154     1.0000 0.70396  0.01235  0.71218  Biso   1.000  H
  H155     1.0000 0.01235  0.79604  0.71218  Biso   1.000  H
  H156     1.0000 0.48765  0.70396  0.71218  Biso   1.000  H
  H157     1.0000 0.70396  0.48765  0.78782  Biso   1.000  H
  H158     1.0000 0.79604  0.01235  0.78782  Biso   1.000  H
  H159     1.0000 0.48765  0.79604  0.78782  Biso   1.000  H
  H160     1.0000 0.01235  0.70396  0.78782  Biso   1.000  H
  O145     1.0000 0.25000  0.25000  0.64160  Biso   1.000  O
  O146     1.0000 0.25000  0.25000  0.85840  Biso   1.000  O
  O147     1.0000 0.75000  0.75000  0.35840  Biso   1.000  O
  O148     1.0000 0.75000  0.75000  0.14160  Biso   1.000  O
  H161     1.0000 0.27210  0.25000  0.66434  Biso   1.000  H
  H162     1.0000 0.22790  0.25000  0.66434  Biso   1.000  H
  H163     1.0000 0.25000  0.27210  0.66434  Biso   1.000  H
  H164     1.0000 0.25000  0.22790  0.66434  Biso   1.000  H
  H165     1.0000 0.22790  0.25000  0.83566  Biso   1.000  H
  H166     1.0000 0.27210  0.25000  0.83566  Biso   1.000  H
  H167     1.0000 0.25000  0.27210  0.83566  Biso   1.000  H
  H168     1.0000 0.25000  0.22790  0.83566  Biso   1.000  H
  H169     1.0000 0.72790  0.75000  0.33566  Biso   1.000  H
  H170     1.0000 0.77210  0.75000  0.33566  Biso   1.000  H
  H171     1.0000 0.75000  0.72790  0.33566  Biso   1.000  H
  H172     1.0000 0.75000  0.77210  0.33566  Biso   1.000  H
  H173     1.0000 0.77210  0.75000  0.16434  Biso   1.000  H
  H174     1.0000 0.72790  0.75000  0.16434  Biso   1.000  H
  H175     1.0000 0.75000  0.72790  0.16434  Biso   1.000  H
  H176     1.0000 0.75000  0.77210  0.16434  Biso   1.000  H
  O149     1.0000 0.25000  0.25000  0.32070  Biso   1.000  O
  O150     1.0000 0.25000  0.25000  0.17930  Biso   1.000  O
  O151     1.0000 0.75000  0.75000  0.67930  Biso   1.000  O
  O152     1.0000 0.75000  0.75000  0.82070  Biso   1.000  O
  H177     1.0000 0.25000  0.22790  0.29797  Biso   1.000  H
  H178     1.0000 0.25000  0.27210  0.29797  Biso   1.000  H
  H179     1.0000 0.27210  0.25000  0.29797  Biso   1.000  H
  H180     1.0000 0.22790  0.25000  0.29797  Biso   1.000  H
  H181     1.0000 0.25000  0.22790  0.20203  Biso   1.000  H
  H182     1.0000 0.25000  0.27210  0.20203  Biso   1.000  H
  H183     1.0000 0.22790  0.25000  0.20203  Biso   1.000  H
  H184     1.0000 0.27210  0.25000  0.20203  Biso   1.000  H
  H185     1.0000 0.75000  0.77210  0.70203  Biso   1.000  H
  H186     1.0000 0.75000  0.72790  0.70203  Biso   1.000  H
  H187     1.0000 0.72790  0.75000  0.70203  Biso   1.000  H
  H188     1.0000 0.77210  0.75000  0.70203  Biso   1.000  H
  H189     1.0000 0.75000  0.77210  0.79797  Biso   1.000  H
  H190     1.0000 0.75000  0.72790  0.79797  Biso   1.000  H
  H191     1.0000 0.77210  0.75000  0.79797  Biso   1.000  H
  H192     1.0000 0.72790  0.75000  0.79797  Biso   1.000  H
  C289     1.0000 0.33360  0.48500  0.70590  Biso   1.000  C
  C290     1.0000 0.16640  0.01500  0.70590  Biso   1.000  C
  C291     1.0000 0.01500  0.33360  0.70590  Biso   1.000  C
  C292     1.0000 0.48500  0.16640  0.70590  Biso   1.000  C
  C293     1.0000 0.16640  0.48500  0.79410  Biso   1.000  C
  C294     1.0000 0.33360  0.01500  0.79410  Biso   1.000  C
  C295     1.0000 0.48500  0.33360  0.79410  Biso   1.000  C
  C296     1.0000 0.01500  0.16640  0.79410  Biso   1.000  C
  C297     1.0000 0.66640  0.51500  0.29410  Biso   1.000  C
  C298     1.0000 0.83360  0.98500  0.29410  Biso   1.000  C
  C299     1.0000 0.98500  0.66640  0.29410  Biso   1.000  C
  C300     1.0000 0.51500  0.83360  0.29410  Biso   1.000  C
  C301     1.0000 0.83360  0.51500  0.20590  Biso   1.000  C
  C302     1.0000 0.66640  0.98500  0.20590  Biso   1.000  C
  C303     1.0000 0.51500  0.66640  0.20590  Biso   1.000  C
  C304     1.0000 0.98500  0.83360  0.20590  Biso   1.000  C
  H193     1.0000 0.33569  0.49358  0.74706  Biso   1.000  H
  H194     1.0000 0.16431  0.00642  0.74706  Biso   1.000  H
  H195     1.0000 0.00642  0.33569  0.74706  Biso   1.000  H
  H196     1.0000 0.49358  0.16431  0.74706  Biso   1.000  H
  H197     1.0000 0.16431  0.49358  0.75294  Biso   1.000  H
  H198     1.0000 0.33569  0.00642  0.75294  Biso   1.000  H
  H199     1.0000 0.49358  0.33569  0.75294  Biso   1.000  H
  H200     1.0000 0.00642  0.16431  0.75294  Biso   1.000  H
  H201     1.0000 0.66431  0.50642  0.25294  Biso   1.000  H
  H202     1.0000 0.83569  0.99358  0.25294  Biso   1.000  H
  H203     1.0000 0.99358  0.66431  0.25294  Biso   1.000  H
  H204     1.0000 0.50642  0.83569  0.25294  Biso   1.000  H
  H205     1.0000 0.83569  0.50642  0.24706  Biso   1.000  H
  H206     1.0000 0.66431  0.99358  0.24706  Biso   1.000  H
  H207     1.0000 0.50642  0.66431  0.24706  Biso   1.000  H
  H208     1.0000 0.99358  0.83569  0.24706  Biso   1.000  H
  C305     1.0000 0.14560  0.46140  0.39260  Biso   1.000  C
  C306     1.0000 0.35440  0.03860  0.39260  Biso   1.000  C
  C307     1.0000 0.03860  0.14560  0.39260  Biso   1.000  C
  C308     1.0000 0.46140  0.35440  0.39260  Biso   1.000  C
  C309     1.0000 0.35440  0.46140  0.10740  Biso   1.000  C
  C310     1.0000 0.14560  0.03860  0.10740  Biso   1.000  C
  C311     1.0000 0.46140  0.14560  0.10740  Biso   1.000  C
  C312     1.0000 0.03860  0.35440  0.10740  Biso   1.000  C
  C313     1.0000 0.85440  0.53860  0.60740  Biso   1.000  C
  C314     1.0000 0.64560  0.96140  0.60740  Biso   1.000  C
  C315     1.0000 0.96140  0.85440  0.60740  Biso   1.000  C
  C316     1.0000 0.53860  0.64560  0.60740  Biso   1.000  C
  C317     1.0000 0.64560  0.53860  0.89260  Biso   1.000  C
  C318     1.0000 0.85440  0.96140  0.89260  Biso   1.000  C
  C319     1.0000 0.53860  0.85440  0.89260  Biso   1.000  C
  C320     1.0000 0.96140  0.64560  0.89260  Biso   1.000  C
  H209     1.0000 0.14828  0.44654  0.42972  Biso   1.000  H
  H210     1.0000 0.35172  0.05346  0.42972  Biso   1.000  H
  H211     1.0000 0.05346  0.14828  0.42972  Biso   1.000  H
  H212     1.0000 0.44654  0.35172  0.42972  Biso   1.000  H
  H213     1.0000 0.35172  0.44654  0.07028  Biso   1.000  H
  H214     1.0000 0.14828  0.05346  0.07028  Biso   1.000  H
  H215     1.0000 0.44654  0.14828  0.07028  Biso   1.000  H
  H216     1.0000 0.05346  0.35172  0.07028  Biso   1.000  H
  H217     1.0000 0.85172  0.55346  0.57028  Biso   1.000  H
  H218     1.0000 0.64828  0.94654  0.57028  Biso   1.000  H
  H219     1.0000 0.94654  0.85172  0.57028  Biso   1.000  H
  H220     1.0000 0.55346  0.64828  0.57028  Biso   1.000  H
  H221     1.0000 0.64828  0.55346  0.92972  Biso   1.000  H
  H222     1.0000 0.85172  0.94654  0.92972  Biso   1.000  H
  H223     1.0000 0.55346  0.85172  0.92972  Biso   1.000  H
  H224     1.0000 0.94654  0.64828  0.92972  Biso   1.000  H
  C321     1.0000 0.29120  0.48270  0.67590  Biso   1.000  C
  C322     1.0000 0.20880  0.01730  0.67590  Biso   1.000  C
  C323     1.0000 0.01730  0.29120  0.67590  Biso   1.000  C
  C324     1.0000 0.48270  0.20880  0.67590  Biso   1.000  C
  C325     1.0000 0.20880  0.48270  0.82410  Biso   1.000  C
  C326     1.0000 0.29120  0.01730  0.82410  Biso   1.000  C
  C327     1.0000 0.48270  0.29120  0.82410  Biso   1.000  C
  C328     1.0000 0.01730  0.20880  0.82410  Biso   1.000  C
  C329     1.0000 0.70880  0.51730  0.32410  Biso   1.000  C
  C330     1.0000 0.79120  0.98270  0.32410  Biso   1.000  C
  C331     1.0000 0.98270  0.70880  0.32410  Biso   1.000  C
  C332     1.0000 0.51730  0.79120  0.32410  Biso   1.000  C
  C333     1.0000 0.79120  0.51730  0.17590  Biso   1.000  C
  C334     1.0000 0.70880  0.98270  0.17590  Biso   1.000  C
  C335     1.0000 0.51730  0.70880  0.17590  Biso   1.000  C
  C336     1.0000 0.98270  0.79120  0.17590  Biso   1.000  C
  H225     1.0000 0.26658  0.49073  0.69679  Biso   1.000  H
  H226     1.0000 0.23342  0.00927  0.69679  Biso   1.000  H
  H227     1.0000 0.00927  0.26658  0.69679  Biso   1.000  H
  H228     1.0000 0.49073  0.23342  0.69679  Biso   1.000  H
  H229     1.0000 0.23342  0.49073  0.80321  Biso   1.000  H
  H230     1.0000 0.26658  0.00927  0.80321  Biso   1.000  H
  H231     1.0000 0.49073  0.26658  0.80321  Biso   1.000  H
  H232     1.0000 0.00927  0.23342  0.80321  Biso   1.000  H
  H233     1.0000 0.73342  0.50927  0.30321  Biso   1.000  H
  H234     1.0000 0.76658  0.99073  0.30321  Biso   1.000  H
  H235     1.0000 0.99073  0.73342  0.30321  Biso   1.000  H
  H236     1.0000 0.50927  0.76658  0.30321  Biso   1.000  H
  H237     1.0000 0.76658  0.50927  0.19679  Biso   1.000  H
  H238     1.0000 0.73342  0.99073  0.19679  Biso   1.000  H
  H239     1.0000 0.50927  0.73342  0.19679  Biso   1.000  H
  H240     1.0000 0.99073  0.76658  0.19679  Biso   1.000  H
