data_image0
_cell_length_a       19.6993
_cell_length_b       19.6993
_cell_length_c       29.2983
_cell_angle_alpha    90
_cell_angle_beta     90
_cell_angle_gamma    120

_symmetry_space_group_name_H-M    "P 1"
_symmetry_int_tables_number       1

loop_
  _symmetry_equiv_pos_as_xyz
  'x, y, z'

loop_
  _atom_site_label
  _atom_site_occupancy
  _atom_site_fract_x
  _atom_site_fract_y
  _atom_site_fract_z
  _atom_site_thermal_displace_type
  _atom_site_B_iso_or_equiv
  _atom_site_type_symbol
  Cu1      1.0000 0.36310  0.67135  0.66933  Biso   1.000  Cu
  Cu2      1.0000 0.32865  0.69175  0.33600  Biso   1.000  Cu
  Cu3      1.0000 0.30825  0.63690  0.00266  Biso   1.000  Cu
  Cu4      1.0000 0.67135  0.36310  0.33067  Biso   1.000  Cu
  Cu5      1.0000 0.69175  0.32865  0.66400  Biso   1.000  Cu
  Cu6      1.0000 0.63690  0.30825  0.99734  Biso   1.000  Cu
  O1       1.0000 0.30970  0.70320  0.62330  Biso   1.000  O
  O2       1.0000 0.29680  0.60650  0.28997  Biso   1.000  O
  O3       1.0000 0.39350  0.69030  0.95663  Biso   1.000  O
  O4       1.0000 0.70320  0.30970  0.37670  Biso   1.000  O
  O5       1.0000 0.60650  0.29680  0.71003  Biso   1.000  O
  O6       1.0000 0.69030  0.39350  0.04337  Biso   1.000  O
  O7       1.0000 0.25750  0.66570  0.55270  Biso   1.000  O
  O8       1.0000 0.33430  0.59180  0.21937  Biso   1.000  O
  O9       1.0000 0.40820  0.74250  0.88603  Biso   1.000  O
  O10      1.0000 0.66570  0.25750  0.44730  Biso   1.000  O
  O11      1.0000 0.59180  0.33430  0.78063  Biso   1.000  O
  O12      1.0000 0.74250  0.40820  0.11397  Biso   1.000  O
  O13      1.0000 0.29050  0.54430  0.55530  Biso   1.000  O
  O14      1.0000 0.45570  0.74620  0.22197  Biso   1.000  O
  O15      1.0000 0.25380  0.70950  0.88863  Biso   1.000  O
  O16      1.0000 0.54430  0.29050  0.44470  Biso   1.000  O
  O17      1.0000 0.74620  0.45570  0.77803  Biso   1.000  O
  O18      1.0000 0.70950  0.25380  0.11137  Biso   1.000  O
  N1       1.0000 0.34060  0.58980  0.62640  Biso   1.000  N
  N2       1.0000 0.41020  0.75080  0.29307  Biso   1.000  N
  N3       1.0000 0.24920  0.65940  0.95973  Biso   1.000  N
  N4       1.0000 0.58980  0.34060  0.37360  Biso   1.000  N
  N5       1.0000 0.75080  0.41020  0.70693  Biso   1.000  N
  N6       1.0000 0.65940  0.24920  0.04027  Biso   1.000  N
  C1       1.0000 0.30780  0.59170  0.59000  Biso   1.000  C
  C2       1.0000 0.40830  0.71610  0.25667  Biso   1.000  C
  C3       1.0000 0.28390  0.69220  0.92333  Biso   1.000  C
  C4       1.0000 0.59170  0.30780  0.41000  Biso   1.000  C
  C5       1.0000 0.71610  0.40830  0.74333  Biso   1.000  C
  C6       1.0000 0.69220  0.28390  0.07667  Biso   1.000  C
  C7       1.0000 0.28500  0.65670  0.58700  Biso   1.000  C
  C8       1.0000 0.34330  0.62830  0.25367  Biso   1.000  C
  C9       1.0000 0.37170  0.71500  0.92033  Biso   1.000  C
  C10      1.0000 0.65670  0.28500  0.41300  Biso   1.000  C
  C11      1.0000 0.62830  0.34330  0.74633  Biso   1.000  C
  C12      1.0000 0.71500  0.37170  0.07967  Biso   1.000  C
  C13      1.0000 0.42140  0.56800  0.67830  Biso   1.000  C
  C14      1.0000 0.43200  0.85340  0.34497  Biso   1.000  C
  C15      1.0000 0.14660  0.57860  0.01163  Biso   1.000  C
  C16      1.0000 0.56800  0.42140  0.32170  Biso   1.000  C
  C17      1.0000 0.85340  0.43200  0.65503  Biso   1.000  C
  C18      1.0000 0.57860  0.14660  0.98837  Biso   1.000  C
  C19      1.0000 0.37310  0.53780  0.63590  Biso   1.000  C
  C20      1.0000 0.46220  0.83530  0.30257  Biso   1.000  C
  C21      1.0000 0.16470  0.62690  0.96923  Biso   1.000  C
  C22      1.0000 0.53780  0.37310  0.36410  Biso   1.000  C
  C23      1.0000 0.83530  0.46220  0.69743  Biso   1.000  C
  C24      1.0000 0.62690  0.16470  0.03077  Biso   1.000  C
  H1       1.0000 0.40690  0.53980  0.60990  Biso   1.000  H
  H2       1.0000 0.46020  0.86710  0.27657  Biso   1.000  H
  H3       1.0000 0.13290  0.59310  0.94323  Biso   1.000  H
  H4       1.0000 0.53980  0.40690  0.39010  Biso   1.000  H
  H5       1.0000 0.86710  0.46020  0.72343  Biso   1.000  H
  H6       1.0000 0.59310  0.13290  0.05677  Biso   1.000  H
  O19      1.0000 0.42710  0.62960  0.69820  Biso   1.000  O
  O20      1.0000 0.37040  0.79750  0.36487  Biso   1.000  O
  O21      1.0000 0.20250  0.57290  0.03153  Biso   1.000  O
  O22      1.0000 0.62960  0.42710  0.30180  Biso   1.000  O
  O23      1.0000 0.79750  0.37040  0.63513  Biso   1.000  O
  O24      1.0000 0.57290  0.20250  0.96847  Biso   1.000  O
  O25      1.0000 0.45410  0.53180  0.69440  Biso   1.000  O
  O26      1.0000 0.46820  0.92230  0.36107  Biso   1.000  O
  O27      1.0000 0.07770  0.54590  0.02773  Biso   1.000  O
  O28      1.0000 0.53180  0.45410  0.30560  Biso   1.000  O
  O29      1.0000 0.92230  0.46820  0.63893  Biso   1.000  O
  O30      1.0000 0.54590  0.07770  0.97227  Biso   1.000  O
  Cu7      1.0000 0.24382  0.56530  0.50181  Biso   1.000  Cu
  Cu8      1.0000 0.43470  0.67852  0.16848  Biso   1.000  Cu
  Cu9      1.0000 0.32148  0.75618  0.83514  Biso   1.000  Cu
  Cu10     1.0000 0.56530  0.24382  0.49819  Biso   1.000  Cu
  Cu11     1.0000 0.67852  0.43470  0.83152  Biso   1.000  Cu
  Cu12     1.0000 0.75618  0.32148  0.16486  Biso   1.000  Cu
  O31      1.0000 0.34470  0.61590  0.46660  Biso   1.000  O
  O32      1.0000 0.38410  0.72880  0.13327  Biso   1.000  O
  O33      1.0000 0.27120  0.65530  0.79993  Biso   1.000  O
  O34      1.0000 0.61590  0.34470  0.53340  Biso   1.000  O
  O35      1.0000 0.72880  0.38410  0.86673  Biso   1.000  O
  O36      1.0000 0.65530  0.27120  0.20007  Biso   1.000  O
  O37      1.0000 0.23820  0.63510  0.37450  Biso   1.000  O
  O38      1.0000 0.36490  0.60310  0.04117  Biso   1.000  O
  O39      1.0000 0.39690  0.76180  0.70783  Biso   1.000  O
  O40      1.0000 0.63510  0.23820  0.62550  Biso   1.000  O
  O41      1.0000 0.60310  0.36490  0.95883  Biso   1.000  O
  O42      1.0000 0.76180  0.39690  0.29217  Biso   1.000  O
  O43      1.0000 0.38510  0.65920  0.39560  Biso   1.000  O
  O44      1.0000 0.34080  0.72590  0.06227  Biso   1.000  O
  O45      1.0000 0.27410  0.61490  0.72893  Biso   1.000  O
  O46      1.0000 0.65920  0.38510  0.60440  Biso   1.000  O
  O47      1.0000 0.72590  0.34080  0.93773  Biso   1.000  O
  O48      1.0000 0.61490  0.27410  0.27107  Biso   1.000  O
  N7       1.0000 0.20240  0.58580  0.44800  Biso   1.000  N
  N8       1.0000 0.41420  0.61660  0.11467  Biso   1.000  N
  N9       1.0000 0.38340  0.79760  0.78133  Biso   1.000  N
  N10      1.0000 0.58580  0.20240  0.55200  Biso   1.000  N
  N11      1.0000 0.61660  0.41420  0.88533  Biso   1.000  N
  N12      1.0000 0.79760  0.38340  0.21867  Biso   1.000  N
  O49      1.0000 0.13300  0.51160  0.52020  Biso   1.000  O
  O50      1.0000 0.48840  0.62140  0.18687  Biso   1.000  O
  O51      1.0000 0.37860  0.86700  0.85353  Biso   1.000  O
  O52      1.0000 0.51160  0.13300  0.47980  Biso   1.000  O
  O53      1.0000 0.62140  0.48840  0.81313  Biso   1.000  O
  O54      1.0000 0.86700  0.37860  0.14647  Biso   1.000  O
  O55      1.0000 0.01670  0.50810  0.50540  Biso   1.000  O
  O56      1.0000 0.49190  0.50860  0.17207  Biso   1.000  O
  O57      1.0000 0.49140  0.98330  0.83873  Biso   1.000  O
  O58      1.0000 0.50810  0.01670  0.49460  Biso   1.000  O
  O59      1.0000 0.50860  0.49190  0.82793  Biso   1.000  O
  O60      1.0000 0.98330  0.49140  0.16127  Biso   1.000  O
  C25      1.0000 0.31090  0.45410  0.64480  Biso   1.000  C
  C26      1.0000 0.54590  0.85680  0.31147  Biso   1.000  C
  C27      1.0000 0.14320  0.68910  0.97813  Biso   1.000  C
  C28      1.0000 0.45410  0.31090  0.35520  Biso   1.000  C
  C29      1.0000 0.85680  0.54590  0.68853  Biso   1.000  C
  C30      1.0000 0.68910  0.14320  0.02187  Biso   1.000  C
  C31      1.0000 0.30800  0.39500  0.62290  Biso   1.000  C
  C32      1.0000 0.60500  0.91300  0.28957  Biso   1.000  C
  C33      1.0000 0.08700  0.69200  0.95623  Biso   1.000  C
  C34      1.0000 0.39500  0.30800  0.37710  Biso   1.000  C
  C35      1.0000 0.91300  0.60500  0.71043  Biso   1.000  C
  C36      1.0000 0.69200  0.08700  0.04377  Biso   1.000  C
  H7       1.0000 0.34380  0.40390  0.59850  Biso   1.000  H
  H8       1.0000 0.59610  0.93990  0.26517  Biso   1.000  H
  H9       1.0000 0.06010  0.65620  0.93183  Biso   1.000  H
  H10      1.0000 0.40390  0.34380  0.40150  Biso   1.000  H
  H11      1.0000 0.93990  0.59610  0.73483  Biso   1.000  H
  H12      1.0000 0.65620  0.06010  0.06817  Biso   1.000  H
  C37      1.0000 0.25500  0.32000  0.63510  Biso   1.000  C
  C38      1.0000 0.68000  0.93500  0.30177  Biso   1.000  C
  C39      1.0000 0.06500  0.74500  0.96843  Biso   1.000  C
  C40      1.0000 0.32000  0.25500  0.36490  Biso   1.000  C
  C41      1.0000 0.93500  0.68000  0.69823  Biso   1.000  C
  C42      1.0000 0.74500  0.06500  0.03157  Biso   1.000  C
  H13      1.0000 0.25870  0.27870  0.62000  Biso   1.000  H
  H14      1.0000 0.72130  0.98000  0.28667  Biso   1.000  H
  H15      1.0000 0.02000  0.74130  0.95333  Biso   1.000  H
  H16      1.0000 0.27870  0.25870  0.38000  Biso   1.000  H
  H17      1.0000 0.98000  0.72130  0.71333  Biso   1.000  H
  H18      1.0000 0.74130  0.02000  0.04667  Biso   1.000  H
  C43      1.0000 0.19700  0.29740  0.66730  Biso   1.000  C
  C44      1.0000 0.70260  0.89960  0.33397  Biso   1.000  C
  C45      1.0000 0.10040  0.80300  0.00063  Biso   1.000  C
  C46      1.0000 0.29740  0.19700  0.33270  Biso   1.000  C
  C47      1.0000 0.89960  0.70260  0.66603  Biso   1.000  C
  C48      1.0000 0.80300  0.10040  0.99937  Biso   1.000  C
  H19      1.0000 0.16010  0.24410  0.67350  Biso   1.000  H
  H20      1.0000 0.75590  0.91600  0.34017  Biso   1.000  H
  H21      1.0000 0.08400  0.83990  0.00683  Biso   1.000  H
  H22      1.0000 0.24410  0.16010  0.32650  Biso   1.000  H
  H23      1.0000 0.91600  0.75590  0.65983  Biso   1.000  H
  H24      1.0000 0.83990  0.08400  0.99317  Biso   1.000  H
  C49      1.0000 0.19650  0.35570  0.68850  Biso   1.000  C
  C50      1.0000 0.64430  0.84080  0.35517  Biso   1.000  C
  C51      1.0000 0.15920  0.80350  0.02183  Biso   1.000  C
  C52      1.0000 0.35570  0.19650  0.31150  Biso   1.000  C
  C53      1.0000 0.84080  0.64430  0.64483  Biso   1.000  C
  C54      1.0000 0.80350  0.15920  0.97817  Biso   1.000  C
  H25      1.0000 0.15790  0.34460  0.71120  Biso   1.000  H
  H26      1.0000 0.65540  0.81330  0.37787  Biso   1.000  H
  H27      1.0000 0.18670  0.84210  0.04453  Biso   1.000  H
  H28      1.0000 0.34460  0.15790  0.28880  Biso   1.000  H
  H29      1.0000 0.81330  0.65540  0.62213  Biso   1.000  H
  H30      1.0000 0.84210  0.18670  0.95547  Biso   1.000  H
  C55      1.0000 0.25280  0.43580  0.67860  Biso   1.000  C
  C56      1.0000 0.56420  0.81700  0.34527  Biso   1.000  C
  C57      1.0000 0.18300  0.74720  0.01193  Biso   1.000  C
  C58      1.0000 0.43580  0.25280  0.32140  Biso   1.000  C
  C59      1.0000 0.81700  0.56420  0.65473  Biso   1.000  C
  C60      1.0000 0.74720  0.18300  0.98807  Biso   1.000  C
  H31      1.0000 0.25110  0.47680  0.69470  Biso   1.000  H
  H32      1.0000 0.52320  0.77430  0.36137  Biso   1.000  H
  H33      1.0000 0.22570  0.74890  0.02803  Biso   1.000  H
  H34      1.0000 0.47680  0.25110  0.30530  Biso   1.000  H
  H35      1.0000 0.77430  0.52320  0.63863  Biso   1.000  H
  H36      1.0000 0.74890  0.22570  0.97197  Biso   1.000  H
  C61      1.0000 0.33570  0.63370  0.42530  Biso   1.000  C
  C62      1.0000 0.36630  0.70200  0.09197  Biso   1.000  C
  C63      1.0000 0.29800  0.66430  0.75863  Biso   1.000  C
  C64      1.0000 0.63370  0.33570  0.57470  Biso   1.000  C
  C65      1.0000 0.70200  0.36630  0.90803  Biso   1.000  C
  C66      1.0000 0.66430  0.29800  0.24137  Biso   1.000  C
  C67      1.0000 0.25100  0.61710  0.41360  Biso   1.000  C
  C68      1.0000 0.38290  0.63390  0.08027  Biso   1.000  C
  C69      1.0000 0.36610  0.74900  0.74693  Biso   1.000  C
  C70      1.0000 0.61710  0.25100  0.58640  Biso   1.000  C
  C71      1.0000 0.63390  0.38290  0.91973  Biso   1.000  C
  C72      1.0000 0.74900  0.36610  0.25307  Biso   1.000  C
  C73      1.0000 0.12010  0.56200  0.44790  Biso   1.000  C
  C74      1.0000 0.43800  0.55810  0.11457  Biso   1.000  C
  C75      1.0000 0.44190  0.87990  0.78123  Biso   1.000  C
  C76      1.0000 0.56200  0.12010  0.55210  Biso   1.000  C
  C77      1.0000 0.55810  0.43800  0.88543  Biso   1.000  C
  C78      1.0000 0.87990  0.44190  0.21877  Biso   1.000  C
  H37      1.0000 0.09320  0.52130  0.42380  Biso   1.000  H
  H38      1.0000 0.47870  0.57190  0.09047  Biso   1.000  H
  H39      1.0000 0.42810  0.90680  0.75713  Biso   1.000  H
  H40      1.0000 0.52130  0.09320  0.57620  Biso   1.000  H
  H41      1.0000 0.57190  0.47870  0.90953  Biso   1.000  H
  H42      1.0000 0.90680  0.42810  0.24287  Biso   1.000  H
  C79      1.0000 0.08600  0.52310  0.49650  Biso   1.000  C
  C80      1.0000 0.47690  0.56290  0.16317  Biso   1.000  C
  C81      1.0000 0.43710  0.91400  0.82983  Biso   1.000  C
  C82      1.0000 0.52310  0.08600  0.50350  Biso   1.000  C
  C83      1.0000 0.56290  0.47690  0.83683  Biso   1.000  C
  C84      1.0000 0.91400  0.43710  0.17017  Biso   1.000  C
  C85      1.0000 0.10320  0.62880  0.43940  Biso   1.000  C
  C86      1.0000 0.37120  0.47440  0.10607  Biso   1.000  C
  C87      1.0000 0.52560  0.89680  0.77273  Biso   1.000  C
  C88      1.0000 0.62880  0.10320  0.56060  Biso   1.000  C
  C89      1.0000 0.47440  0.37120  0.89393  Biso   1.000  C
  C90      1.0000 0.89680  0.52560  0.22727  Biso   1.000  C
  C91      1.0000 0.13930  0.69610  0.46460  Biso   1.000  C
  C92      1.0000 0.30390  0.44320  0.13127  Biso   1.000  C
  C93      1.0000 0.55680  0.86070  0.79793  Biso   1.000  C
  C94      1.0000 0.69610  0.13930  0.53540  Biso   1.000  C
  C95      1.0000 0.44320  0.30390  0.86873  Biso   1.000  C
  C96      1.0000 0.86070  0.55680  0.20207  Biso   1.000  C
  H43      1.0000 0.18030  0.70450  0.48490  Biso   1.000  H
  H44      1.0000 0.29550  0.47580  0.15157  Biso   1.000  H
  H45      1.0000 0.52420  0.81970  0.81823  Biso   1.000  H
  H46      1.0000 0.70450  0.18030  0.51510  Biso   1.000  H
  H47      1.0000 0.47580  0.29550  0.84843  Biso   1.000  H
  H48      1.0000 0.81970  0.52420  0.18177  Biso   1.000  H
  C97      1.0000 0.11670  0.75270  0.46080  Biso   1.000  C
  C98      1.0000 0.24730  0.36400  0.12747  Biso   1.000  C
  C99      1.0000 0.63600  0.88330  0.79413  Biso   1.000  C
  C100     1.0000 0.75270  0.11670  0.53920  Biso   1.000  C
  C101     1.0000 0.36400  0.24730  0.87253  Biso   1.000  C
  C102     1.0000 0.88330  0.63600  0.20587  Biso   1.000  C
  H49      1.0000 0.14000  0.79690  0.48050  Biso   1.000  H
  H50      1.0000 0.20310  0.34310  0.14717  Biso   1.000  H
  H51      1.0000 0.65690  0.86000  0.81383  Biso   1.000  H
  H52      1.0000 0.79690  0.14000  0.51950  Biso   1.000  H
  H53      1.0000 0.34310  0.20310  0.85283  Biso   1.000  H
  H54      1.0000 0.86000  0.65690  0.18617  Biso   1.000  H
  C103     1.0000 0.06000  0.74700  0.42880  Biso   1.000  C
  C104     1.0000 0.25300  0.31300  0.09547  Biso   1.000  C
  C105     1.0000 0.68700  0.94000  0.76213  Biso   1.000  C
  C106     1.0000 0.74700  0.06000  0.57120  Biso   1.000  C
  C107     1.0000 0.31300  0.25300  0.90453  Biso   1.000  C
  C108     1.0000 0.94000  0.68700  0.23787  Biso   1.000  C
  H55      1.0000 0.04560  0.78560  0.42570  Biso   1.000  H
  H56      1.0000 0.21440  0.26000  0.09237  Biso   1.000  H
  H57      1.0000 0.74000  0.95440  0.75903  Biso   1.000  H
  H58      1.0000 0.78560  0.04560  0.57430  Biso   1.000  H
  H59      1.0000 0.26000  0.21440  0.90763  Biso   1.000  H
  H60      1.0000 0.95440  0.74000  0.24097  Biso   1.000  H
  C109     1.0000 0.02700  0.67600  0.40120  Biso   1.000  C
  C110     1.0000 0.32400  0.35100  0.06787  Biso   1.000  C
  C111     1.0000 0.64900  0.97300  0.73453  Biso   1.000  C
  C112     1.0000 0.67600  0.02700  0.59880  Biso   1.000  C
  C113     1.0000 0.35100  0.32400  0.93213  Biso   1.000  C
  C114     1.0000 0.97300  0.64900  0.26547  Biso   1.000  C
  H61      1.0000 0.99110  0.66990  0.37760  Biso   1.000  H
  H62      1.0000 0.33010  0.32120  0.04427  Biso   1.000  H
  H63      1.0000 0.67880  0.00890  0.71093  Biso   1.000  H
  H64      1.0000 0.66990  0.99110  0.62240  Biso   1.000  H
  H65      1.0000 0.32120  0.33010  0.95573  Biso   1.000  H
  H66      1.0000 0.00890  0.67880  0.28907  Biso   1.000  H
  C115     1.0000 0.04580  0.61900  0.40800  Biso   1.000  C
  C116     1.0000 0.38100  0.42680  0.07467  Biso   1.000  C
  C117     1.0000 0.57320  0.95420  0.74133  Biso   1.000  C
  C118     1.0000 0.61900  0.04580  0.59200  Biso   1.000  C
  C119     1.0000 0.42680  0.38100  0.92533  Biso   1.000  C
  C120     1.0000 0.95420  0.57320  0.25867  Biso   1.000  C
  H67      1.0000 0.01920  0.57190  0.39100  Biso   1.000  H
  H68      1.0000 0.42810  0.44730  0.05767  Biso   1.000  H
  H69      1.0000 0.55270  0.98080  0.72433  Biso   1.000  H
  H70      1.0000 0.57190  0.01920  0.60900  Biso   1.000  H
  H71      1.0000 0.44730  0.42810  0.94233  Biso   1.000  H
  H72      1.0000 0.98080  0.55270  0.27567  Biso   1.000  H
  Ni1      1.0000 0.48805  0.51648  0.76037  Biso   1.000  Ni
  Ni2      1.0000 0.48352  0.97157  0.42704  Biso   1.000  Ni
  Ni3      1.0000 0.02843  0.51195  0.09370  Biso   1.000  Ni
  Ni4      1.0000 0.51648  0.48805  0.23963  Biso   1.000  Ni
  Ni5      1.0000 0.97157  0.48352  0.57296  Biso   1.000  Ni
  Ni6      1.0000 0.51195  0.02843  0.90630  Biso   1.000  Ni
  N13      1.0000 0.59660  0.59790  0.74880  Biso   1.000  N
  N14      1.0000 0.40210  0.99870  0.41547  Biso   1.000  N
  N15      1.0000 0.00130  0.40340  0.08213  Biso   1.000  N
  N16      1.0000 0.59790  0.59660  0.25120  Biso   1.000  N
  N17      1.0000 0.99870  0.40210  0.58453  Biso   1.000  N
  N18      1.0000 0.40340  0.00130  0.91787  Biso   1.000  N
  H73      1.0000 0.62860  0.58690  0.77090  Biso   1.000  H
  H74      1.0000 0.41310  0.04170  0.43757  Biso   1.000  H
  H75      1.0000 0.95830  0.37140  0.10423  Biso   1.000  H
  H76      1.0000 0.58690  0.62860  0.22910  Biso   1.000  H
  H77      1.0000 0.04170  0.41310  0.56243  Biso   1.000  H
  H78      1.0000 0.37140  0.95830  0.89577  Biso   1.000  H
  N19      1.0000 0.51040  0.43950  0.72990  Biso   1.000  N
  N20      1.0000 0.56050  0.07090  0.39657  Biso   1.000  N
  N21      1.0000 0.92910  0.48960  0.06323  Biso   1.000  N
  N22      1.0000 0.43950  0.51040  0.27010  Biso   1.000  N
  N23      1.0000 0.07090  0.56050  0.60343  Biso   1.000  N
  N24      1.0000 0.48960  0.92910  0.93677  Biso   1.000  N
  H79      1.0000 0.53810  0.42470  0.75300  Biso   1.000  H
  H80      1.0000 0.57530  0.11340  0.41967  Biso   1.000  H
  H81      1.0000 0.88660  0.46190  0.08633  Biso   1.000  H
  H82      1.0000 0.42470  0.53810  0.24700  Biso   1.000  H
  H83      1.0000 0.11340  0.57530  0.58033  Biso   1.000  H
  H84      1.0000 0.46190  0.88660  0.91367  Biso   1.000  H
  C121     1.0000 0.63100  0.53100  0.69870  Biso   1.000  C
  C122     1.0000 0.46900  0.10000  0.36537  Biso   1.000  C
  C123     1.0000 0.90000  0.36900  0.03203  Biso   1.000  C
  C124     1.0000 0.53100  0.63100  0.30130  Biso   1.000  C
  C125     1.0000 0.10000  0.46900  0.63463  Biso   1.000  C
  C126     1.0000 0.36900  0.90000  0.96797  Biso   1.000  C
  H85      1.0000 0.66410  0.54020  0.67140  Biso   1.000  H
  H86      1.0000 0.45980  0.12390  0.33807  Biso   1.000  H
  H87      1.0000 0.87610  0.33590  0.00473  Biso   1.000  H
  H88      1.0000 0.54020  0.66410  0.32860  Biso   1.000  H
  H89      1.0000 0.12390  0.45980  0.66193  Biso   1.000  H
  H90      1.0000 0.33590  0.87610  0.99527  Biso   1.000  H
  H91      1.0000 0.65710  0.52080  0.72450  Biso   1.000  H
  H92      1.0000 0.47920  0.13630  0.39117  Biso   1.000  H
  H93      1.0000 0.86370  0.34290  0.05783  Biso   1.000  H
  H94      1.0000 0.52080  0.65710  0.27550  Biso   1.000  H
  H95      1.0000 0.13630  0.47920  0.60883  Biso   1.000  H
  H96      1.0000 0.34290  0.86370  0.94217  Biso   1.000  H
  N25      1.0000 0.46420  0.59830  0.79050  Biso   1.000  N
  N26      1.0000 0.40170  0.86590  0.45717  Biso   1.000  N
  N27      1.0000 0.13410  0.53580  0.12383  Biso   1.000  N
  N28      1.0000 0.59830  0.46420  0.20950  Biso   1.000  N
  N29      1.0000 0.86590  0.40170  0.54283  Biso   1.000  N
  N30      1.0000 0.53580  0.13410  0.87617  Biso   1.000  N
  H97      1.0000 0.44470  0.61890  0.76570  Biso   1.000  H
  H98      1.0000 0.38110  0.82580  0.43237  Biso   1.000  H
  H99      1.0000 0.17420  0.55530  0.09903  Biso   1.000  H
  H100     1.0000 0.61890  0.44470  0.23430  Biso   1.000  H
  H101     1.0000 0.82580  0.38110  0.56763  Biso   1.000  H
  H102     1.0000 0.55530  0.17420  0.90097  Biso   1.000  H
  C127     1.0000 0.55300  0.45600  0.69030  Biso   1.000  C
  C128     1.0000 0.54400  0.09700  0.35697  Biso   1.000  C
  C129     1.0000 0.90300  0.44700  0.02363  Biso   1.000  C
  C130     1.0000 0.45600  0.55300  0.30970  Biso   1.000  C
  C131     1.0000 0.09700  0.54400  0.64303  Biso   1.000  C
  C132     1.0000 0.44700  0.90300  0.97637  Biso   1.000  C
  H103     1.0000 0.52480  0.46270  0.66460  Biso   1.000  H
  H104     1.0000 0.53730  0.06210  0.33127  Biso   1.000  H
  H105     1.0000 0.93790  0.47520  0.99793  Biso   1.000  H
  H106     1.0000 0.46270  0.52480  0.33540  Biso   1.000  H
  H107     1.0000 0.06210  0.53730  0.66873  Biso   1.000  H
  H108     1.0000 0.47520  0.93790  0.00207  Biso   1.000  H
  H109     1.0000 0.56280  0.41210  0.68280  Biso   1.000  H
  H110     1.0000 0.58790  0.15070  0.34947  Biso   1.000  H
  H111     1.0000 0.84930  0.43720  0.01613  Biso   1.000  H
  H112     1.0000 0.41210  0.56280  0.31720  Biso   1.000  H
  H113     1.0000 0.15070  0.58790  0.65053  Biso   1.000  H
  H114     1.0000 0.43720  0.84930  0.98387  Biso   1.000  H
  C133     1.0000 0.53600  0.65850  0.80310  Biso   1.000  C
  C134     1.0000 0.34150  0.87750  0.46977  Biso   1.000  C
  C135     1.0000 0.12250  0.46400  0.13643  Biso   1.000  C
  C136     1.0000 0.65850  0.53600  0.19690  Biso   1.000  C
  C137     1.0000 0.87750  0.34150  0.53023  Biso   1.000  C
  C138     1.0000 0.46400  0.12250  0.86357  Biso   1.000  C
  H115     1.0000 0.55100  0.64880  0.83380  Biso   1.000  H
  H116     1.0000 0.35120  0.90220  0.50047  Biso   1.000  H
  H117     1.0000 0.09780  0.44900  0.16713  Biso   1.000  H
  H118     1.0000 0.64880  0.55100  0.16620  Biso   1.000  H
  H119     1.0000 0.90220  0.35120  0.49953  Biso   1.000  H
  H120     1.0000 0.44900  0.09780  0.83287  Biso   1.000  H
  H121     1.0000 0.53630  0.70870  0.80380  Biso   1.000  H
  H122     1.0000 0.29130  0.82760  0.47047  Biso   1.000  H
  H123     1.0000 0.17240  0.46370  0.13713  Biso   1.000  H
  H124     1.0000 0.70870  0.53630  0.19620  Biso   1.000  H
  H125     1.0000 0.82760  0.29130  0.52953  Biso   1.000  H
  H126     1.0000 0.46370  0.17240  0.86287  Biso   1.000  H
  C139     1.0000 0.63200  0.60800  0.70930  Biso   1.000  C
  C140     1.0000 0.39200  0.02400  0.37597  Biso   1.000  C
  C141     1.0000 0.97600  0.36800  0.04263  Biso   1.000  C
  C142     1.0000 0.60800  0.63200  0.29070  Biso   1.000  C
  C143     1.0000 0.02400  0.39200  0.62403  Biso   1.000  C
  C144     1.0000 0.36800  0.97600  0.95737  Biso   1.000  C
  H127     1.0000 0.68690  0.65230  0.71110  Biso   1.000  H
  H128     1.0000 0.34770  0.03460  0.37777  Biso   1.000  H
  H129     1.0000 0.96540  0.31310  0.04443  Biso   1.000  H
  H130     1.0000 0.65230  0.68690  0.28890  Biso   1.000  H
  H131     1.0000 0.03460  0.34770  0.62223  Biso   1.000  H
  H132     1.0000 0.31310  0.96540  0.95557  Biso   1.000  H
  H133     1.0000 0.60450  0.62010  0.68510  Biso   1.000  H
  H134     1.0000 0.37990  0.98440  0.35177  Biso   1.000  H
  H135     1.0000 0.01560  0.39550  0.01843  Biso   1.000  H
  H136     1.0000 0.62010  0.60450  0.31490  Biso   1.000  H
  H137     1.0000 0.98440  0.37990  0.64823  Biso   1.000  H
  H138     1.0000 0.39550  0.01560  0.98157  Biso   1.000  H
  C145     1.0000 0.40900  0.57400  0.82670  Biso   1.000  C
  C146     1.0000 0.42600  0.83500  0.49337  Biso   1.000  C
  C147     1.0000 0.16500  0.59100  0.16003  Biso   1.000  C
  C148     1.0000 0.57400  0.40900  0.17330  Biso   1.000  C
  C149     1.0000 0.83500  0.42600  0.50663  Biso   1.000  C
  C150     1.0000 0.59100  0.16500  0.83997  Biso   1.000  C
  H139     1.0000 0.39810  0.61720  0.83400  Biso   1.000  H
  H140     1.0000 0.38280  0.78090  0.50067  Biso   1.000  H
  H141     1.0000 0.21910  0.60190  0.16733  Biso   1.000  H
  H142     1.0000 0.61720  0.39810  0.16600  Biso   1.000  H
  H143     1.0000 0.78090  0.38280  0.49933  Biso   1.000  H
  H144     1.0000 0.60190  0.21910  0.83267  Biso   1.000  H
  H145     1.0000 0.43070  0.56350  0.85430  Biso   1.000  H
  H146     1.0000 0.43650  0.86720  0.52097  Biso   1.000  H
  H147     1.0000 0.13280  0.56930  0.18763  Biso   1.000  H
  H148     1.0000 0.56350  0.43070  0.14570  Biso   1.000  H
  H149     1.0000 0.86720  0.43650  0.47903  Biso   1.000  H
  H150     1.0000 0.56930  0.13280  0.81237  Biso   1.000  H
  C151     1.0000 0.32300  0.42000  0.80040  Biso   1.000  C
  C152     1.0000 0.58000  0.90300  0.46707  Biso   1.000  C
  C153     1.0000 0.09700  0.67700  0.13373  Biso   1.000  C
  C154     1.0000 0.42000  0.32300  0.19960  Biso   1.000  C
  C155     1.0000 0.90300  0.58000  0.53293  Biso   1.000  C
  C156     1.0000 0.67700  0.09700  0.86627  Biso   1.000  C
  H151     1.0000 0.33410  0.39820  0.82770  Biso   1.000  H
  H152     1.0000 0.60180  0.93590  0.49437  Biso   1.000  H
  H153     1.0000 0.06410  0.66590  0.16103  Biso   1.000  H
  H154     1.0000 0.39820  0.33410  0.17230  Biso   1.000  H
  H155     1.0000 0.93590  0.60180  0.50563  Biso   1.000  H
  H156     1.0000 0.66590  0.06410  0.83897  Biso   1.000  H
  H157     1.0000 0.26760  0.38430  0.79150  Biso   1.000  H
  H158     1.0000 0.61570  0.88330  0.45817  Biso   1.000  H
  H159     1.0000 0.11670  0.73240  0.12483  Biso   1.000  H
  H160     1.0000 0.38430  0.26760  0.20850  Biso   1.000  H
  H161     1.0000 0.88330  0.61570  0.54183  Biso   1.000  H
  H162     1.0000 0.73240  0.11670  0.87517  Biso   1.000  H
  C157     1.0000 0.33100  0.50000  0.81300  Biso   1.000  C
  C158     1.0000 0.50000  0.83100  0.47967  Biso   1.000  C
  C159     1.0000 0.16900  0.66900  0.14633  Biso   1.000  C
  C160     1.0000 0.50000  0.33100  0.18700  Biso   1.000  C
  C161     1.0000 0.83100  0.50000  0.52033  Biso   1.000  C
  C162     1.0000 0.66900  0.16900  0.85367  Biso   1.000  C
  H163     1.0000 0.29490  0.48960  0.83890  Biso   1.000  H
  H164     1.0000 0.51040  0.80530  0.50557  Biso   1.000  H
  H165     1.0000 0.19470  0.70510  0.17223  Biso   1.000  H
  H166     1.0000 0.48960  0.29490  0.16110  Biso   1.000  H
  H167     1.0000 0.80530  0.51040  0.49443  Biso   1.000  H
  H168     1.0000 0.70510  0.19470  0.82777  Biso   1.000  H
  H169     1.0000 0.31030  0.51550  0.78710  Biso   1.000  H
  H170     1.0000 0.48450  0.79480  0.45377  Biso   1.000  H
  H171     1.0000 0.20520  0.68970  0.12043  Biso   1.000  H
  H172     1.0000 0.51550  0.31030  0.21290  Biso   1.000  H
  H173     1.0000 0.79480  0.48450  0.54623  Biso   1.000  H
  H174     1.0000 0.68970  0.20520  0.87957  Biso   1.000  H
  C163     1.0000 0.43800  0.37400  0.72380  Biso   1.000  C
  C164     1.0000 0.62600  0.06400  0.39047  Biso   1.000  C
  C165     1.0000 0.93600  0.56200  0.05713  Biso   1.000  C
  C166     1.0000 0.37400  0.43800  0.27620  Biso   1.000  C
  C167     1.0000 0.06400  0.62600  0.60953  Biso   1.000  C
  C168     1.0000 0.56200  0.93600  0.94287  Biso   1.000  C
  H175     1.0000 0.44650  0.32920  0.71930  Biso   1.000  H
  H176     1.0000 0.67080  0.11730  0.38597  Biso   1.000  H
  H177     1.0000 0.88270  0.55350  0.05263  Biso   1.000  H
  H178     1.0000 0.32920  0.44650  0.28070  Biso   1.000  H
  H179     1.0000 0.11730  0.67080  0.61403  Biso   1.000  H
  H180     1.0000 0.55350  0.88270  0.94737  Biso   1.000  H
  H181     1.0000 0.41670  0.38150  0.69470  Biso   1.000  H
  H182     1.0000 0.61850  0.03520  0.36137  Biso   1.000  H
  H183     1.0000 0.96480  0.58330  0.02803  Biso   1.000  H
  H184     1.0000 0.38150  0.41670  0.30530  Biso   1.000  H
  H185     1.0000 0.03520  0.61850  0.63863  Biso   1.000  H
  H186     1.0000 0.58330  0.96480  0.97197  Biso   1.000  H
  N31      1.0000 0.36930  0.42420  0.76660  Biso   1.000  N
  N32      1.0000 0.57580  0.94510  0.43327  Biso   1.000  N
  N33      1.0000 0.05490  0.63070  0.09993  Biso   1.000  N
  N34      1.0000 0.42420  0.36930  0.23340  Biso   1.000  N
  N35      1.0000 0.94510  0.57580  0.56673  Biso   1.000  N
  N36      1.0000 0.63070  0.05490  0.90007  Biso   1.000  N
  H187     1.0000 0.34300  0.42830  0.73840  Biso   1.000  H
  H188     1.0000 0.57170  0.91470  0.40507  Biso   1.000  H
  H189     1.0000 0.08530  0.65700  0.07173  Biso   1.000  H
  H190     1.0000 0.42830  0.34300  0.26160  Biso   1.000  H
  H191     1.0000 0.91470  0.57170  0.59493  Biso   1.000  H
  H192     1.0000 0.65700  0.08530  0.92827  Biso   1.000  H
  C169     1.0000 0.59400  0.66100  0.76690  Biso   1.000  C
  C170     1.0000 0.33900  0.93300  0.43357  Biso   1.000  C
  C171     1.0000 0.06700  0.40600  0.10023  Biso   1.000  C
  C172     1.0000 0.66100  0.59400  0.23310  Biso   1.000  C
  C173     1.0000 0.93300  0.33900  0.56643  Biso   1.000  C
  C174     1.0000 0.40600  0.06700  0.89977  Biso   1.000  C
  H193     1.0000 0.58830  0.68910  0.74050  Biso   1.000  H
  H194     1.0000 0.31090  0.89920  0.40717  Biso   1.000  H
  H195     1.0000 0.10080  0.41170  0.07383  Biso   1.000  H
  H196     1.0000 0.68910  0.58830  0.25950  Biso   1.000  H
  H197     1.0000 0.89920  0.31090  0.59283  Biso   1.000  H
  H198     1.0000 0.41170  0.10080  0.92617  Biso   1.000  H
  H199     1.0000 0.64690  0.69590  0.77950  Biso   1.000  H
  H200     1.0000 0.30410  0.95100  0.44617  Biso   1.000  H
  H201     1.0000 0.04900  0.35310  0.11283  Biso   1.000  H
  H202     1.0000 0.69590  0.64690  0.22050  Biso   1.000  H
  H203     1.0000 0.95100  0.30410  0.55383  Biso   1.000  H
  H204     1.0000 0.35310  0.04900  0.88717  Biso   1.000  H
  C175     1.0000 0.37500  0.35000  0.75960  Biso   1.000  C
  C176     1.0000 0.65000  0.02500  0.42627  Biso   1.000  C
  C177     1.0000 0.97500  0.62500  0.09293  Biso   1.000  C
  C178     1.0000 0.35000  0.37500  0.24040  Biso   1.000  C
  C179     1.0000 0.02500  0.65000  0.57373  Biso   1.000  C
  C180     1.0000 0.62500  0.97500  0.90707  Biso   1.000  C
  H205     1.0000 0.38940  0.33450  0.78830  Biso   1.000  H
  H206     1.0000 0.66550  0.05490  0.45497  Biso   1.000  H
  H207     1.0000 0.94510  0.61060  0.12163  Biso   1.000  H
  H208     1.0000 0.33450  0.38940  0.21170  Biso   1.000  H
  H209     1.0000 0.05490  0.66550  0.54503  Biso   1.000  H
  H210     1.0000 0.61060  0.94510  0.87837  Biso   1.000  H
  H211     1.0000 0.32410  0.30650  0.74860  Biso   1.000  H
  H212     1.0000 0.69350  0.01760  0.41527  Biso   1.000  H
  H213     1.0000 0.98240  0.67590  0.08193  Biso   1.000  H
  H214     1.0000 0.30650  0.32410  0.25140  Biso   1.000  H
  H215     1.0000 0.01760  0.69350  0.58473  Biso   1.000  H
  H216     1.0000 0.67590  0.98240  0.91807  Biso   1.000  H
  O61      1.0000 0.22090  0.42770  0.47880  Biso   1.000  O
  O62      1.0000 0.57230  0.79320  0.14547  Biso   1.000  O
  O63      1.0000 0.20680  0.77910  0.81213  Biso   1.000  O
  O64      1.0000 0.42770  0.22090  0.52120  Biso   1.000  O
  O65      1.0000 0.79320  0.57230  0.85453  Biso   1.000  O
  O66      1.0000 0.77910  0.20680  0.18787  Biso   1.000  O
  O67      1.0000 0.30700  0.43900  0.41500  Biso   1.000  O
  O68      1.0000 0.56100  0.86800  0.08167  Biso   1.000  O
  O69      1.0000 0.13200  0.69300  0.74833  Biso   1.000  O
  O70      1.0000 0.43900  0.30700  0.58500  Biso   1.000  O
  O71      1.0000 0.86800  0.56100  0.91833  Biso   1.000  O
  O72      1.0000 0.69300  0.13200  0.25167  Biso   1.000  O
  O73      1.0000 0.15600  0.36800  0.55430  Biso   1.000  O
  O74      1.0000 0.63200  0.78800  0.22097  Biso   1.000  O
  O75      1.0000 0.21200  0.84400  0.88763  Biso   1.000  O
  O76      1.0000 0.36800  0.15600  0.44570  Biso   1.000  O
  O77      1.0000 0.78800  0.63200  0.77903  Biso   1.000  O
  O78      1.0000 0.84400  0.21200  0.11237  Biso   1.000  O
  O79      1.0000 0.47300  0.62900  0.51470  Biso   1.000  O
  O80      1.0000 0.37100  0.84400  0.18137  Biso   1.000  O
  O81      1.0000 0.15600  0.52700  0.84803  Biso   1.000  O
  O82      1.0000 0.62900  0.47300  0.48530  Biso   1.000  O
  O83      1.0000 0.84400  0.37100  0.81863  Biso   1.000  O
  O84      1.0000 0.52700  0.15600  0.15197  Biso   1.000  O
  O85      1.0000 0.45100  0.38600  0.49100  Biso   1.000  O
  O86      1.0000 0.61400  0.06500  0.15767  Biso   1.000  O
  O87      1.0000 0.93500  0.54900  0.82433  Biso   1.000  O
  O88      1.0000 0.38600  0.45100  0.50900  Biso   1.000  O
  O89      1.0000 0.06500  0.61400  0.84233  Biso   1.000  O
  O90      1.0000 0.54900  0.93500  0.17567  Biso   1.000  O
  O91      1.0000 0.48700  0.47600  0.44600  Biso   1.000  O
  O92      1.0000 0.52400  0.01100  0.11267  Biso   1.000  O
  O93      1.0000 0.98900  0.51300  0.77933  Biso   1.000  O
  O94      1.0000 0.47600  0.48700  0.55400  Biso   1.000  O
  O95      1.0000 0.01100  0.52400  0.88733  Biso   1.000  O
  O96      1.0000 0.51300  0.98900  0.22067  Biso   1.000  O
  O97      1.0000 0.51840  0.63750  0.43410  Biso   1.000  O
  O98      1.0000 0.36250  0.88090  0.10077  Biso   1.000  O
  O99      1.0000 0.11910  0.48160  0.76743  Biso   1.000  O
  O100     1.0000 0.63750  0.51840  0.56590  Biso   1.000  O
  O101     1.0000 0.88090  0.36250  0.89923  Biso   1.000  O
  O102     1.0000 0.48160  0.11910  0.23257  Biso   1.000  O
  C181     1.0000 0.56700  0.73800  0.61730  Biso   1.000  C
  C182     1.0000 0.26200  0.82900  0.28397  Biso   1.000  C
  C183     1.0000 0.17100  0.43300  0.95063  Biso   1.000  C
  C184     1.0000 0.73800  0.56700  0.38270  Biso   1.000  C
  C185     1.0000 0.82900  0.26200  0.71603  Biso   1.000  C
  C186     1.0000 0.43300  0.17100  0.04937  Biso   1.000  C
  H217     1.0000 0.53840  0.68680  0.63390  Biso   1.000  H
  H218     1.0000 0.31320  0.85160  0.30057  Biso   1.000  H
  H219     1.0000 0.14840  0.46160  0.96723  Biso   1.000  H
  H220     1.0000 0.68680  0.53840  0.36610  Biso   1.000  H
  H221     1.0000 0.85160  0.31320  0.69943  Biso   1.000  H
  H222     1.0000 0.46160  0.14840  0.03277  Biso   1.000  H
  C187     1.0000 0.51700  0.77400  0.60720  Biso   1.000  C
  C188     1.0000 0.22600  0.74300  0.27387  Biso   1.000  C
  C189     1.0000 0.25700  0.48300  0.94053  Biso   1.000  C
  C190     1.0000 0.77400  0.51700  0.39280  Biso   1.000  C
  C191     1.0000 0.74300  0.22600  0.72613  Biso   1.000  C
  C192     1.0000 0.48300  0.25700  0.05947  Biso   1.000  C
  H223     1.0000 0.51840  0.78400  0.57430  Biso   1.000  H
  H224     1.0000 0.21600  0.73440  0.24097  Biso   1.000  H
  H225     1.0000 0.26560  0.48160  0.90763  Biso   1.000  H
  H226     1.0000 0.78400  0.51840  0.42570  Biso   1.000  H
  H227     1.0000 0.73440  0.21600  0.75903  Biso   1.000  H
  H228     1.0000 0.48160  0.26560  0.09237  Biso   1.000  H
  H229     1.0000 0.53760  0.82350  0.62390  Biso   1.000  H
  H230     1.0000 0.17650  0.71410  0.29057  Biso   1.000  H
  H231     1.0000 0.28590  0.46240  0.95723  Biso   1.000  H
  H232     1.0000 0.82350  0.53760  0.37610  Biso   1.000  H
  H233     1.0000 0.71410  0.17650  0.70943  Biso   1.000  H
  H234     1.0000 0.46240  0.28590  0.04277  Biso   1.000  H
  H235     1.0000 0.46320  0.73800  0.61670  Biso   1.000  H
  H236     1.0000 0.26200  0.72520  0.28337  Biso   1.000  H
  H237     1.0000 0.27480  0.53680  0.95003  Biso   1.000  H
  H238     1.0000 0.73800  0.46320  0.38330  Biso   1.000  H
  H239     1.0000 0.72520  0.26200  0.71663  Biso   1.000  H
  H240     1.0000 0.53680  0.27480  0.04997  Biso   1.000  H
  C193     1.0000 0.62300  0.80600  0.64800  Biso   1.000  C
  C194     1.0000 0.19400  0.81700  0.31467  Biso   1.000  C
  C195     1.0000 0.18300  0.37700  0.98133  Biso   1.000  C
  C196     1.0000 0.80600  0.62300  0.35200  Biso   1.000  C
  C197     1.0000 0.81700  0.19400  0.68533  Biso   1.000  C
  C198     1.0000 0.37700  0.18300  0.01867  Biso   1.000  C
  H241     1.0000 0.66390  0.79680  0.66000  Biso   1.000  H
  H242     1.0000 0.20320  0.86710  0.32667  Biso   1.000  H
  H243     1.0000 0.13290  0.33610  0.99333  Biso   1.000  H
  H244     1.0000 0.79680  0.66390  0.34000  Biso   1.000  H
  H245     1.0000 0.86710  0.20320  0.67333  Biso   1.000  H
  H246     1.0000 0.33610  0.13290  0.00667  Biso   1.000  H
  H247     1.0000 0.59330  0.81110  0.67370  Biso   1.000  H
  H248     1.0000 0.18890  0.78220  0.34037  Biso   1.000  H
  H249     1.0000 0.21780  0.40670  0.00703  Biso   1.000  H
  H250     1.0000 0.81110  0.59330  0.32630  Biso   1.000  H
  H251     1.0000 0.78220  0.18890  0.65963  Biso   1.000  H
  H252     1.0000 0.40670  0.21780  0.99297  Biso   1.000  H
  H253     1.0000 0.64720  0.85520  0.63040  Biso   1.000  H
  H254     1.0000 0.14480  0.79200  0.29707  Biso   1.000  H
  H255     1.0000 0.20800  0.35280  0.96373  Biso   1.000  H
  H256     1.0000 0.85520  0.64720  0.36960  Biso   1.000  H
  H257     1.0000 0.79200  0.14480  0.70293  Biso   1.000  H
  H258     1.0000 0.35280  0.20800  0.03627  Biso   1.000  H
  O103     1.0000 0.59400  0.73200  0.57600  Biso   1.000  O
  O104     1.0000 0.26800  0.86200  0.24267  Biso   1.000  O
  O105     1.0000 0.13800  0.40600  0.90933  Biso   1.000  O
  O106     1.0000 0.73200  0.59400  0.42400  Biso   1.000  O
  O107     1.0000 0.86200  0.26800  0.75733  Biso   1.000  O
  O108     1.0000 0.40600  0.13800  0.09067  Biso   1.000  O
  H259     1.0000 0.55690  0.69950  0.55990  Biso   1.000  H
  H260     1.0000 0.30050  0.85740  0.22657  Biso   1.000  H
  H261     1.0000 0.14260  0.44310  0.89323  Biso   1.000  H
  H262     1.0000 0.69950  0.55690  0.44010  Biso   1.000  H
  H263     1.0000 0.85740  0.30050  0.77343  Biso   1.000  H
  H264     1.0000 0.44310  0.14260  0.10677  Biso   1.000  H
  O109     1.0000 0.26300  0.80300  0.66020  Biso   1.000  O
  O110     1.0000 0.19700  0.46000  0.32687  Biso   1.000  O
  O111     1.0000 0.54000  0.73700  0.99353  Biso   1.000  O
  O112     1.0000 0.80300  0.26300  0.33980  Biso   1.000  O
  O113     1.0000 0.46000  0.19700  0.67313  Biso   1.000  O
  O114     1.0000 0.73700  0.54000  0.00647  Biso   1.000  O
  H265     1.0000 0.24420  0.75490  0.65380  Biso   1.000  H
  H266     1.0000 0.24510  0.48930  0.32047  Biso   1.000  H
  H267     1.0000 0.51070  0.75580  0.98713  Biso   1.000  H
  H268     1.0000 0.75490  0.24420  0.34620  Biso   1.000  H
  H269     1.0000 0.48930  0.24510  0.67953  Biso   1.000  H
  H270     1.0000 0.75580  0.51070  0.01287  Biso   1.000  H
  C199     1.0000 0.23700  0.80200  0.57720  Biso   1.000  C
  C200     1.0000 0.19800  0.43500  0.24387  Biso   1.000  C
  C201     1.0000 0.56500  0.76300  0.91053  Biso   1.000  C
  C202     1.0000 0.80200  0.23700  0.42280  Biso   1.000  C
  C203     1.0000 0.43500  0.19800  0.75613  Biso   1.000  C
  C204     1.0000 0.76300  0.56500  0.08947  Biso   1.000  C
  H271     1.0000 0.18450  0.75920  0.58510  Biso   1.000  H
  H272     1.0000 0.24080  0.42530  0.25177  Biso   1.000  H
  H273     1.0000 0.57470  0.81550  0.91843  Biso   1.000  H
  H274     1.0000 0.75920  0.18450  0.41490  Biso   1.000  H
  H275     1.0000 0.42530  0.24080  0.74823  Biso   1.000  H
  H276     1.0000 0.81550  0.57470  0.08157  Biso   1.000  H
  H277     1.0000 0.26620  0.78100  0.56160  Biso   1.000  H
  H278     1.0000 0.21900  0.48520  0.22827  Biso   1.000  H
  H279     1.0000 0.51480  0.73380  0.89493  Biso   1.000  H
  H280     1.0000 0.78100  0.26620  0.43840  Biso   1.000  H
  H281     1.0000 0.48520  0.21900  0.77173  Biso   1.000  H
  H282     1.0000 0.73380  0.51480  0.10507  Biso   1.000  H
  H283     1.0000 0.23180  0.83910  0.55700  Biso   1.000  H
  H284     1.0000 0.16090  0.39270  0.22367  Biso   1.000  H
  H285     1.0000 0.60730  0.76820  0.89033  Biso   1.000  H
  H286     1.0000 0.83910  0.23180  0.44300  Biso   1.000  H
  H287     1.0000 0.39270  0.16090  0.77633  Biso   1.000  H
  H288     1.0000 0.76820  0.60730  0.10967  Biso   1.000  H
  C205     1.0000 0.37000  0.89700  0.62900  Biso   1.000  C
  C206     1.0000 0.10300  0.47300  0.29567  Biso   1.000  C
  C207     1.0000 0.52700  0.63000  0.96233  Biso   1.000  C
  C208     1.0000 0.89700  0.37000  0.37100  Biso   1.000  C
  C209     1.0000 0.47300  0.10300  0.70433  Biso   1.000  C
  C210     1.0000 0.63000  0.52700  0.03767  Biso   1.000  C
  H289     1.0000 0.38030  0.91810  0.65980  Biso   1.000  H
  H290     1.0000 0.08190  0.46220  0.32647  Biso   1.000  H
  H291     1.0000 0.53780  0.61970  0.99313  Biso   1.000  H
  H292     1.0000 0.91810  0.38030  0.34020  Biso   1.000  H
  H293     1.0000 0.46220  0.08190  0.67353  Biso   1.000  H
  H294     1.0000 0.61970  0.53780  0.00687  Biso   1.000  H
  H295     1.0000 0.39170  0.94030  0.60670  Biso   1.000  H
  H296     1.0000 0.05970  0.45140  0.27337  Biso   1.000  H
  H297     1.0000 0.54860  0.60830  0.94003  Biso   1.000  H
  H298     1.0000 0.94030  0.39170  0.39330  Biso   1.000  H
  H299     1.0000 0.45140  0.05970  0.72663  Biso   1.000  H
  H300     1.0000 0.60830  0.54860  0.05997  Biso   1.000  H
  H301     1.0000 0.39550  0.86540  0.62430  Biso   1.000  H
  H302     1.0000 0.13460  0.53010  0.29097  Biso   1.000  H
  H303     1.0000 0.46990  0.60450  0.95763  Biso   1.000  H
  H304     1.0000 0.86540  0.39550  0.37570  Biso   1.000  H
  H305     1.0000 0.53010  0.13460  0.70903  Biso   1.000  H
  H306     1.0000 0.60450  0.46990  0.04237  Biso   1.000  H
  C211     1.0000 0.28100  0.84500  0.62110  Biso   1.000  C
  C212     1.0000 0.15500  0.43600  0.28777  Biso   1.000  C
  C213     1.0000 0.56400  0.71900  0.95443  Biso   1.000  C
  C214     1.0000 0.84500  0.28100  0.37890  Biso   1.000  C
  C215     1.0000 0.43600  0.15500  0.71223  Biso   1.000  C
  C216     1.0000 0.71900  0.56400  0.04557  Biso   1.000  C
  H307     1.0000 0.26050  0.88180  0.62720  Biso   1.000  H
  H308     1.0000 0.11820  0.37870  0.29387  Biso   1.000  H
  H309     1.0000 0.62130  0.73950  0.96053  Biso   1.000  H
  H310     1.0000 0.88180  0.26050  0.37280  Biso   1.000  H
  H311     1.0000 0.37870  0.11820  0.70613  Biso   1.000  H
  H312     1.0000 0.73950  0.62130  0.03947  Biso   1.000  H
