data_image0
_cell_length_a       14.89
_cell_length_b       10.612
_cell_length_c       28.0657
_cell_angle_alpha    90
_cell_angle_beta     101.511
_cell_angle_gamma    90

_symmetry_space_group_name_H-M    "P 1"
_symmetry_int_tables_number       1

loop_
  _symmetry_equiv_pos_as_xyz
  'x, y, z'

loop_
  _atom_site_label
  _atom_site_occupancy
  _atom_site_fract_x
  _atom_site_fract_y
  _atom_site_fract_z
  _atom_site_thermal_displace_type
  _atom_site_B_iso_or_equiv
  _atom_site_type_symbol
  C1       1.0000 0.34870  0.41210  0.19870  Biso   1.000  C
  C2       1.0000 0.65130  0.91210  0.30130  Biso   1.000  C
  C3       1.0000 0.65130  0.58790  0.80130  Biso   1.000  C
  C4       1.0000 0.34870  0.08790  0.69870  Biso   1.000  C
  C5       1.0000 0.40420  0.33550  0.17130  Biso   1.000  C
  C6       1.0000 0.59580  0.83550  0.32870  Biso   1.000  C
  C7       1.0000 0.59580  0.66450  0.82870  Biso   1.000  C
  C8       1.0000 0.40420  0.16450  0.67130  Biso   1.000  C
  C9       1.0000 0.37700  0.31500  0.11970  Biso   1.000  C
  C10      1.0000 0.62300  0.81500  0.38030  Biso   1.000  C
  C11      1.0000 0.62300  0.68500  0.88030  Biso   1.000  C
  C12      1.0000 0.37700  0.18500  0.61970  Biso   1.000  C
  H1       1.0000 0.32790  0.36110  0.10120  Biso   1.000  H
  H2       1.0000 0.67210  0.86110  0.39880  Biso   1.000  H
  H3       1.0000 0.67210  0.63890  0.89880  Biso   1.000  H
  H4       1.0000 0.32790  0.13890  0.60120  Biso   1.000  H
  C13      1.0000 0.42500  0.22600  0.09670  Biso   1.000  C
  C14      1.0000 0.57500  0.72600  0.40330  Biso   1.000  C
  C15      1.0000 0.57500  0.77400  0.90330  Biso   1.000  C
  C16      1.0000 0.42500  0.27400  0.59670  Biso   1.000  C
  C17      1.0000 0.50100  0.16200  0.12280  Biso   1.000  C
  C18      1.0000 0.49900  0.66200  0.37720  Biso   1.000  C
  C19      1.0000 0.49900  0.83800  0.87720  Biso   1.000  C
  C20      1.0000 0.50100  0.33800  0.62280  Biso   1.000  C
  H5       1.0000 0.53370  0.10110  0.10770  Biso   1.000  H
  H6       1.0000 0.46630  0.60110  0.39230  Biso   1.000  H
  H7       1.0000 0.46630  0.89890  0.89230  Biso   1.000  H
  H8       1.0000 0.53370  0.39890  0.60770  Biso   1.000  H
  C21      1.0000 0.52830  0.19140  0.17280  Biso   1.000  C
  C22      1.0000 0.47170  0.69140  0.32720  Biso   1.000  C
  C23      1.0000 0.47170  0.80860  0.82720  Biso   1.000  C
  C24      1.0000 0.52830  0.30860  0.67280  Biso   1.000  C
  C25      1.0000 0.47740  0.26710  0.19720  Biso   1.000  C
  C26      1.0000 0.52260  0.76710  0.30280  Biso   1.000  C
  C27      1.0000 0.52260  0.73290  0.80280  Biso   1.000  C
  C28      1.0000 0.47740  0.23290  0.69720  Biso   1.000  C
  H9       1.0000 0.49230  0.27250  0.23170  Biso   1.000  H
  H10      1.0000 0.50770  0.77250  0.26830  Biso   1.000  H
  H11      1.0000 0.50770  0.72750  0.76830  Biso   1.000  H
  H12      1.0000 0.49230  0.22750  0.73170  Biso   1.000  H
  C29      1.0000 0.61180  0.11960  0.20010  Biso   1.000  C
  C30      1.0000 0.38820  0.61960  0.29990  Biso   1.000  C
  C31      1.0000 0.38820  0.88040  0.79990  Biso   1.000  C
  C32      1.0000 0.61180  0.38040  0.70010  Biso   1.000  C
  C33      1.0000 0.39160  0.20200  0.04440  Biso   1.000  C
  C34      1.0000 0.60840  0.70200  0.45560  Biso   1.000  C
  C35      1.0000 0.60840  0.79800  0.95560  Biso   1.000  C
  C36      1.0000 0.39160  0.29800  0.54440  Biso   1.000  C
  C37      1.0000 0.37090  0.31400  0.01290  Biso   1.000  C
  C38      1.0000 0.62910  0.81400  0.48710  Biso   1.000  C
  C39      1.0000 0.62910  0.68600  0.98710  Biso   1.000  C
  C40      1.0000 0.37090  0.18600  0.51290  Biso   1.000  C
  H13      1.0000 0.37790  0.39500  0.02750  Biso   1.000  H
  H14      1.0000 0.62210  0.89500  0.47250  Biso   1.000  H
  H15      1.0000 0.62210  0.60500  0.97250  Biso   1.000  H
  H16      1.0000 0.37790  0.10500  0.52750  Biso   1.000  H
  C41      1.0000 0.34030  0.30500  0.96040  Biso   1.000  C
  C42      1.0000 0.65970  0.80500  0.53960  Biso   1.000  C
  C43      1.0000 0.65970  0.69500  0.03960  Biso   1.000  C
  C44      1.0000 0.34030  0.19500  0.46040  Biso   1.000  C
  H17      1.0000 0.32680  0.37700  0.94000  Biso   1.000  H
  H18      1.0000 0.67320  0.87700  0.56000  Biso   1.000  H
  H19      1.0000 0.67320  0.62300  0.06000  Biso   1.000  H
  H20      1.0000 0.32680  0.12300  0.44000  Biso   1.000  H
  C45      1.0000 0.33230  0.18100  0.94260  Biso   1.000  C
  C46      1.0000 0.66770  0.68100  0.55740  Biso   1.000  C
  C47      1.0000 0.66770  0.81900  0.05740  Biso   1.000  C
  C48      1.0000 0.33230  0.31900  0.44260  Biso   1.000  C
  H21      1.0000 0.31270  0.16750  0.90860  Biso   1.000  H
  H22      1.0000 0.68730  0.66750  0.59140  Biso   1.000  H
  H23      1.0000 0.68730  0.83250  0.09140  Biso   1.000  H
  H24      1.0000 0.31270  0.33250  0.40860  Biso   1.000  H
  C49      1.0000 0.35120  0.08000  0.97170  Biso   1.000  C
  C50      1.0000 0.64880  0.58000  0.52830  Biso   1.000  C
  C51      1.0000 0.64880  0.92000  0.02830  Biso   1.000  C
  C52      1.0000 0.35120  0.42000  0.47170  Biso   1.000  C
  C53      1.0000 0.38140  0.09800  0.02340  Biso   1.000  C
  C54      1.0000 0.61860  0.59800  0.47660  Biso   1.000  C
  C55      1.0000 0.61860  0.90200  0.97660  Biso   1.000  C
  C56      1.0000 0.38140  0.40200  0.52340  Biso   1.000  C
  C57      1.0000 0.34010  0.96800  0.94880  Biso   1.000  C
  C58      1.0000 0.65990  0.46800  0.55120  Biso   1.000  C
  C59      1.0000 0.65990  0.03200  0.05120  Biso   1.000  C
  C60      1.0000 0.34010  0.53200  0.44880  Biso   1.000  C
  H25      1.0000 0.32010  0.96420  0.91450  Biso   1.000  H
  H26      1.0000 0.67990  0.46420  0.58550  Biso   1.000  H
  H27      1.0000 0.67990  0.03580  0.08550  Biso   1.000  H
  H28      1.0000 0.32010  0.53580  0.41450  Biso   1.000  H
  C61      1.0000 0.36020  0.84400  0.97900  Biso   1.000  C
  C62      1.0000 0.63980  0.34400  0.52100  Biso   1.000  C
  C63      1.0000 0.63980  0.15600  0.02100  Biso   1.000  C
  C64      1.0000 0.36020  0.65600  0.47900  Biso   1.000  C
  H29      1.0000 0.35250  0.76430  0.96330  Biso   1.000  H
  H30      1.0000 0.64750  0.26430  0.53670  Biso   1.000  H
  H31      1.0000 0.64750  0.23570  0.03670  Biso   1.000  H
  H32      1.0000 0.35250  0.73570  0.46330  Biso   1.000  H
  C65      1.0000 0.38980  0.85200  0.02970  Biso   1.000  C
  C66      1.0000 0.61020  0.35200  0.47030  Biso   1.000  C
  C67      1.0000 0.61020  0.14800  0.97030  Biso   1.000  C
  C68      1.0000 0.38980  0.64800  0.52970  Biso   1.000  C
  H33      1.0000 0.40260  0.77770  0.04900  Biso   1.000  H
  H34      1.0000 0.59740  0.27770  0.45100  Biso   1.000  H
  H35      1.0000 0.59740  0.22230  0.95100  Biso   1.000  H
  H36      1.0000 0.40260  0.72230  0.54900  Biso   1.000  H
  C69      1.0000 0.39980  0.97200  0.05070  Biso   1.000  C
  C70      1.0000 0.60020  0.47200  0.44930  Biso   1.000  C
  C71      1.0000 0.60020  0.02800  0.94930  Biso   1.000  C
  C72      1.0000 0.39980  0.52800  0.55070  Biso   1.000  C
  H37      1.0000 0.41970  0.97570  0.08500  Biso   1.000  H
  H38      1.0000 0.58030  0.47570  0.41500  Biso   1.000  H
  H39      1.0000 0.58030  0.02430  0.91500  Biso   1.000  H
  H40      1.0000 0.41970  0.52430  0.58500  Biso   1.000  H
  C73      1.0000 0.11000  0.41940  0.19900  Biso   1.000  C
  C74      1.0000 0.89000  0.91940  0.30100  Biso   1.000  C
  C75      1.0000 0.89000  0.58060  0.80100  Biso   1.000  C
  C76      1.0000 0.11000  0.08060  0.69900  Biso   1.000  C
  C77      1.0000 0.02750  0.35010  0.17160  Biso   1.000  C
  C78      1.0000 0.97250  0.85010  0.32840  Biso   1.000  C
  C79      1.0000 0.97250  0.64990  0.82840  Biso   1.000  C
  C80      1.0000 0.02750  0.14990  0.67160  Biso   1.000  C
  C81      1.0000 0.00370  0.36020  0.12170  Biso   1.000  C
  C82      1.0000 0.99630  0.86020  0.37830  Biso   1.000  C
  C83      1.0000 0.99630  0.63980  0.87830  Biso   1.000  C
  C84      1.0000 0.00370  0.13980  0.62170  Biso   1.000  C
  H41      1.0000 0.03760  0.41470  0.10510  Biso   1.000  H
  H42      1.0000 0.96240  0.91470  0.39490  Biso   1.000  H
  H43      1.0000 0.96240  0.58530  0.89490  Biso   1.000  H
  H44      1.0000 0.03760  0.08530  0.60510  Biso   1.000  H
  C85      1.0000 0.93030  0.29100  0.09540  Biso   1.000  C
  C86      1.0000 0.06970  0.79100  0.40460  Biso   1.000  C
  C87      1.0000 0.06970  0.70900  0.90460  Biso   1.000  C
  C88      1.0000 0.93030  0.20900  0.59540  Biso   1.000  C
  C89      1.0000 0.88050  0.21320  0.12080  Biso   1.000  C
  C90      1.0000 0.11950  0.71320  0.37920  Biso   1.000  C
  C91      1.0000 0.11950  0.78680  0.87920  Biso   1.000  C
  C92      1.0000 0.88050  0.28680  0.62080  Biso   1.000  C
  H45      1.0000 0.83000  0.16620  0.10350  Biso   1.000  H
  H46      1.0000 0.17000  0.66620  0.39650  Biso   1.000  H
  H47      1.0000 0.17000  0.83380  0.89650  Biso   1.000  H
  H48      1.0000 0.83000  0.33380  0.60350  Biso   1.000  H
  C93      1.0000 0.90390  0.20370  0.17090  Biso   1.000  C
  C94      1.0000 0.09610  0.70370  0.32910  Biso   1.000  C
  C95      1.0000 0.09610  0.79630  0.82910  Biso   1.000  C
  C96      1.0000 0.90390  0.29630  0.67090  Biso   1.000  C
  C97      1.0000 0.97670  0.27630  0.19670  Biso   1.000  C
  C98      1.0000 0.02330  0.77630  0.30330  Biso   1.000  C
  C99      1.0000 0.02330  0.72370  0.80330  Biso   1.000  C
  C100     1.0000 0.97670  0.22370  0.69670  Biso   1.000  C
  H49      1.0000 0.99070  0.27450  0.23120  Biso   1.000  H
  H50      1.0000 0.00930  0.77450  0.26880  Biso   1.000  H
  H51      1.0000 0.00930  0.72550  0.76880  Biso   1.000  H
  H52      1.0000 0.99070  0.22550  0.73120  Biso   1.000  H
  C101     1.0000 0.84860  0.12980  0.19900  Biso   1.000  C
  C102     1.0000 0.15140  0.62980  0.30100  Biso   1.000  C
  C103     1.0000 0.15140  0.87020  0.80100  Biso   1.000  C
  C104     1.0000 0.84860  0.37020  0.69900  Biso   1.000  C
  C105     1.0000 0.89980  0.29800  0.04370  Biso   1.000  C
  C106     1.0000 0.10020  0.79800  0.45630  Biso   1.000  C
  C107     1.0000 0.10020  0.70200  0.95630  Biso   1.000  C
  C108     1.0000 0.89980  0.20200  0.54370  Biso   1.000  C
  C109     1.0000 0.89840  0.18100  0.01550  Biso   1.000  C
  C110     1.0000 0.10160  0.68100  0.48450  Biso   1.000  C
  C111     1.0000 0.10160  0.81900  0.98450  Biso   1.000  C
  C112     1.0000 0.89840  0.31900  0.51550  Biso   1.000  C
  H53      1.0000 0.91460  0.10390  0.03230  Biso   1.000  H
  H54      1.0000 0.08540  0.60390  0.46770  Biso   1.000  H
  H55      1.0000 0.08540  0.89610  0.96770  Biso   1.000  H
  H56      1.0000 0.91460  0.39610  0.53230  Biso   1.000  H
  C113     1.0000 0.87280  0.18000  0.96270  Biso   1.000  C
  C114     1.0000 0.12720  0.68000  0.53730  Biso   1.000  C
  C115     1.0000 0.12720  0.82000  0.03730  Biso   1.000  C
  C116     1.0000 0.87280  0.32000  0.46270  Biso   1.000  C
  H57      1.0000 0.87140  0.10480  0.94390  Biso   1.000  H
  H58      1.0000 0.12860  0.60480  0.55610  Biso   1.000  H
  H59      1.0000 0.12860  0.89520  0.05610  Biso   1.000  H
  H60      1.0000 0.87140  0.39520  0.44390  Biso   1.000  H
  C117     1.0000 0.85030  0.29800  0.94200  Biso   1.000  C
  C118     1.0000 0.14970  0.79800  0.55800  Biso   1.000  C
  C119     1.0000 0.14970  0.70200  0.05800  Biso   1.000  C
  C120     1.0000 0.85030  0.20200  0.44200  Biso   1.000  C
  H61      1.0000 0.83300  0.30450  0.90760  Biso   1.000  H
  H62      1.0000 0.16700  0.80450  0.59240  Biso   1.000  H
  H63      1.0000 0.16700  0.69550  0.09240  Biso   1.000  H
  H64      1.0000 0.83300  0.19550  0.40760  Biso   1.000  H
  C121     1.0000 0.85220  0.40300  0.96830  Biso   1.000  C
  C122     1.0000 0.14780  0.90300  0.53170  Biso   1.000  C
  C123     1.0000 0.14780  0.59700  0.03170  Biso   1.000  C
  C124     1.0000 0.85220  0.09700  0.46830  Biso   1.000  C
  C125     1.0000 0.87830  0.39700  0.02070  Biso   1.000  C
  C126     1.0000 0.12170  0.89700  0.47930  Biso   1.000  C
  C127     1.0000 0.12170  0.60300  0.97930  Biso   1.000  C
  C128     1.0000 0.87830  0.10300  0.52070  Biso   1.000  C
  C129     1.0000 0.82880  0.51100  0.94370  Biso   1.000  C
  C130     1.0000 0.17120  0.01100  0.55630  Biso   1.000  C
  C131     1.0000 0.17120  0.48900  0.05630  Biso   1.000  C
  C132     1.0000 0.82880  0.98900  0.44370  Biso   1.000  C
  H65      1.0000 0.81210  0.50770  0.90920  Biso   1.000  H
  H66      1.0000 0.18790  0.00770  0.59080  Biso   1.000  H
  H67      1.0000 0.18790  0.49230  0.09080  Biso   1.000  H
  H68      1.0000 0.81210  0.99230  0.40920  Biso   1.000  H
  C133     1.0000 0.82780  0.64100  0.96910  Biso   1.000  C
  C134     1.0000 0.17220  0.14100  0.53090  Biso   1.000  C
  C135     1.0000 0.17220  0.35900  0.03090  Biso   1.000  C
  C136     1.0000 0.82780  0.85900  0.46910  Biso   1.000  C
  H69      1.0000 0.81120  0.71610  0.95080  Biso   1.000  H
  H70      1.0000 0.18880  0.21610  0.54920  Biso   1.000  H
  H71      1.0000 0.18880  0.28390  0.04920  Biso   1.000  H
  H72      1.0000 0.81120  0.78390  0.45080  Biso   1.000  H
  C137     1.0000 0.85230  0.64500  0.02000  Biso   1.000  C
  C138     1.0000 0.14770  0.14500  0.48000  Biso   1.000  C
  C139     1.0000 0.14770  0.35500  0.98000  Biso   1.000  C
  C140     1.0000 0.85230  0.85500  0.52000  Biso   1.000  C
  H73      1.0000 0.85320  0.72090  0.03790  Biso   1.000  H
  H74      1.0000 0.14680  0.22090  0.46210  Biso   1.000  H
  H75      1.0000 0.14680  0.27910  0.96210  Biso   1.000  H
  H76      1.0000 0.85320  0.77910  0.53790  Biso   1.000  H
  C141     1.0000 0.87530  0.52800  0.04270  Biso   1.000  C
  C142     1.0000 0.12470  0.02800  0.45730  Biso   1.000  C
  C143     1.0000 0.12470  0.47200  0.95730  Biso   1.000  C
  C144     1.0000 0.87530  0.97200  0.54270  Biso   1.000  C
  H77      1.0000 0.89160  0.53170  0.07720  Biso   1.000  H
  H78      1.0000 0.10840  0.03170  0.42280  Biso   1.000  H
  H79      1.0000 0.10840  0.46830  0.92280  Biso   1.000  H
  H80      1.0000 0.89160  0.96830  0.57720  Biso   1.000  H
  O1       1.0000 0.22130  0.77680  0.17460  Biso   1.000  O
  O2       1.0000 0.77870  0.27680  0.32540  Biso   1.000  O
  O3       1.0000 0.77870  0.22320  0.82540  Biso   1.000  O
  O4       1.0000 0.22130  0.72320  0.67460  Biso   1.000  O
  C145     1.0000 0.25090  0.87970  0.17590  Biso   1.000  C
  C146     1.0000 0.74910  0.37970  0.32410  Biso   1.000  C
  C147     1.0000 0.74910  0.12030  0.82410  Biso   1.000  C
  C148     1.0000 0.25090  0.62030  0.67590  Biso   1.000  C
  C149     1.0000 0.35310  0.89400  0.17840  Biso   1.000  C
  C150     1.0000 0.64690  0.39400  0.32160  Biso   1.000  C
  C151     1.0000 0.64690  0.10600  0.82160  Biso   1.000  C
  C152     1.0000 0.35310  0.60600  0.67840  Biso   1.000  C
  H81      1.0000 0.36880  0.98410  0.17920  Biso   1.000  H
  H82      1.0000 0.63120  0.48410  0.32080  Biso   1.000  H
  H83      1.0000 0.63120  0.01590  0.82080  Biso   1.000  H
  H84      1.0000 0.36880  0.51590  0.67920  Biso   1.000  H
  H85      1.0000 0.38680  0.85320  0.20780  Biso   1.000  H
  H86      1.0000 0.61320  0.35320  0.29220  Biso   1.000  H
  H87      1.0000 0.61320  0.14680  0.79220  Biso   1.000  H
  H88      1.0000 0.38680  0.64680  0.70780  Biso   1.000  H
  H89      1.0000 0.36970  0.85520  0.14970  Biso   1.000  H
  H90      1.0000 0.63030  0.35520  0.35030  Biso   1.000  H
  H91      1.0000 0.63030  0.14480  0.85030  Biso   1.000  H
  H92      1.0000 0.36970  0.64480  0.64970  Biso   1.000  H
  N1       1.0000 0.20400  0.98260  0.18620  Biso   1.000  N
  N2       1.0000 0.79600  0.48260  0.31380  Biso   1.000  N
  N3       1.0000 0.79600  0.01740  0.81380  Biso   1.000  N
  N4       1.0000 0.20400  0.51740  0.68620  Biso   1.000  N
  C153     1.0000 0.10510  0.96000  0.18360  Biso   1.000  C
  C154     1.0000 0.89490  0.46000  0.31640  Biso   1.000  C
  C155     1.0000 0.89490  0.04000  0.81640  Biso   1.000  C
  C156     1.0000 0.10510  0.54000  0.68360  Biso   1.000  C
  H93      1.0000 0.07600  0.03810  0.19140  Biso   1.000  H
  H94      1.0000 0.92400  0.53810  0.30860  Biso   1.000  H
  H95      1.0000 0.92400  0.96190  0.80860  Biso   1.000  H
  H96      1.0000 0.07600  0.46190  0.69140  Biso   1.000  H
  H97      1.0000 0.07660  0.93290  0.15060  Biso   1.000  H
  H98      1.0000 0.92340  0.43290  0.34940  Biso   1.000  H
  H99      1.0000 0.92340  0.06710  0.84940  Biso   1.000  H
  H100     1.0000 0.07660  0.56710  0.65060  Biso   1.000  H
  H101     1.0000 0.09710  0.89430  0.20690  Biso   1.000  H
  H102     1.0000 0.90290  0.39430  0.29310  Biso   1.000  H
  H103     1.0000 0.90290  0.10570  0.79310  Biso   1.000  H
  H104     1.0000 0.09710  0.60570  0.70690  Biso   1.000  H
  C157     1.0000 0.24400  0.10700  0.18790  Biso   1.000  C
  C158     1.0000 0.75600  0.60700  0.31210  Biso   1.000  C
  C159     1.0000 0.75600  0.89300  0.81210  Biso   1.000  C
  C160     1.0000 0.24400  0.39300  0.68790  Biso   1.000  C
  H105     1.0000 0.20010  0.16850  0.19580  Biso   1.000  H
  H106     1.0000 0.79990  0.66850  0.30420  Biso   1.000  H
  H107     1.0000 0.79990  0.83150  0.80420  Biso   1.000  H
  H108     1.0000 0.20010  0.33150  0.69580  Biso   1.000  H
  H109     1.0000 0.30020  0.10910  0.21270  Biso   1.000  H
  H110     1.0000 0.69980  0.60910  0.28730  Biso   1.000  H
  H111     1.0000 0.69980  0.89090  0.78730  Biso   1.000  H
  H112     1.0000 0.30020  0.39090  0.71270  Biso   1.000  H
  H113     1.0000 0.25790  0.12710  0.15610  Biso   1.000  H
  H114     1.0000 0.74210  0.62710  0.34390  Biso   1.000  H
  H115     1.0000 0.74210  0.87290  0.84390  Biso   1.000  H
  H116     1.0000 0.25790  0.37290  0.65610  Biso   1.000  H
  O5       1.0000 0.27570  0.26080  0.32430  Biso   1.000  O
  O6       1.0000 0.72430  0.76080  0.17570  Biso   1.000  O
  O7       1.0000 0.72430  0.73920  0.67570  Biso   1.000  O
  O8       1.0000 0.27570  0.23920  0.82430  Biso   1.000  O
  C161     1.0000 0.24410  0.15730  0.32310  Biso   1.000  C
  C162     1.0000 0.75590  0.65730  0.17690  Biso   1.000  C
  C163     1.0000 0.75590  0.84270  0.67690  Biso   1.000  C
  C164     1.0000 0.24410  0.34270  0.82310  Biso   1.000  C
  C165     1.0000 0.14200  0.14900  0.32160  Biso   1.000  C
  C166     1.0000 0.85800  0.64900  0.17840  Biso   1.000  C
  C167     1.0000 0.85800  0.85100  0.67840  Biso   1.000  C
  C168     1.0000 0.14200  0.35100  0.82160  Biso   1.000  C
  H117     1.0000 0.11970  0.22950  0.33130  Biso   1.000  H
  H118     1.0000 0.88030  0.72950  0.16870  Biso   1.000  H
  H119     1.0000 0.88030  0.77050  0.66870  Biso   1.000  H
  H120     1.0000 0.11970  0.27050  0.83130  Biso   1.000  H
  H121     1.0000 0.13030  0.08250  0.34400  Biso   1.000  H
  H122     1.0000 0.86970  0.58250  0.15600  Biso   1.000  H
  H123     1.0000 0.86970  0.91750  0.65600  Biso   1.000  H
  H124     1.0000 0.13030  0.41750  0.84400  Biso   1.000  H
  H125     1.0000 0.11020  0.12780  0.28850  Biso   1.000  H
  H126     1.0000 0.88980  0.62780  0.21150  Biso   1.000  H
  H127     1.0000 0.88980  0.87220  0.71150  Biso   1.000  H
  H128     1.0000 0.11020  0.37220  0.78850  Biso   1.000  H
  N5       1.0000 0.29110  0.05410  0.31440  Biso   1.000  N
  N6       1.0000 0.70890  0.55410  0.18560  Biso   1.000  N
  N7       1.0000 0.70890  0.94590  0.68560  Biso   1.000  N
  N8       1.0000 0.29110  0.44590  0.81440  Biso   1.000  N
  C169     1.0000 0.38900  0.07700  0.31410  Biso   1.000  C
  C170     1.0000 0.61100  0.57700  0.18590  Biso   1.000  C
  C171     1.0000 0.61100  0.92300  0.68590  Biso   1.000  C
  C172     1.0000 0.38900  0.42300  0.81410  Biso   1.000  C
  H129     1.0000 0.41820  0.99780  0.30760  Biso   1.000  H
  H130     1.0000 0.58180  0.49780  0.19240  Biso   1.000  H
  H131     1.0000 0.58180  0.00220  0.69240  Biso   1.000  H
  H132     1.0000 0.41820  0.50220  0.80760  Biso   1.000  H
  H133     1.0000 0.39420  0.13860  0.28880  Biso   1.000  H
  H134     1.0000 0.60580  0.63860  0.21120  Biso   1.000  H
  H135     1.0000 0.60580  0.86140  0.71120  Biso   1.000  H
  H136     1.0000 0.39420  0.36140  0.78880  Biso   1.000  H
  H137     1.0000 0.41960  0.10980  0.34590  Biso   1.000  H
  H138     1.0000 0.58040  0.60980  0.15410  Biso   1.000  H
  H139     1.0000 0.58040  0.89020  0.65410  Biso   1.000  H
  H140     1.0000 0.41960  0.39020  0.84590  Biso   1.000  H
  C173     1.0000 0.25300  0.92900  0.30660  Biso   1.000  C
  C174     1.0000 0.74700  0.42900  0.19340  Biso   1.000  C
  C175     1.0000 0.74700  0.07100  0.69340  Biso   1.000  C
  C176     1.0000 0.25300  0.57100  0.80660  Biso   1.000  C
  H141     1.0000 0.30000  0.87010  0.30100  Biso   1.000  H
  H142     1.0000 0.70000  0.37010  0.19900  Biso   1.000  H
  H143     1.0000 0.70000  0.12990  0.69900  Biso   1.000  H
  H144     1.0000 0.30000  0.62990  0.80100  Biso   1.000  H
  H145     1.0000 0.22930  0.90270  0.33540  Biso   1.000  H
  H146     1.0000 0.77070  0.40270  0.16460  Biso   1.000  H
  H147     1.0000 0.77070  0.09730  0.66460  Biso   1.000  H
  H148     1.0000 0.22930  0.59730  0.83540  Biso   1.000  H
  H149     1.0000 0.20210  0.92980  0.27820  Biso   1.000  H
  H150     1.0000 0.79790  0.42980  0.22180  Biso   1.000  H
  H151     1.0000 0.79790  0.07020  0.72180  Biso   1.000  H
  H152     1.0000 0.20210  0.57020  0.77820  Biso   1.000  H
  Cu1      1.0000 0.26046  0.42986  0.28292  Biso   1.000  Cu
  Cu2      1.0000 0.73954  0.92986  0.21708  Biso   1.000  Cu
  Cu3      1.0000 0.73954  0.57014  0.71708  Biso   1.000  Cu
  Cu4      1.0000 0.26046  0.07014  0.78292  Biso   1.000  Cu
  Cu5      1.0000 0.23815  0.61013  0.21664  Biso   1.000  Cu
  Cu6      1.0000 0.76185  0.11013  0.28336  Biso   1.000  Cu
  Cu7      1.0000 0.76185  0.38987  0.78336  Biso   1.000  Cu
  Cu8      1.0000 0.23815  0.88987  0.71664  Biso   1.000  Cu
  O9       1.0000 0.31230  0.51260  0.18010  Biso   1.000  O
  O10      1.0000 0.68770  0.01260  0.31990  Biso   1.000  O
  O11      1.0000 0.68770  0.48740  0.81990  Biso   1.000  O
  O12      1.0000 0.31230  0.98740  0.68010  Biso   1.000  O
  O13      1.0000 0.33660  0.36560  0.23900  Biso   1.000  O
  O14      1.0000 0.66340  0.86560  0.26100  Biso   1.000  O
  O15      1.0000 0.66340  0.63440  0.76100  Biso   1.000  O
  O16      1.0000 0.33660  0.13440  0.73900  Biso   1.000  O
  O17      1.0000 0.63530  0.02300  0.18170  Biso   1.000  O
  O18      1.0000 0.36470  0.52300  0.31830  Biso   1.000  O
  O19      1.0000 0.36470  0.97700  0.81830  Biso   1.000  O
  O20      1.0000 0.63530  0.47700  0.68170  Biso   1.000  O
  O21      1.0000 0.65040  0.17140  0.24010  Biso   1.000  O
  O22      1.0000 0.34960  0.67140  0.25990  Biso   1.000  O
  O23      1.0000 0.34960  0.82860  0.75990  Biso   1.000  O
  O24      1.0000 0.65040  0.32860  0.74010  Biso   1.000  O
  O25      1.0000 0.13120  0.52150  0.18060  Biso   1.000  O
  O26      1.0000 0.86880  0.02150  0.31940  Biso   1.000  O
  O27      1.0000 0.86880  0.47850  0.81940  Biso   1.000  O
  O28      1.0000 0.13120  0.97850  0.68060  Biso   1.000  O
  O29      1.0000 0.14810  0.37030  0.23870  Biso   1.000  O
  O30      1.0000 0.85190  0.87030  0.26130  Biso   1.000  O
  O31      1.0000 0.85190  0.62970  0.76130  Biso   1.000  O
  O32      1.0000 0.14810  0.12970  0.73870  Biso   1.000  O
  O33      1.0000 0.81670  0.02620  0.17970  Biso   1.000  O
  O34      1.0000 0.18330  0.52620  0.32030  Biso   1.000  O
  O35      1.0000 0.18330  0.97380  0.82030  Biso   1.000  O
  O36      1.0000 0.81670  0.47380  0.67970  Biso   1.000  O
  O37      1.0000 0.83830  0.17340  0.23890  Biso   1.000  O
  O38      1.0000 0.16170  0.67340  0.26110  Biso   1.000  O
  O39      1.0000 0.16170  0.82660  0.76110  Biso   1.000  O
  O40      1.0000 0.83830  0.32660  0.73890  Biso   1.000  O
  C177     1.0000 0.38700  0.34600  0.12330  Biso   1.000  C
  C178     1.0000 0.61300  0.84600  0.37670  Biso   1.000  C
  C179     1.0000 0.61300  0.65400  0.87670  Biso   1.000  C
  C180     1.0000 0.38700  0.15400  0.62330  Biso   1.000  C
  H153     1.0000 0.34200  0.40400  0.10780  Biso   1.000  H
  H154     1.0000 0.65800  0.90400  0.39220  Biso   1.000  H
  H155     1.0000 0.65800  0.59600  0.89220  Biso   1.000  H
  H156     1.0000 0.34200  0.09600  0.60780  Biso   1.000  H
  C181     1.0000 0.43200  0.27500  0.09650  Biso   1.000  C
  C182     1.0000 0.56800  0.77500  0.40350  Biso   1.000  C
  C183     1.0000 0.56800  0.72500  0.90350  Biso   1.000  C
  C184     1.0000 0.43200  0.22500  0.59650  Biso   1.000  C
  C185     1.0000 0.50700  0.19900  0.12220  Biso   1.000  C
  C186     1.0000 0.49300  0.69900  0.37780  Biso   1.000  C
  C187     1.0000 0.49300  0.80100  0.87780  Biso   1.000  C
  C188     1.0000 0.50700  0.30100  0.62220  Biso   1.000  C
  H157     1.0000 0.54380  0.15270  0.10390  Biso   1.000  H
  H158     1.0000 0.45620  0.65270  0.39610  Biso   1.000  H
  H159     1.0000 0.45620  0.84730  0.89610  Biso   1.000  H
  H160     1.0000 0.54380  0.34730  0.60390  Biso   1.000  H
  C189     1.0000 0.41840  0.28000  0.04410  Biso   1.000  C
  C190     1.0000 0.58160  0.78000  0.45590  Biso   1.000  C
  C191     1.0000 0.58160  0.72000  0.95590  Biso   1.000  C
  C192     1.0000 0.41840  0.22000  0.54410  Biso   1.000  C
  C193     1.0000 0.42690  0.40500  0.02190  Biso   1.000  C
  C194     1.0000 0.57310  0.90500  0.47810  Biso   1.000  C
  C195     1.0000 0.57310  0.59500  0.97810  Biso   1.000  C
  C196     1.0000 0.42690  0.09500  0.52190  Biso   1.000  C
  H161     1.0000 0.44370  0.47540  0.04240  Biso   1.000  H
  H162     1.0000 0.55630  0.97540  0.45760  Biso   1.000  H
  H163     1.0000 0.55630  0.52460  0.95760  Biso   1.000  H
  H164     1.0000 0.44370  0.02460  0.54240  Biso   1.000  H
  C197     1.0000 0.41040  0.42200  0.96910  Biso   1.000  C
  C198     1.0000 0.58960  0.92200  0.53090  Biso   1.000  C
  C199     1.0000 0.58960  0.57800  0.03090  Biso   1.000  C
  C200     1.0000 0.41040  0.07800  0.46910  Biso   1.000  C
  H165     1.0000 0.41570  0.50170  0.95450  Biso   1.000  H
  H166     1.0000 0.58430  0.00170  0.54550  Biso   1.000  H
  H167     1.0000 0.58430  0.49830  0.04550  Biso   1.000  H
  H168     1.0000 0.41570  0.99830  0.45450  Biso   1.000  H
  C201     1.0000 0.38600  0.31200  0.94190  Biso   1.000  C
  C202     1.0000 0.61400  0.81200  0.55810  Biso   1.000  C
  C203     1.0000 0.61400  0.68800  0.05810  Biso   1.000  C
  C204     1.0000 0.38600  0.18800  0.44190  Biso   1.000  C
  H169     1.0000 0.37430  0.31710  0.90750  Biso   1.000  H
  H170     1.0000 0.62570  0.81710  0.59250  Biso   1.000  H
  H171     1.0000 0.62570  0.68290  0.09250  Biso   1.000  H
  H172     1.0000 0.37430  0.18290  0.40750  Biso   1.000  H
  C205     1.0000 0.37840  0.19800  0.96250  Biso   1.000  C
  C206     1.0000 0.62160  0.69800  0.53750  Biso   1.000  C
  C207     1.0000 0.62160  0.80200  0.03750  Biso   1.000  C
  C208     1.0000 0.37840  0.30200  0.46250  Biso   1.000  C
  C209     1.0000 0.39620  0.19000  0.01540  Biso   1.000  C
  C210     1.0000 0.60380  0.69000  0.48460  Biso   1.000  C
  C211     1.0000 0.60380  0.81000  0.98460  Biso   1.000  C
  C212     1.0000 0.39620  0.31000  0.51540  Biso   1.000  C
  C213     1.0000 0.35470  0.09700  0.93410  Biso   1.000  C
  C214     1.0000 0.64530  0.59700  0.56590  Biso   1.000  C
  C215     1.0000 0.64530  0.90300  0.06590  Biso   1.000  C
  C216     1.0000 0.35470  0.40300  0.43410  Biso   1.000  C
  H173     1.0000 0.34360  0.10730  0.89980  Biso   1.000  H
  H174     1.0000 0.65640  0.60730  0.60020  Biso   1.000  H
  H175     1.0000 0.65640  0.89270  0.10020  Biso   1.000  H
  H176     1.0000 0.34360  0.39270  0.39980  Biso   1.000  H
  C217     1.0000 0.34500  0.96300  0.95570  Biso   1.000  C
  C218     1.0000 0.65500  0.46300  0.54430  Biso   1.000  C
  C219     1.0000 0.65500  0.03700  0.04430  Biso   1.000  C
  C220     1.0000 0.34500  0.53700  0.45570  Biso   1.000  C
  H177     1.0000 0.32810  0.89310  0.93480  Biso   1.000  H
  H178     1.0000 0.67190  0.39310  0.56520  Biso   1.000  H
  H179     1.0000 0.67190  0.10690  0.06520  Biso   1.000  H
  H180     1.0000 0.32810  0.60690  0.43480  Biso   1.000  H
  C221     1.0000 0.36070  0.94800  0.00630  Biso   1.000  C
  C222     1.0000 0.63930  0.44800  0.49370  Biso   1.000  C
  C223     1.0000 0.63930  0.05200  0.99370  Biso   1.000  C
  C224     1.0000 0.36070  0.55200  0.50630  Biso   1.000  C
  H181     1.0000 0.35540  0.86810  0.02110  Biso   1.000  H
  H182     1.0000 0.64460  0.36810  0.47890  Biso   1.000  H
  H183     1.0000 0.64460  0.13190  0.97890  Biso   1.000  H
  H184     1.0000 0.35540  0.63190  0.52110  Biso   1.000  H
  C225     1.0000 0.38490  0.05600  0.03350  Biso   1.000  C
  C226     1.0000 0.61510  0.55600  0.46650  Biso   1.000  C
  C227     1.0000 0.61510  0.94400  0.96650  Biso   1.000  C
  C228     1.0000 0.38490  0.44400  0.53350  Biso   1.000  C
  H185     1.0000 0.39580  0.04590  0.06780  Biso   1.000  H
  H186     1.0000 0.60420  0.54590  0.43220  Biso   1.000  H
  H187     1.0000 0.60420  0.95410  0.93220  Biso   1.000  H
  H188     1.0000 0.39580  0.45410  0.56780  Biso   1.000  H
  C229     1.0000 0.91000  0.30700  0.03640  Biso   1.000  C
  C230     1.0000 0.09000  0.80700  0.46360  Biso   1.000  C
  C231     1.0000 0.09000  0.69300  0.96360  Biso   1.000  C
  C232     1.0000 0.91000  0.19300  0.53640  Biso   1.000  C
  C233     1.0000 0.81600  0.34800  0.01620  Biso   1.000  C
  C234     1.0000 0.18400  0.84800  0.48380  Biso   1.000  C
  C235     1.0000 0.18400  0.65200  0.98380  Biso   1.000  C
  C236     1.0000 0.81600  0.15200  0.51620  Biso   1.000  C
  H189     1.0000 0.77570  0.36590  0.03760  Biso   1.000  H
  H190     1.0000 0.22430  0.86590  0.46240  Biso   1.000  H
  H191     1.0000 0.22430  0.63410  0.96240  Biso   1.000  H
  H192     1.0000 0.77570  0.13410  0.53760  Biso   1.000  H
  C237     1.0000 0.78400  0.36300  0.96390  Biso   1.000  C
  C238     1.0000 0.21600  0.86300  0.53610  Biso   1.000  C
  C239     1.0000 0.21600  0.63700  0.03610  Biso   1.000  C
  C240     1.0000 0.78400  0.13700  0.46390  Biso   1.000  C
  H193     1.0000 0.72170  0.37930  0.94930  Biso   1.000  H
  H194     1.0000 0.27830  0.87930  0.55070  Biso   1.000  H
  H195     1.0000 0.27830  0.62070  0.05070  Biso   1.000  H
  H196     1.0000 0.72170  0.12070  0.44930  Biso   1.000  H
  C241     1.0000 0.85400  0.35200  0.93770  Biso   1.000  C
  C242     1.0000 0.14600  0.85200  0.56230  Biso   1.000  C
  C243     1.0000 0.14600  0.64800  0.06230  Biso   1.000  C
  C244     1.0000 0.85400  0.14800  0.43770  Biso   1.000  C
  H197     1.0000 0.84030  0.37390  0.90420  Biso   1.000  H
  H198     1.0000 0.15970  0.87390  0.59580  Biso   1.000  H
  H199     1.0000 0.15970  0.62610  0.09580  Biso   1.000  H
  H200     1.0000 0.84030  0.12610  0.40420  Biso   1.000  H
  C245     1.0000 0.93900  0.31100  0.95610  Biso   1.000  C
  C246     1.0000 0.06100  0.81100  0.54390  Biso   1.000  C
  C247     1.0000 0.06100  0.68900  0.04390  Biso   1.000  C
  C248     1.0000 0.93900  0.18900  0.45610  Biso   1.000  C
  C249     1.0000 0.96600  0.29500  0.00860  Biso   1.000  C
  C250     1.0000 0.03400  0.79500  0.49140  Biso   1.000  C
  C251     1.0000 0.03400  0.70500  0.99140  Biso   1.000  C
  C252     1.0000 0.96600  0.20500  0.50860  Biso   1.000  C
  C253     1.0000 0.99600  0.28000  0.92600  Biso   1.000  C
  C254     1.0000 0.00400  0.78000  0.57400  Biso   1.000  C
  C255     1.0000 0.00400  0.72000  0.07400  Biso   1.000  C
  C256     1.0000 0.99600  0.22000  0.42600  Biso   1.000  C
  H201     1.0000 0.97730  0.30120  0.89260  Biso   1.000  H
  H202     1.0000 0.02270  0.80120  0.60740  Biso   1.000  H
  H203     1.0000 0.02270  0.69880  0.10740  Biso   1.000  H
  H204     1.0000 0.97730  0.19880  0.39260  Biso   1.000  H
  C257     1.0000 0.09000  0.21300  0.94270  Biso   1.000  C
  C258     1.0000 0.91000  0.71300  0.55730  Biso   1.000  C
  C259     1.0000 0.91000  0.78700  0.05730  Biso   1.000  C
  C260     1.0000 0.09000  0.28700  0.44270  Biso   1.000  C
  H205     1.0000 0.12490  0.18470  0.91970  Biso   1.000  H
  H206     1.0000 0.87510  0.68470  0.58030  Biso   1.000  H
  H207     1.0000 0.87510  0.81530  0.08030  Biso   1.000  H
  H208     1.0000 0.12490  0.31530  0.41970  Biso   1.000  H
  C261     1.0000 0.12200  0.19400  0.99290  Biso   1.000  C
  C262     1.0000 0.87800  0.69400  0.50710  Biso   1.000  C
  C263     1.0000 0.87800  0.80600  0.00710  Biso   1.000  C
  C264     1.0000 0.12200  0.30600  0.49290  Biso   1.000  C
  H209     1.0000 0.17920  0.15470  0.00560  Biso   1.000  H
  H210     1.0000 0.82080  0.65470  0.49440  Biso   1.000  H
  H211     1.0000 0.82080  0.84530  0.99440  Biso   1.000  H
  H212     1.0000 0.17920  0.34530  0.50560  Biso   1.000  H
  C265     1.0000 0.06300  0.23800  0.02290  Biso   1.000  C
  C266     1.0000 0.93700  0.73800  0.47710  Biso   1.000  C
  C267     1.0000 0.93700  0.76200  0.97710  Biso   1.000  C
  C268     1.0000 0.06300  0.26200  0.52290  Biso   1.000  C
  H213     1.0000 0.08680  0.23100  0.05690  Biso   1.000  H
  H214     1.0000 0.91320  0.73100  0.44310  Biso   1.000  H
  H215     1.0000 0.91320  0.76900  0.94310  Biso   1.000  H
  H216     1.0000 0.08680  0.26900  0.55690  Biso   1.000  H
  C269     1.0000 0.18460  0.87370  0.17790  Biso   1.000  C
  C270     1.0000 0.81540  0.37370  0.32210  Biso   1.000  C
  C271     1.0000 0.81540  0.12630  0.82210  Biso   1.000  C
  C272     1.0000 0.18460  0.62630  0.67790  Biso   1.000  C
  C273     1.0000 0.08050  0.86300  0.17140  Biso   1.000  C
  C274     1.0000 0.91950  0.36300  0.32860  Biso   1.000  C
  C275     1.0000 0.91950  0.13700  0.82860  Biso   1.000  C
  C276     1.0000 0.08050  0.63700  0.67140  Biso   1.000  C
  H217     1.0000 0.05420  0.94600  0.17460  Biso   1.000  H
  H218     1.0000 0.94580  0.44600  0.32540  Biso   1.000  H
  H219     1.0000 0.94580  0.05400  0.82540  Biso   1.000  H
  H220     1.0000 0.05420  0.55400  0.67460  Biso   1.000  H
  H221     1.0000 0.05520  0.82810  0.13910  Biso   1.000  H
  H222     1.0000 0.94480  0.32810  0.36090  Biso   1.000  H
  H223     1.0000 0.94480  0.17190  0.86090  Biso   1.000  H
  H224     1.0000 0.05520  0.67190  0.63910  Biso   1.000  H
  H225     1.0000 0.06540  0.80630  0.19640  Biso   1.000  H
  H226     1.0000 0.93460  0.30630  0.30360  Biso   1.000  H
  H227     1.0000 0.93460  0.19370  0.80360  Biso   1.000  H
  H228     1.0000 0.06540  0.69370  0.69640  Biso   1.000  H
  N9       1.0000 0.22100  0.98830  0.17220  Biso   1.000  N
  N10      1.0000 0.77900  0.48830  0.32780  Biso   1.000  N
  N11      1.0000 0.77900  0.01170  0.82780  Biso   1.000  N
  N12      1.0000 0.22100  0.51170  0.67220  Biso   1.000  N
  C277     1.0000 0.32000  0.99600  0.17460  Biso   1.000  C
  C278     1.0000 0.68000  0.49600  0.32540  Biso   1.000  C
  C279     1.0000 0.68000  0.00400  0.82540  Biso   1.000  C
  C280     1.0000 0.32000  0.50400  0.67460  Biso   1.000  C
  H229     1.0000 0.33700  0.08410  0.16990  Biso   1.000  H
  H230     1.0000 0.66300  0.58410  0.33010  Biso   1.000  H
  H231     1.0000 0.66300  0.91590  0.83010  Biso   1.000  H
  H232     1.0000 0.33700  0.41590  0.66990  Biso   1.000  H
  H233     1.0000 0.35260  0.96680  0.20650  Biso   1.000  H
  H234     1.0000 0.64740  0.46680  0.29350  Biso   1.000  H
  H235     1.0000 0.64740  0.03320  0.79350  Biso   1.000  H
  H236     1.0000 0.35260  0.53320  0.70650  Biso   1.000  H
  H237     1.0000 0.33670  0.94380  0.14900  Biso   1.000  H
  H238     1.0000 0.66330  0.44380  0.35100  Biso   1.000  H
  H239     1.0000 0.66330  0.05620  0.85100  Biso   1.000  H
  H240     1.0000 0.33670  0.55620  0.64900  Biso   1.000  H
  C281     1.0000 0.16500  0.10100  0.17130  Biso   1.000  C
  C282     1.0000 0.83500  0.60100  0.32870  Biso   1.000  C
  C283     1.0000 0.83500  0.89900  0.82870  Biso   1.000  C
  C284     1.0000 0.16500  0.39900  0.67130  Biso   1.000  C
  H241     1.0000 0.20200  0.17480  0.16690  Biso   1.000  H
  H242     1.0000 0.79800  0.67480  0.33310  Biso   1.000  H
  H243     1.0000 0.79800  0.82520  0.83310  Biso   1.000  H
  H244     1.0000 0.20200  0.32520  0.66690  Biso   1.000  H
  H245     1.0000 0.11230  0.09510  0.14430  Biso   1.000  H
  H246     1.0000 0.88770  0.59510  0.35570  Biso   1.000  H
  H247     1.0000 0.88770  0.90490  0.85570  Biso   1.000  H
  H248     1.0000 0.11230  0.40490  0.64430  Biso   1.000  H
  H249     1.0000 0.14400  0.10790  0.20200  Biso   1.000  H
  H250     1.0000 0.85600  0.60790  0.29800  Biso   1.000  H
  H251     1.0000 0.85600  0.89210  0.79800  Biso   1.000  H
  H252     1.0000 0.14400  0.39210  0.70200  Biso   1.000  H
  C285     1.0000 0.31340  0.16230  0.32250  Biso   1.000  C
  C286     1.0000 0.68660  0.66230  0.17750  Biso   1.000  C
  C287     1.0000 0.68660  0.83770  0.67750  Biso   1.000  C
  C288     1.0000 0.31340  0.33770  0.82250  Biso   1.000  C
  C289     1.0000 0.41600  0.17400  0.32490  Biso   1.000  C
  C290     1.0000 0.58400  0.67400  0.17510  Biso   1.000  C
  C291     1.0000 0.58400  0.82600  0.67510  Biso   1.000  C
  C292     1.0000 0.41600  0.32600  0.82490  Biso   1.000  C
  H253     1.0000 0.44250  0.08970  0.32330  Biso   1.000  H
  H254     1.0000 0.55750  0.58970  0.17670  Biso   1.000  H
  H255     1.0000 0.55750  0.91030  0.67670  Biso   1.000  H
  H256     1.0000 0.44250  0.41030  0.82330  Biso   1.000  H
  H257     1.0000 0.42710  0.22470  0.29750  Biso   1.000  H
  H258     1.0000 0.57290  0.72470  0.20250  Biso   1.000  H
  H259     1.0000 0.57290  0.77530  0.70250  Biso   1.000  H
  H260     1.0000 0.42710  0.27530  0.79750  Biso   1.000  H
  H261     1.0000 0.44490  0.21450  0.35550  Biso   1.000  H
  H262     1.0000 0.55510  0.71450  0.14450  Biso   1.000  H
  H263     1.0000 0.55510  0.78550  0.64450  Biso   1.000  H
  H264     1.0000 0.44490  0.28550  0.85550  Biso   1.000  H
  N13      1.0000 0.27700  0.04850  0.32900  Biso   1.000  N
  N14      1.0000 0.72300  0.54850  0.17100  Biso   1.000  N
  N15      1.0000 0.72300  0.95150  0.67100  Biso   1.000  N
  N16      1.0000 0.27700  0.45150  0.82900  Biso   1.000  N
  C293     1.0000 0.17600  0.04500  0.31880  Biso   1.000  C
  C294     1.0000 0.82400  0.54500  0.18120  Biso   1.000  C
  C295     1.0000 0.82400  0.95500  0.68120  Biso   1.000  C
  C296     1.0000 0.17600  0.45500  0.81880  Biso   1.000  C
  H265     1.0000 0.15530  0.95950  0.32430  Biso   1.000  H
  H266     1.0000 0.84470  0.45950  0.17570  Biso   1.000  H
  H267     1.0000 0.84470  0.04050  0.67570  Biso   1.000  H
  H268     1.0000 0.15530  0.54050  0.82430  Biso   1.000  H
  H269     1.0000 0.15300  0.10400  0.34040  Biso   1.000  H
  H270     1.0000 0.84700  0.60400  0.15960  Biso   1.000  H
  H271     1.0000 0.84700  0.89600  0.65960  Biso   1.000  H
  H272     1.0000 0.15300  0.39600  0.84040  Biso   1.000  H
  H273     1.0000 0.15260  0.06910  0.28490  Biso   1.000  H
  H274     1.0000 0.84740  0.56910  0.21510  Biso   1.000  H
  H275     1.0000 0.84740  0.93090  0.71510  Biso   1.000  H
  H276     1.0000 0.15260  0.43090  0.78490  Biso   1.000  H
  C297     1.0000 0.32800  0.93200  0.33120  Biso   1.000  C
  C298     1.0000 0.67200  0.43200  0.16880  Biso   1.000  C
  C299     1.0000 0.67200  0.06800  0.66880  Biso   1.000  C
  C300     1.0000 0.32800  0.56800  0.83120  Biso   1.000  C
  H277     1.0000 0.28860  0.86150  0.33610  Biso   1.000  H
  H278     1.0000 0.71140  0.36150  0.16390  Biso   1.000  H
  H279     1.0000 0.71140  0.13850  0.66390  Biso   1.000  H
  H280     1.0000 0.28860  0.63850  0.83610  Biso   1.000  H
  H281     1.0000 0.34960  0.92000  0.30070  Biso   1.000  H
  H282     1.0000 0.65040  0.42000  0.19930  Biso   1.000  H
  H283     1.0000 0.65040  0.08000  0.69930  Biso   1.000  H
  H284     1.0000 0.34960  0.58000  0.80070  Biso   1.000  H
  H285     1.0000 0.38110  0.93550  0.35830  Biso   1.000  H
  H286     1.0000 0.61890  0.43550  0.14170  Biso   1.000  H
  H287     1.0000 0.61890  0.06450  0.64170  Biso   1.000  H
  H288     1.0000 0.38110  0.56450  0.85830  Biso   1.000  H
