data_image0
_cell_length_a       14.47
_cell_length_b       18.537
_cell_length_c       37.982
_cell_angle_alpha    90
_cell_angle_beta     90
_cell_angle_gamma    90

_symmetry_space_group_name_H-M    "P 1"
_symmetry_int_tables_number       1

loop_
  _symmetry_equiv_pos_as_xyz
  'x, y, z'

loop_
  _atom_site_label
  _atom_site_occupancy
  _atom_site_fract_x
  _atom_site_fract_y
  _atom_site_fract_z
  _atom_site_thermal_displace_type
  _atom_site_B_iso_or_equiv
  _atom_site_type_symbol
  Cu1      1.0000 0.93241  0.06781  0.41987  Biso   1.000  Cu
  Cu2      1.0000 0.43241  0.56781  0.08013  Biso   1.000  Cu
  Cu3      1.0000 0.43241  0.93219  0.58013  Biso   1.000  Cu
  Cu4      1.0000 0.93241  0.43219  0.91987  Biso   1.000  Cu
  Cu5      1.0000 0.92832  0.43175  0.66973  Biso   1.000  Cu
  Cu6      1.0000 0.42832  0.93175  0.83027  Biso   1.000  Cu
  Cu7      1.0000 0.42832  0.56825  0.33027  Biso   1.000  Cu
  Cu8      1.0000 0.92832  0.06825  0.16973  Biso   1.000  Cu
  Cu9      1.0000 0.92199  0.42678  0.41929  Biso   1.000  Cu
  Cu10     1.0000 0.42199  0.92678  0.08071  Biso   1.000  Cu
  Cu11     1.0000 0.42199  0.57322  0.58071  Biso   1.000  Cu
  Cu12     1.0000 0.92199  0.07322  0.91929  Biso   1.000  Cu
  Cu13     1.0000 0.92695  0.42719  0.16963  Biso   1.000  Cu
  Cu14     1.0000 0.42695  0.92719  0.33037  Biso   1.000  Cu
  Cu15     1.0000 0.42695  0.57281  0.83037  Biso   1.000  Cu
  Cu16     1.0000 0.92695  0.07281  0.66963  Biso   1.000  Cu
  Mn1      1.0000 0.74802  0.03586  0.29481  Biso   1.000  Mn
  Mn2      1.0000 0.24802  0.53586  0.20519  Biso   1.000  Mn
  Mn3      1.0000 0.24802  0.96414  0.70519  Biso   1.000  Mn
  Mn4      1.0000 0.74802  0.46414  0.79481  Biso   1.000  Mn
  Mn5      1.0000 0.10551  0.46415  0.54365  Biso   1.000  Mn
  Mn6      1.0000 0.60551  0.96415  0.95635  Biso   1.000  Mn
  Mn7      1.0000 0.60551  0.53585  0.45635  Biso   1.000  Mn
  Mn8      1.0000 0.10551  0.03585  0.04365  Biso   1.000  Mn
  Mn9      1.0000 0.73926  0.45602  0.29353  Biso   1.000  Mn
  Mn10     1.0000 0.23926  0.95602  0.20647  Biso   1.000  Mn
  Mn11     1.0000 0.23926  0.54398  0.70647  Biso   1.000  Mn
  Mn12     1.0000 0.73926  0.04398  0.79353  Biso   1.000  Mn
  Mn13     1.0000 0.11381  0.04168  0.54536  Biso   1.000  Mn
  Mn14     1.0000 0.61381  0.54168  0.95464  Biso   1.000  Mn
  Mn15     1.0000 0.61381  0.95832  0.45464  Biso   1.000  Mn
  Mn16     1.0000 0.11381  0.45832  0.04536  Biso   1.000  Mn
  C1       1.0000 0.82620  0.01230  0.36551  Biso   1.000  C
  C2       1.0000 0.32620  0.51230  0.13449  Biso   1.000  C
  C3       1.0000 0.32620  0.98770  0.63449  Biso   1.000  C
  C4       1.0000 0.82620  0.48770  0.86551  Biso   1.000  C
  C5       1.0000 0.86410  0.08310  0.35209  Biso   1.000  C
  C6       1.0000 0.36410  0.58310  0.14791  Biso   1.000  C
  C7       1.0000 0.36410  0.91690  0.64791  Biso   1.000  C
  C8       1.0000 0.86410  0.41690  0.85209  Biso   1.000  C
  C9       1.0000 0.96390  0.18530  0.36437  Biso   1.000  C
  C10      1.0000 0.46390  0.68530  0.13563  Biso   1.000  C
  C11      1.0000 0.46390  0.81470  0.63563  Biso   1.000  C
  C12      1.0000 0.96390  0.31470  0.86437  Biso   1.000  C
  C13      1.0000 0.92080  0.24756  0.37119  Biso   1.000  C
  C14      1.0000 0.42080  0.74756  0.12881  Biso   1.000  C
  C15      1.0000 0.42080  0.75244  0.62881  Biso   1.000  C
  C16      1.0000 0.92080  0.25244  0.87119  Biso   1.000  C
  H1       1.0000 0.86210  0.24650  0.38120  Biso   1.000  H
  H2       1.0000 0.36210  0.74650  0.11880  Biso   1.000  H
  H3       1.0000 0.36210  0.75350  0.61880  Biso   1.000  H
  H4       1.0000 0.86210  0.25350  0.88120  Biso   1.000  H
  C17      1.0000 0.96050  0.31230  0.36387  Biso   1.000  C
  C18      1.0000 0.46050  0.81230  0.13613  Biso   1.000  C
  C19      1.0000 0.46050  0.68770  0.63613  Biso   1.000  C
  C20      1.0000 0.96050  0.18770  0.86387  Biso   1.000  C
  C21      1.0000 0.04690  0.31640  0.34871  Biso   1.000  C
  C22      1.0000 0.54690  0.81640  0.15129  Biso   1.000  C
  C23      1.0000 0.54690  0.68360  0.65129  Biso   1.000  C
  C24      1.0000 0.04690  0.18360  0.84871  Biso   1.000  C
  H5       1.0000 0.07440  0.36030  0.34330  Biso   1.000  H
  H6       1.0000 0.57440  0.86030  0.15670  Biso   1.000  H
  H7       1.0000 0.57440  0.63970  0.65670  Biso   1.000  H
  H8       1.0000 0.07440  0.13970  0.84330  Biso   1.000  H
  C25      1.0000 0.09110  0.24970  0.34190  Biso   1.000  C
  C26      1.0000 0.59110  0.74970  0.15810  Biso   1.000  C
  C27      1.0000 0.59110  0.75030  0.65810  Biso   1.000  C
  C28      1.0000 0.09110  0.25030  0.84190  Biso   1.000  C
  H9       1.0000 0.15030  0.25020  0.33240  Biso   1.000  H
  H10      1.0000 0.65030  0.75020  0.16760  Biso   1.000  H
  H11      1.0000 0.65030  0.74980  0.66760  Biso   1.000  H
  H12      1.0000 0.15030  0.24980  0.83240  Biso   1.000  H
  C29      1.0000 0.04910  0.18270  0.34909  Biso   1.000  C
  C30      1.0000 0.54910  0.68270  0.15091  Biso   1.000  C
  C31      1.0000 0.54910  0.81730  0.65091  Biso   1.000  C
  C32      1.0000 0.04910  0.31730  0.84909  Biso   1.000  C
  H13      1.0000 0.07780  0.13920  0.34370  Biso   1.000  H
  H14      1.0000 0.57780  0.63920  0.15630  Biso   1.000  H
  H15      1.0000 0.57780  0.86080  0.65630  Biso   1.000  H
  H16      1.0000 0.07780  0.36080  0.84370  Biso   1.000  H
  C33      1.0000 0.85640  0.40910  0.35138  Biso   1.000  C
  C34      1.0000 0.35640  0.90910  0.14862  Biso   1.000  C
  C35      1.0000 0.35640  0.59090  0.64862  Biso   1.000  C
  C36      1.0000 0.85640  0.09090  0.85138  Biso   1.000  C
  C37      1.0000 0.81470  0.47890  0.36462  Biso   1.000  C
  C38      1.0000 0.31470  0.97890  0.13538  Biso   1.000  C
  C39      1.0000 0.31470  0.52110  0.63538  Biso   1.000  C
  C40      1.0000 0.81470  0.02110  0.86462  Biso   1.000  C
  C41      1.0000 0.87080  0.01780  0.23442  Biso   1.000  C
  C42      1.0000 0.37080  0.51780  0.26558  Biso   1.000  C
  C43      1.0000 0.37080  0.98220  0.76558  Biso   1.000  C
  C44      1.0000 0.87080  0.48220  0.73442  Biso   1.000  C
  C45      1.0000 0.80350  0.08370  0.22702  Biso   1.000  C
  C46      1.0000 0.30350  0.58370  0.27298  Biso   1.000  C
  C47      1.0000 0.30350  0.91630  0.77298  Biso   1.000  C
  C48      1.0000 0.80350  0.41630  0.72702  Biso   1.000  C
  C49      1.0000 0.78090  0.18060  0.18909  Biso   1.000  C
  C50      1.0000 0.28090  0.68060  0.31091  Biso   1.000  C
  C51      1.0000 0.28090  0.81940  0.81091  Biso   1.000  C
  C52      1.0000 0.78090  0.31940  0.68909  Biso   1.000  C
  C53      1.0000 0.69220  0.17940  0.18000  Biso   1.000  C
  C54      1.0000 0.19220  0.67940  0.32000  Biso   1.000  C
  C55      1.0000 0.19220  0.82060  0.82000  Biso   1.000  C
  C56      1.0000 0.69220  0.32060  0.68000  Biso   1.000  C
  H17      1.0000 0.66350  0.13490  0.17700  Biso   1.000  H
  H18      1.0000 0.16350  0.63490  0.32300  Biso   1.000  H
  H19      1.0000 0.16350  0.86510  0.82300  Biso   1.000  H
  H20      1.0000 0.66350  0.36510  0.67700  Biso   1.000  H
  C57      1.0000 0.63810  0.24440  0.17450  Biso   1.000  C
  C58      1.0000 0.13810  0.74440  0.32550  Biso   1.000  C
  C59      1.0000 0.13810  0.75560  0.82550  Biso   1.000  C
  C60      1.0000 0.63810  0.25560  0.67450  Biso   1.000  C
  H21      1.0000 0.57580  0.24390  0.16840  Biso   1.000  H
  H22      1.0000 0.07580  0.74390  0.33160  Biso   1.000  H
  H23      1.0000 0.07580  0.75610  0.83160  Biso   1.000  H
  H24      1.0000 0.57580  0.25610  0.66840  Biso   1.000  H
  C61      1.0000 0.69220  0.31170  0.17963  Biso   1.000  C
  C62      1.0000 0.19220  0.81170  0.32037  Biso   1.000  C
  C63      1.0000 0.19220  0.68830  0.82037  Biso   1.000  C
  C64      1.0000 0.69220  0.18830  0.67963  Biso   1.000  C
  H25      1.0000 0.66330  0.35600  0.17630  Biso   1.000  H
  H26      1.0000 0.16330  0.85600  0.32370  Biso   1.000  H
  H27      1.0000 0.16330  0.64400  0.82370  Biso   1.000  H
  H28      1.0000 0.66330  0.14400  0.67630  Biso   1.000  H
  C65      1.0000 0.78120  0.31040  0.18890  Biso   1.000  C
  C66      1.0000 0.28120  0.81040  0.31110  Biso   1.000  C
  C67      1.0000 0.28120  0.68960  0.81110  Biso   1.000  C
  C68      1.0000 0.78120  0.18960  0.68890  Biso   1.000  C
  C69      1.0000 0.83180  0.24660  0.19431  Biso   1.000  C
  C70      1.0000 0.33180  0.74660  0.30569  Biso   1.000  C
  C71      1.0000 0.33180  0.75340  0.80569  Biso   1.000  C
  C72      1.0000 0.83180  0.25340  0.69431  Biso   1.000  C
  H29      1.0000 0.89380  0.24700  0.20080  Biso   1.000  H
  H30      1.0000 0.39380  0.74700  0.29920  Biso   1.000  H
  H31      1.0000 0.39380  0.75300  0.79920  Biso   1.000  H
  H32      1.0000 0.89380  0.25300  0.70080  Biso   1.000  H
  C73      1.0000 0.80080  0.40840  0.22623  Biso   1.000  C
  C74      1.0000 0.30080  0.90840  0.27377  Biso   1.000  C
  C75      1.0000 0.30080  0.59160  0.77377  Biso   1.000  C
  C76      1.0000 0.80080  0.09160  0.72623  Biso   1.000  C
  C77      1.0000 0.86760  0.47350  0.23439  Biso   1.000  C
  C78      1.0000 0.36760  0.97350  0.26561  Biso   1.000  C
  C79      1.0000 0.36760  0.52650  0.76561  Biso   1.000  C
  C80      1.0000 0.86760  0.02650  0.73439  Biso   1.000  C
  C81      1.0000 0.03390  0.48100  0.61593  Biso   1.000  C
  C82      1.0000 0.53390  0.98100  0.88407  Biso   1.000  C
  C83      1.0000 0.53390  0.51900  0.38407  Biso   1.000  C
  C84      1.0000 0.03390  0.01900  0.11593  Biso   1.000  C
  C85      1.0000 0.99060  0.40930  0.60198  Biso   1.000  C
  C86      1.0000 0.49060  0.90930  0.89802  Biso   1.000  C
  C87      1.0000 0.49060  0.59070  0.39802  Biso   1.000  C
  C88      1.0000 0.99060  0.09070  0.10198  Biso   1.000  C
  C89      1.0000 0.89430  0.31780  0.61357  Biso   1.000  C
  C90      1.0000 0.39430  0.81780  0.88643  Biso   1.000  C
  C91      1.0000 0.39430  0.68220  0.38643  Biso   1.000  C
  C92      1.0000 0.89430  0.18220  0.11357  Biso   1.000  C
  C93      1.0000 0.80420  0.31260  0.59790  Biso   1.000  C
  C94      1.0000 0.30420  0.81260  0.90210  Biso   1.000  C
  C95      1.0000 0.30420  0.68740  0.40210  Biso   1.000  C
  C96      1.0000 0.80420  0.18740  0.09790  Biso   1.000  C
  H33      1.0000 0.77280  0.35540  0.59350  Biso   1.000  H
  H34      1.0000 0.27280  0.85540  0.90650  Biso   1.000  H
  H35      1.0000 0.27280  0.64460  0.40650  Biso   1.000  H
  H36      1.0000 0.77280  0.14460  0.09350  Biso   1.000  H
  C97      1.0000 0.76210  0.25070  0.58930  Biso   1.000  C
  C98      1.0000 0.26210  0.75070  0.91070  Biso   1.000  C
  C99      1.0000 0.26210  0.74930  0.41070  Biso   1.000  C
  C100     1.0000 0.76210  0.24930  0.08930  Biso   1.000  C
  H37      1.0000 0.70460  0.25090  0.57830  Biso   1.000  H
  H38      1.0000 0.20460  0.75090  0.92170  Biso   1.000  H
  H39      1.0000 0.20460  0.74910  0.42170  Biso   1.000  H
  H40      1.0000 0.70460  0.24910  0.07830  Biso   1.000  H
  C101     1.0000 0.80360  0.19040  0.59660  Biso   1.000  C
  C102     1.0000 0.30360  0.69040  0.90340  Biso   1.000  C
  C103     1.0000 0.30360  0.80960  0.40340  Biso   1.000  C
  C104     1.0000 0.80360  0.30960  0.09660  Biso   1.000  C
  H41      1.0000 0.77380  0.14760  0.59070  Biso   1.000  H
  H42      1.0000 0.27380  0.64760  0.90930  Biso   1.000  H
  H43      1.0000 0.27380  0.85240  0.40930  Biso   1.000  H
  H44      1.0000 0.77380  0.35240  0.09070  Biso   1.000  H
  C105     1.0000 0.89370  0.18560  0.61330  Biso   1.000  C
  C106     1.0000 0.39370  0.68560  0.88670  Biso   1.000  C
  C107     1.0000 0.39370  0.81440  0.38670  Biso   1.000  C
  C108     1.0000 0.89370  0.31440  0.11330  Biso   1.000  C
  C109     1.0000 0.94490  0.25150  0.62161  Biso   1.000  C
  C110     1.0000 0.44490  0.75150  0.87839  Biso   1.000  C
  C111     1.0000 0.44490  0.74850  0.37839  Biso   1.000  C
  C112     1.0000 0.94490  0.24850  0.12161  Biso   1.000  C
  H45      1.0000 0.00410  0.25130  0.63110  Biso   1.000  H
  H46      1.0000 0.50410  0.75130  0.86890  Biso   1.000  H
  H47      1.0000 0.50410  0.74870  0.36890  Biso   1.000  H
  H48      1.0000 0.00410  0.24870  0.13110  Biso   1.000  H
  C113     1.0000 0.99200  0.09330  0.60226  Biso   1.000  C
  C114     1.0000 0.49200  0.59330  0.89774  Biso   1.000  C
  C115     1.0000 0.49200  0.90670  0.39774  Biso   1.000  C
  C116     1.0000 0.99200  0.40670  0.10226  Biso   1.000  C
  C117     1.0000 0.03650  0.02180  0.61651  Biso   1.000  C
  C118     1.0000 0.53650  0.52180  0.88349  Biso   1.000  C
  C119     1.0000 0.53650  0.97820  0.38349  Biso   1.000  C
  C120     1.0000 0.03650  0.47820  0.11651  Biso   1.000  C
  C121     1.0000 0.98110  0.47910  0.48204  Biso   1.000  C
  C122     1.0000 0.48110  0.97910  0.01796  Biso   1.000  C
  C123     1.0000 0.48110  0.52090  0.51796  Biso   1.000  C
  C124     1.0000 0.98110  0.02090  0.98204  Biso   1.000  C
  C125     1.0000 0.04080  0.41220  0.47500  Biso   1.000  C
  C126     1.0000 0.54080  0.91220  0.02500  Biso   1.000  C
  C127     1.0000 0.54080  0.58780  0.52500  Biso   1.000  C
  C128     1.0000 0.04080  0.08780  0.97500  Biso   1.000  C
  C129     1.0000 0.07860  0.31510  0.43847  Biso   1.000  C
  C130     1.0000 0.57860  0.81510  0.06153  Biso   1.000  C
  C131     1.0000 0.57860  0.68490  0.56153  Biso   1.000  C
  C132     1.0000 0.07860  0.18490  0.93847  Biso   1.000  C
  C133     1.0000 0.03420  0.24884  0.44183  Biso   1.000  C
  C134     1.0000 0.53420  0.74884  0.05817  Biso   1.000  C
  C135     1.0000 0.53420  0.75116  0.55817  Biso   1.000  C
  C136     1.0000 0.03420  0.25116  0.94183  Biso   1.000  C
  H49      1.0000 0.97090  0.24790  0.44620  Biso   1.000  H
  H50      1.0000 0.47090  0.74790  0.05380  Biso   1.000  H
  H51      1.0000 0.47090  0.75210  0.55380  Biso   1.000  H
  H52      1.0000 0.97090  0.25210  0.94620  Biso   1.000  H
  C137     1.0000 0.08160  0.18420  0.43883  Biso   1.000  C
  C138     1.0000 0.58160  0.68420  0.06117  Biso   1.000  C
  C139     1.0000 0.58160  0.81580  0.56117  Biso   1.000  C
  C140     1.0000 0.08160  0.31580  0.93883  Biso   1.000  C
  C141     1.0000 0.17540  0.18680  0.42878  Biso   1.000  C
  C142     1.0000 0.67540  0.68680  0.07122  Biso   1.000  C
  C143     1.0000 0.67540  0.81320  0.57122  Biso   1.000  C
  C144     1.0000 0.17540  0.31320  0.92878  Biso   1.000  C
  H53      1.0000 0.21020  0.14510  0.42570  Biso   1.000  H
  H54      1.0000 0.71020  0.64510  0.07430  Biso   1.000  H
  H55      1.0000 0.71020  0.85490  0.57430  Biso   1.000  H
  H56      1.0000 0.21020  0.35490  0.92570  Biso   1.000  H
  C145     1.0000 0.21090  0.25163  0.42407  Biso   1.000  C
  C146     1.0000 0.71090  0.75163  0.07593  Biso   1.000  C
  C147     1.0000 0.71090  0.74837  0.57593  Biso   1.000  C
  C148     1.0000 0.21090  0.24837  0.92407  Biso   1.000  C
  H57      1.0000 0.27200  0.25250  0.41650  Biso   1.000  H
  H58      1.0000 0.77200  0.75250  0.08350  Biso   1.000  H
  H59      1.0000 0.77200  0.74750  0.58350  Biso   1.000  H
  H60      1.0000 0.27200  0.24750  0.91650  Biso   1.000  H
  C149     1.0000 0.17250  0.31480  0.42851  Biso   1.000  C
  C150     1.0000 0.67250  0.81480  0.07149  Biso   1.000  C
  C151     1.0000 0.67250  0.68520  0.57149  Biso   1.000  C
  C152     1.0000 0.17250  0.18520  0.92851  Biso   1.000  C
  H61      1.0000 0.20540  0.35740  0.42530  Biso   1.000  H
  H62      1.0000 0.70540  0.85740  0.07470  Biso   1.000  H
  H63      1.0000 0.70540  0.64260  0.57470  Biso   1.000  H
  H64      1.0000 0.20540  0.14260  0.92530  Biso   1.000  H
  C153     1.0000 0.04640  0.08770  0.47560  Biso   1.000  C
  C154     1.0000 0.54640  0.58770  0.02440  Biso   1.000  C
  C155     1.0000 0.54640  0.91230  0.52440  Biso   1.000  C
  C156     1.0000 0.04640  0.41230  0.97560  Biso   1.000  C
  C157     1.0000 0.99330  0.02010  0.48346  Biso   1.000  C
  C158     1.0000 0.49330  0.52010  0.01654  Biso   1.000  C
  C159     1.0000 0.49330  0.97990  0.51654  Biso   1.000  C
  C160     1.0000 0.99330  0.47990  0.98346  Biso   1.000  C
  Mn17     1.0000 0.95111  0.71472  0.47241  Biso   1.000  Mn
  Mn18     1.0000 0.45111  0.21472  0.02759  Biso   1.000  Mn
  Mn19     1.0000 0.45111  0.28528  0.52759  Biso   1.000  Mn
  Mn20     1.0000 0.95111  0.78528  0.97241  Biso   1.000  Mn
  Mn21     1.0000 0.40735  0.21243  0.27752  Biso   1.000  Mn
  Mn22     1.0000 0.90735  0.71243  0.22248  Biso   1.000  Mn
  Mn23     1.0000 0.90735  0.78757  0.72248  Biso   1.000  Mn
  Mn24     1.0000 0.40735  0.28757  0.77752  Biso   1.000  Mn
  O1       1.0000 0.86350  0.62660  0.49670  Biso   1.000  O
  O2       1.0000 0.36350  0.12660  0.00330  Biso   1.000  O
  O3       1.0000 0.36350  0.37340  0.50330  Biso   1.000  O
  O4       1.0000 0.86350  0.87340  0.99670  Biso   1.000  O
  O5       1.0000 0.05280  0.70400  0.51405  Biso   1.000  O
  O6       1.0000 0.55280  0.20400  0.98595  Biso   1.000  O
  O7       1.0000 0.55280  0.29600  0.48595  Biso   1.000  O
  O8       1.0000 0.05280  0.79600  0.01405  Biso   1.000  O
  O9       1.0000 0.84780  0.78690  0.49113  Biso   1.000  O
  O10      1.0000 0.34780  0.28690  0.00887  Biso   1.000  O
  O11      1.0000 0.34780  0.21310  0.50887  Biso   1.000  O
  O12      1.0000 0.84780  0.71310  0.99113  Biso   1.000  O
  O13      1.0000 0.49080  0.12050  0.25920  Biso   1.000  O
  O14      1.0000 0.99080  0.62050  0.24080  Biso   1.000  O
  O15      1.0000 0.99080  0.87950  0.74080  Biso   1.000  O
  O16      1.0000 0.49080  0.37950  0.75920  Biso   1.000  O
  O17      1.0000 0.30240  0.19650  0.23590  Biso   1.000  O
  O18      1.0000 0.80240  0.69650  0.26410  Biso   1.000  O
  O19      1.0000 0.80240  0.80350  0.76410  Biso   1.000  O
  O20      1.0000 0.30240  0.30350  0.73590  Biso   1.000  O
  O21      1.0000 0.52140  0.28090  0.26050  Biso   1.000  O
  O22      1.0000 0.02140  0.78090  0.23950  Biso   1.000  O
  O23      1.0000 0.02140  0.71910  0.73950  Biso   1.000  O
  O24      1.0000 0.52140  0.21910  0.76050  Biso   1.000  O
  O25      1.0000 0.38430  0.05210  0.42650  Biso   1.000  O
  O26      1.0000 0.88430  0.55210  0.07350  Biso   1.000  O
  O27      1.0000 0.88430  0.94790  0.57350  Biso   1.000  O
  O28      1.0000 0.38430  0.44790  0.92650  Biso   1.000  O
  O29      1.0000 0.33670  0.30490  0.29695  Biso   1.000  O
  O30      1.0000 0.83670  0.80490  0.20305  Biso   1.000  O
  O31      1.0000 0.83670  0.69510  0.70305  Biso   1.000  O
  O32      1.0000 0.33670  0.19510  0.79695  Biso   1.000  O
  O33      1.0000 0.21590  0.31420  0.26247  Biso   1.000  O
  O34      1.0000 0.71590  0.81420  0.23753  Biso   1.000  O
  O35      1.0000 0.71590  0.68580  0.73753  Biso   1.000  O
  O36      1.0000 0.21590  0.18580  0.76247  Biso   1.000  O
  O37      1.0000 0.16880  0.44610  0.29930  Biso   1.000  O
  O38      1.0000 0.66880  0.94610  0.20070  Biso   1.000  O
  O39      1.0000 0.66880  0.55390  0.70070  Biso   1.000  O
  O40      1.0000 0.16880  0.05390  0.79930  Biso   1.000  O
  O41      1.0000 0.89010  0.70200  0.42334  Biso   1.000  O
  O42      1.0000 0.39010  0.20200  0.07666  Biso   1.000  O
  O43      1.0000 0.39010  0.29800  0.57666  Biso   1.000  O
  O44      1.0000 0.89010  0.79800  0.92334  Biso   1.000  O
  O45      1.0000 0.91040  0.65460  0.36767  Biso   1.000  O
  O46      1.0000 0.41040  0.15460  0.13233  Biso   1.000  O
  O47      1.0000 0.41040  0.34540  0.63233  Biso   1.000  O
  O48      1.0000 0.91040  0.84540  0.86767  Biso   1.000  O
  O49      1.0000 0.03800  0.63460  0.44587  Biso   1.000  O
  O50      1.0000 0.53800  0.13460  0.05413  Biso   1.000  O
  O51      1.0000 0.53800  0.36540  0.55413  Biso   1.000  O
  O52      1.0000 0.03800  0.86540  0.94587  Biso   1.000  O
  O53      1.0000 0.02310  0.80540  0.45175  Biso   1.000  O
  O54      1.0000 0.52310  0.30540  0.04825  Biso   1.000  O
  O55      1.0000 0.52310  0.19460  0.54825  Biso   1.000  O
  O56      1.0000 0.02310  0.69460  0.95175  Biso   1.000  O
  O57      1.0000 0.14590  0.82150  0.48888  Biso   1.000  O
  O58      1.0000 0.64590  0.32150  0.01112  Biso   1.000  O
  O59      1.0000 0.64590  0.17850  0.51112  Biso   1.000  O
  O60      1.0000 0.14590  0.67850  0.98888  Biso   1.000  O
  O61      1.0000 0.18040  0.94380  0.45602  Biso   1.000  O
  O62      1.0000 0.68040  0.44380  0.04398  Biso   1.000  O
  O63      1.0000 0.68040  0.05620  0.54398  Biso   1.000  O
  O64      1.0000 0.18040  0.55620  0.95602  Biso   1.000  O
  O65      1.0000 0.47030  0.20160  0.32984  Biso   1.000  O
  O66      1.0000 0.97030  0.70160  0.17016  Biso   1.000  O
  O67      1.0000 0.97030  0.79840  0.67016  Biso   1.000  O
  O68      1.0000 0.47030  0.29840  0.82984  Biso   1.000  O
  O69      1.0000 0.46150  0.15370  0.38370  Biso   1.000  O
  O70      1.0000 0.96150  0.65370  0.11630  Biso   1.000  O
  O71      1.0000 0.96150  0.84630  0.61630  Biso   1.000  O
  O72      1.0000 0.46150  0.34630  0.88370  Biso   1.000  O
  O73      1.0000 0.31870  0.13590  0.30743  Biso   1.000  O
  O74      1.0000 0.81870  0.63590  0.19257  Biso   1.000  O
  O75      1.0000 0.81870  0.86410  0.69257  Biso   1.000  O
  O76      1.0000 0.31870  0.36410  0.80743  Biso   1.000  O
  N1       1.0000 0.30400  0.08140  0.35980  Biso   1.000  N
  N2       1.0000 0.80400  0.58140  0.14020  Biso   1.000  N
  N3       1.0000 0.80400  0.91860  0.64020  Biso   1.000  N
  N4       1.0000 0.30400  0.41860  0.85980  Biso   1.000  N
  H65      1.0000 0.32710  0.08010  0.38060  Biso   1.000  H
  H66      1.0000 0.82710  0.58010  0.11940  Biso   1.000  H
  H67      1.0000 0.82710  0.91990  0.61940  Biso   1.000  H
  H68      1.0000 0.32710  0.41990  0.88060  Biso   1.000  H
  N5       1.0000 0.05840  0.57350  0.39310  Biso   1.000  N
  N6       1.0000 0.55840  0.07350  0.10690  Biso   1.000  N
  N7       1.0000 0.55840  0.42650  0.60690  Biso   1.000  N
  N8       1.0000 0.05840  0.92650  0.89310  Biso   1.000  N
  H69      1.0000 0.03110  0.56850  0.37310  Biso   1.000  H
  H70      1.0000 0.53110  0.06850  0.12690  Biso   1.000  H
  H71      1.0000 0.53110  0.43150  0.62690  Biso   1.000  H
  H72      1.0000 0.03110  0.93150  0.87310  Biso   1.000  H
  N9       1.0000 0.27400  0.41310  0.34010  Biso   1.000  N
  N10      1.0000 0.77400  0.91310  0.15990  Biso   1.000  N
  N11      1.0000 0.77400  0.58690  0.65990  Biso   1.000  N
  N12      1.0000 0.27400  0.08690  0.84010  Biso   1.000  N
  H73      1.0000 0.32360  0.38830  0.34320  Biso   1.000  H
  H74      1.0000 0.82360  0.88830  0.15680  Biso   1.000  H
  H75      1.0000 0.82360  0.61170  0.65680  Biso   1.000  H
  H76      1.0000 0.32360  0.11170  0.84320  Biso   1.000  H
  N13      1.0000 0.09040  0.90830  0.40984  Biso   1.000  N
  N14      1.0000 0.59040  0.40830  0.09016  Biso   1.000  N
  N15      1.0000 0.59040  0.09170  0.59016  Biso   1.000  N
  N16      1.0000 0.09040  0.59170  0.90984  Biso   1.000  N
  H77      1.0000 0.04940  0.87600  0.40540  Biso   1.000  H
  H78      1.0000 0.54940  0.37600  0.09460  Biso   1.000  H
  H79      1.0000 0.54940  0.12400  0.59460  Biso   1.000  H
  H80      1.0000 0.04940  0.62400  0.90540  Biso   1.000  H
  C161     1.0000 0.26360  0.33730  0.28755  Biso   1.000  C
  C162     1.0000 0.76360  0.83730  0.21245  Biso   1.000  C
  C163     1.0000 0.76360  0.66270  0.71245  Biso   1.000  C
  C164     1.0000 0.26360  0.16270  0.78755  Biso   1.000  C
  C165     1.0000 0.22910  0.40420  0.30887  Biso   1.000  C
  C166     1.0000 0.72910  0.90420  0.19113  Biso   1.000  C
  C167     1.0000 0.72910  0.59580  0.69113  Biso   1.000  C
  C168     1.0000 0.22910  0.09580  0.80887  Biso   1.000  C
  C169     1.0000 0.24710  0.45900  0.36800  Biso   1.000  C
  C170     1.0000 0.74710  0.95900  0.13200  Biso   1.000  C
  C171     1.0000 0.74710  0.54100  0.63200  Biso   1.000  C
  C172     1.0000 0.24710  0.04100  0.86800  Biso   1.000  C
  C173     1.0000 0.16650  0.49690  0.36500  Biso   1.000  C
  C174     1.0000 0.66650  0.99690  0.13500  Biso   1.000  C
  C175     1.0000 0.66650  0.50310  0.63500  Biso   1.000  C
  C176     1.0000 0.16650  0.00310  0.86500  Biso   1.000  C
  H81      1.0000 0.13430  0.49770  0.34380  Biso   1.000  H
  H82      1.0000 0.63430  0.99770  0.15620  Biso   1.000  H
  H83      1.0000 0.63430  0.50230  0.65620  Biso   1.000  H
  H84      1.0000 0.13430  0.00230  0.84380  Biso   1.000  H
  C177     1.0000 0.13230  0.53540  0.39510  Biso   1.000  C
  C178     1.0000 0.63230  0.03540  0.10490  Biso   1.000  C
  C179     1.0000 0.63230  0.46460  0.60490  Biso   1.000  C
  C180     1.0000 0.13230  0.96460  0.89510  Biso   1.000  C
  C181     1.0000 0.18380  0.53240  0.42790  Biso   1.000  C
  C182     1.0000 0.68380  0.03240  0.07210  Biso   1.000  C
  C183     1.0000 0.68380  0.46760  0.57210  Biso   1.000  C
  C184     1.0000 0.18380  0.96760  0.92790  Biso   1.000  C
  H85      1.0000 0.16210  0.55460  0.44830  Biso   1.000  H
  H86      1.0000 0.66210  0.05460  0.05170  Biso   1.000  H
  H87      1.0000 0.66210  0.44540  0.55170  Biso   1.000  H
  H88      1.0000 0.16210  0.94540  0.94830  Biso   1.000  H
  C185     1.0000 0.27010  0.49350  0.42756  Biso   1.000  C
  C186     1.0000 0.77010  0.99350  0.07244  Biso   1.000  C
  C187     1.0000 0.77010  0.50650  0.57244  Biso   1.000  C
  C188     1.0000 0.27010  0.00650  0.92756  Biso   1.000  C
  H89      1.0000 0.30690  0.49320  0.44760  Biso   1.000  H
  H90      1.0000 0.80690  0.99320  0.05240  Biso   1.000  H
  H91      1.0000 0.80690  0.50680  0.55240  Biso   1.000  H
  H92      1.0000 0.30690  0.00680  0.94760  Biso   1.000  H
  C189     1.0000 0.29770  0.45810  0.39897  Biso   1.000  C
  C190     1.0000 0.79770  0.95810  0.10103  Biso   1.000  C
  C191     1.0000 0.79770  0.54190  0.60103  Biso   1.000  C
  C192     1.0000 0.29770  0.04190  0.89897  Biso   1.000  C
  H93      1.0000 0.35260  0.43210  0.39980  Biso   1.000  H
  H94      1.0000 0.85260  0.93210  0.10020  Biso   1.000  H
  H95      1.0000 0.85260  0.56790  0.60020  Biso   1.000  H
  H96      1.0000 0.35260  0.06790  0.89980  Biso   1.000  H
  C193     1.0000 0.01230  0.62040  0.41490  Biso   1.000  C
  C194     1.0000 0.51230  0.12040  0.08510  Biso   1.000  C
  C195     1.0000 0.51230  0.37960  0.58510  Biso   1.000  C
  C196     1.0000 0.01230  0.87960  0.91490  Biso   1.000  C
  C197     1.0000 0.92990  0.66330  0.39960  Biso   1.000  C
  C198     1.0000 0.42990  0.16330  0.10040  Biso   1.000  C
  C199     1.0000 0.42990  0.33670  0.60040  Biso   1.000  C
  C200     1.0000 0.92990  0.83670  0.89960  Biso   1.000  C
  C201     1.0000 0.09320  0.83520  0.46310  Biso   1.000  C
  C202     1.0000 0.59320  0.33520  0.03690  Biso   1.000  C
  C203     1.0000 0.59320  0.16480  0.53690  Biso   1.000  C
  C204     1.0000 0.09320  0.66480  0.96310  Biso   1.000  C
  C205     1.0000 0.12280  0.90670  0.44310  Biso   1.000  C
  C206     1.0000 0.62280  0.40670  0.05690  Biso   1.000  C
  C207     1.0000 0.62280  0.09330  0.55690  Biso   1.000  C
  C208     1.0000 0.12280  0.59330  0.94310  Biso   1.000  C
  C209     1.0000 0.11110  0.95210  0.38180  Biso   1.000  C
  C210     1.0000 0.61110  0.45210  0.11820  Biso   1.000  C
  C211     1.0000 0.61110  0.04790  0.61820  Biso   1.000  C
  C212     1.0000 0.11110  0.54790  0.88180  Biso   1.000  C
  C213     1.0000 0.19670  0.99670  0.38230  Biso   1.000  C
  C214     1.0000 0.69670  0.49670  0.11770  Biso   1.000  C
  C215     1.0000 0.69670  0.00330  0.61770  Biso   1.000  C
  C216     1.0000 0.19670  0.50330  0.88230  Biso   1.000  C
  H97      1.0000 0.23260  0.99830  0.40260  Biso   1.000  H
  H98      1.0000 0.73260  0.49830  0.09740  Biso   1.000  H
  H99      1.0000 0.73260  0.00170  0.59740  Biso   1.000  H
  H100     1.0000 0.23260  0.50170  0.90260  Biso   1.000  H
  C217     1.0000 0.22300  0.03460  0.35400  Biso   1.000  C
  C218     1.0000 0.72300  0.53460  0.14600  Biso   1.000  C
  C219     1.0000 0.72300  0.96540  0.64600  Biso   1.000  C
  C220     1.0000 0.22300  0.46540  0.85400  Biso   1.000  C
  C221     1.0000 0.17340  0.03200  0.32274  Biso   1.000  C
  C222     1.0000 0.67340  0.53200  0.17726  Biso   1.000  C
  C223     1.0000 0.67340  0.96800  0.67726  Biso   1.000  C
  C224     1.0000 0.17340  0.46800  0.82274  Biso   1.000  C
  H101     1.0000 0.19330  0.05750  0.30310  Biso   1.000  H
  H102     1.0000 0.69330  0.55750  0.19690  Biso   1.000  H
  H103     1.0000 0.69330  0.94250  0.69690  Biso   1.000  H
  H104     1.0000 0.19330  0.44250  0.80310  Biso   1.000  H
  C225     1.0000 0.09470  0.99110  0.32140  Biso   1.000  C
  C226     1.0000 0.59470  0.49110  0.17860  Biso   1.000  C
  C227     1.0000 0.59470  0.00890  0.67860  Biso   1.000  C
  C228     1.0000 0.09470  0.50890  0.82140  Biso   1.000  C
  H105     1.0000 0.06030  0.98960  0.30070  Biso   1.000  H
  H106     1.0000 0.56030  0.48960  0.19930  Biso   1.000  H
  H107     1.0000 0.56030  0.01040  0.69930  Biso   1.000  H
  H108     1.0000 0.06030  0.51040  0.80070  Biso   1.000  H
  C229     1.0000 0.06470  0.95090  0.35110  Biso   1.000  C
  C230     1.0000 0.56470  0.45090  0.14890  Biso   1.000  C
  C231     1.0000 0.56470  0.04910  0.64890  Biso   1.000  C
  C232     1.0000 0.06470  0.54910  0.85110  Biso   1.000  C
  H109     1.0000 0.01150  0.92300  0.34930  Biso   1.000  H
  H110     1.0000 0.51150  0.42300  0.15070  Biso   1.000  H
  H111     1.0000 0.51150  0.07700  0.65070  Biso   1.000  H
  H112     1.0000 0.01150  0.57700  0.84930  Biso   1.000  H
  C233     1.0000 0.34590  0.12480  0.33760  Biso   1.000  C
  C234     1.0000 0.84590  0.62480  0.16240  Biso   1.000  C
  C235     1.0000 0.84590  0.87520  0.66240  Biso   1.000  C
  C236     1.0000 0.34590  0.37520  0.83760  Biso   1.000  C
  C237     1.0000 0.42820  0.16160  0.35280  Biso   1.000  C
  C238     1.0000 0.92820  0.66160  0.14720  Biso   1.000  C
  C239     1.0000 0.92820  0.83840  0.64720  Biso   1.000  C
  C240     1.0000 0.42820  0.33840  0.85280  Biso   1.000  C
  Mn25     1.0000 0.95000  0.78316  0.47196  Biso   1.000  Mn
  Mn26     1.0000 0.45000  0.28316  0.02804  Biso   1.000  Mn
  Mn27     1.0000 0.45000  0.21684  0.52804  Biso   1.000  Mn
  Mn28     1.0000 0.95000  0.71684  0.97196  Biso   1.000  Mn
  Mn29     1.0000 0.40870  0.28579  0.27799  Biso   1.000  Mn
  Mn30     1.0000 0.90870  0.78579  0.22201  Biso   1.000  Mn
  Mn31     1.0000 0.90870  0.71421  0.72201  Biso   1.000  Mn
  Mn32     1.0000 0.40870  0.21421  0.77799  Biso   1.000  Mn
  O77      1.0000 0.84800  0.70840  0.48950  Biso   1.000  O
  O78      1.0000 0.34800  0.20840  0.01050  Biso   1.000  O
  O79      1.0000 0.34800  0.29160  0.51050  Biso   1.000  O
  O80      1.0000 0.84800  0.79160  0.98950  Biso   1.000  O
  O81      1.0000 0.04670  0.79360  0.51190  Biso   1.000  O
  O82      1.0000 0.54670  0.29360  0.98810  Biso   1.000  O
  O83      1.0000 0.54670  0.20640  0.48810  Biso   1.000  O
  O84      1.0000 0.04670  0.70640  0.01190  Biso   1.000  O
  O85      1.0000 0.85640  0.87300  0.49170  Biso   1.000  O
  O86      1.0000 0.35640  0.37300  0.00830  Biso   1.000  O
  O87      1.0000 0.35640  0.12700  0.50830  Biso   1.000  O
  O88      1.0000 0.85640  0.62700  0.99170  Biso   1.000  O
  O89      1.0000 0.53260  0.22200  0.26250  Biso   1.000  O
  O90      1.0000 0.03260  0.72200  0.23750  Biso   1.000  O
  O91      1.0000 0.03260  0.77800  0.73750  Biso   1.000  O
  O92      1.0000 0.53260  0.27800  0.76250  Biso   1.000  O
  O93      1.0000 0.30660  0.30260  0.23620  Biso   1.000  O
  O94      1.0000 0.80660  0.80260  0.26380  Biso   1.000  O
  O95      1.0000 0.80660  0.69740  0.76380  Biso   1.000  O
  O96      1.0000 0.30660  0.19740  0.73620  Biso   1.000  O
  O97      1.0000 0.48320  0.37110  0.25920  Biso   1.000  O
  O98      1.0000 0.98320  0.87110  0.24080  Biso   1.000  O
  O99      1.0000 0.98320  0.62890  0.74080  Biso   1.000  O
  O100     1.0000 0.48320  0.12890  0.75920  Biso   1.000  O
  O101     1.0000 0.47570  0.30280  0.33110  Biso   1.000  O
  O102     1.0000 0.97570  0.80280  0.16890  Biso   1.000  O
  O103     1.0000 0.97570  0.69720  0.66890  Biso   1.000  O
  O104     1.0000 0.47570  0.19720  0.83110  Biso   1.000  O
  O105     1.0000 0.47640  0.35140  0.38540  Biso   1.000  O
  O106     1.0000 0.97640  0.85140  0.11460  Biso   1.000  O
  O107     1.0000 0.97640  0.64860  0.61460  Biso   1.000  O
  O108     1.0000 0.47640  0.14860  0.88540  Biso   1.000  O
  O109     1.0000 0.32230  0.36490  0.30840  Biso   1.000  O
  O110     1.0000 0.82230  0.86490  0.19160  Biso   1.000  O
  O111     1.0000 0.82230  0.63510  0.69160  Biso   1.000  O
  O112     1.0000 0.32230  0.13510  0.80840  Biso   1.000  O
  O113     1.0000 0.15730  0.67750  0.48680  Biso   1.000  O
  O114     1.0000 0.65730  0.17750  0.01320  Biso   1.000  O
  O115     1.0000 0.65730  0.32250  0.51320  Biso   1.000  O
  O116     1.0000 0.15730  0.82250  0.98680  Biso   1.000  O
  O117     1.0000 0.02430  0.69380  0.45210  Biso   1.000  O
  O118     1.0000 0.52430  0.19380  0.04790  Biso   1.000  O
  O119     1.0000 0.52430  0.30620  0.54790  Biso   1.000  O
  O120     1.0000 0.02430  0.80620  0.95210  Biso   1.000  O
  O121     1.0000 0.18130  0.55820  0.45710  Biso   1.000  O
  O122     1.0000 0.68130  0.05820  0.04290  Biso   1.000  O
  O123     1.0000 0.68130  0.44180  0.54290  Biso   1.000  O
  O124     1.0000 0.18130  0.94180  0.95710  Biso   1.000  O
  O125     1.0000 0.91620  0.83860  0.36900  Biso   1.000  O
  O126     1.0000 0.41620  0.33860  0.13100  Biso   1.000  O
  O127     1.0000 0.41620  0.16140  0.63100  Biso   1.000  O
  O128     1.0000 0.91620  0.66140  0.86900  Biso   1.000  O
  O129     1.0000 0.89140  0.79200  0.42410  Biso   1.000  O
  O130     1.0000 0.39140  0.29200  0.07590  Biso   1.000  O
  O131     1.0000 0.39140  0.20800  0.57590  Biso   1.000  O
  O132     1.0000 0.89140  0.70800  0.92410  Biso   1.000  O
  O133     1.0000 0.03750  0.86140  0.44690  Biso   1.000  O
  O134     1.0000 0.53750  0.36140  0.05310  Biso   1.000  O
  O135     1.0000 0.53750  0.13860  0.55310  Biso   1.000  O
  O136     1.0000 0.03750  0.63860  0.94690  Biso   1.000  O
  O137     1.0000 0.22030  0.18260  0.26090  Biso   1.000  O
  O138     1.0000 0.72030  0.68260  0.23910  Biso   1.000  O
  O139     1.0000 0.72030  0.81740  0.73910  Biso   1.000  O
  O140     1.0000 0.22030  0.31740  0.76090  Biso   1.000  O
  O141     1.0000 0.16280  0.04720  0.30150  Biso   1.000  O
  O142     1.0000 0.66280  0.54720  0.19850  Biso   1.000  O
  O143     1.0000 0.66280  0.95280  0.69850  Biso   1.000  O
  O144     1.0000 0.16280  0.45280  0.80150  Biso   1.000  O
  O145     1.0000 0.33370  0.19570  0.29780  Biso   1.000  O
  O146     1.0000 0.83370  0.69570  0.20220  Biso   1.000  O
  O147     1.0000 0.83370  0.80430  0.70220  Biso   1.000  O
  O148     1.0000 0.33370  0.30430  0.79780  Biso   1.000  O
  N17      1.0000 0.27690  0.07880  0.34110  Biso   1.000  N
  N18      1.0000 0.77690  0.57880  0.15890  Biso   1.000  N
  N19      1.0000 0.77690  0.92120  0.65890  Biso   1.000  N
  N20      1.0000 0.27690  0.42120  0.84110  Biso   1.000  N
  H113     1.0000 0.32980  0.09920  0.34380  Biso   1.000  H
  H114     1.0000 0.82980  0.59920  0.15620  Biso   1.000  H
  H115     1.0000 0.82980  0.90080  0.65620  Biso   1.000  H
  H116     1.0000 0.32980  0.40080  0.84380  Biso   1.000  H
  N21      1.0000 0.09100  0.58940  0.40820  Biso   1.000  N
  N22      1.0000 0.59100  0.08940  0.09180  Biso   1.000  N
  N23      1.0000 0.59100  0.41060  0.59180  Biso   1.000  N
  N24      1.0000 0.09100  0.91060  0.90820  Biso   1.000  N
  H117     1.0000 0.04770  0.61920  0.40290  Biso   1.000  H
  H118     1.0000 0.54770  0.11920  0.09710  Biso   1.000  H
  H119     1.0000 0.54770  0.38080  0.59710  Biso   1.000  H
  H120     1.0000 0.04770  0.88080  0.90290  Biso   1.000  H
  N25      1.0000 0.30870  0.41680  0.35900  Biso   1.000  N
  N26      1.0000 0.80870  0.91680  0.14100  Biso   1.000  N
  N27      1.0000 0.80870  0.58320  0.64100  Biso   1.000  N
  N28      1.0000 0.30870  0.08320  0.85900  Biso   1.000  N
  H121     1.0000 0.32980  0.41930  0.38020  Biso   1.000  H
  H122     1.0000 0.82980  0.91930  0.11980  Biso   1.000  H
  H123     1.0000 0.82980  0.58070  0.61980  Biso   1.000  H
  H124     1.0000 0.32980  0.08070  0.88020  Biso   1.000  H
  N29      1.0000 0.06480  0.92360  0.39440  Biso   1.000  N
  N30      1.0000 0.56480  0.42360  0.10560  Biso   1.000  N
  N31      1.0000 0.56480  0.07640  0.60560  Biso   1.000  N
  N32      1.0000 0.06480  0.57640  0.89440  Biso   1.000  N
  H125     1.0000 0.03320  0.92950  0.37550  Biso   1.000  H
  H126     1.0000 0.53320  0.42950  0.12450  Biso   1.000  H
  H127     1.0000 0.53320  0.07050  0.62450  Biso   1.000  H
  H128     1.0000 0.03320  0.57050  0.87550  Biso   1.000  H
  C241     1.0000 0.35820  0.37080  0.33740  Biso   1.000  C
  C242     1.0000 0.85820  0.87080  0.16260  Biso   1.000  C
  C243     1.0000 0.85820  0.62920  0.66260  Biso   1.000  C
  C244     1.0000 0.35820  0.12920  0.83740  Biso   1.000  C
  C245     1.0000 0.44370  0.34530  0.35810  Biso   1.000  C
  C246     1.0000 0.94370  0.84530  0.14190  Biso   1.000  C
  C247     1.0000 0.94370  0.65470  0.64190  Biso   1.000  C
  C248     1.0000 0.44370  0.15470  0.85810  Biso   1.000  C
  C249     1.0000 0.17150  0.46490  0.32240  Biso   1.000  C
  C250     1.0000 0.67150  0.96490  0.17760  Biso   1.000  C
  C251     1.0000 0.67150  0.53510  0.67760  Biso   1.000  C
  C252     1.0000 0.17150  0.03510  0.82240  Biso   1.000  C
  H129     1.0000 0.18790  0.43690  0.30310  Biso   1.000  H
  H130     1.0000 0.68790  0.93690  0.19690  Biso   1.000  H
  H131     1.0000 0.68790  0.56310  0.69690  Biso   1.000  H
  H132     1.0000 0.18790  0.06310  0.80310  Biso   1.000  H
  C253     1.0000 0.09340  0.50860  0.32090  Biso   1.000  C
  C254     1.0000 0.59340  0.00860  0.17910  Biso   1.000  C
  C255     1.0000 0.59340  0.49140  0.67910  Biso   1.000  C
  C256     1.0000 0.09340  0.99140  0.82090  Biso   1.000  C
  H133     1.0000 0.05760  0.50970  0.30060  Biso   1.000  H
  H134     1.0000 0.55760  0.00970  0.19940  Biso   1.000  H
  H135     1.0000 0.55760  0.49030  0.69940  Biso   1.000  H
  H136     1.0000 0.05760  0.99030  0.80060  Biso   1.000  H
  C257     1.0000 0.06890  0.55040  0.34980  Biso   1.000  C
  C258     1.0000 0.56890  0.05040  0.15020  Biso   1.000  C
  C259     1.0000 0.56890  0.44960  0.65020  Biso   1.000  C
  C260     1.0000 0.06890  0.94960  0.84980  Biso   1.000  C
  H137     1.0000 0.01670  0.57960  0.34880  Biso   1.000  H
  H138     1.0000 0.51670  0.07960  0.15120  Biso   1.000  H
  H139     1.0000 0.51670  0.42040  0.65120  Biso   1.000  H
  H140     1.0000 0.01670  0.92040  0.84880  Biso   1.000  H
  C261     1.0000 0.12240  0.54870  0.38020  Biso   1.000  C
  C262     1.0000 0.62240  0.04870  0.11980  Biso   1.000  C
  C263     1.0000 0.62240  0.45130  0.61980  Biso   1.000  C
  C264     1.0000 0.12240  0.95130  0.88020  Biso   1.000  C
  C265     1.0000 0.20040  0.50510  0.38170  Biso   1.000  C
  C266     1.0000 0.70040  0.00510  0.11830  Biso   1.000  C
  C267     1.0000 0.70040  0.49490  0.61830  Biso   1.000  C
  C268     1.0000 0.20040  0.99490  0.88170  Biso   1.000  C
  H141     1.0000 0.23630  0.50390  0.40200  Biso   1.000  H
  H142     1.0000 0.73630  0.00390  0.09800  Biso   1.000  H
  H143     1.0000 0.73630  0.49610  0.59800  Biso   1.000  H
  H144     1.0000 0.23630  0.99610  0.90200  Biso   1.000  H
  C269     1.0000 0.22500  0.46320  0.35280  Biso   1.000  C
  C270     1.0000 0.72500  0.96320  0.14720  Biso   1.000  C
  C271     1.0000 0.72500  0.53680  0.64720  Biso   1.000  C
  C272     1.0000 0.22500  0.03680  0.85280  Biso   1.000  C
  C273     1.0000 0.11720  0.59120  0.44450  Biso   1.000  C
  C274     1.0000 0.61720  0.09120  0.05550  Biso   1.000  C
  C275     1.0000 0.61720  0.40880  0.55550  Biso   1.000  C
  C276     1.0000 0.11720  0.90880  0.94450  Biso   1.000  C
  C277     1.0000 0.09480  0.66520  0.46200  Biso   1.000  C
  C278     1.0000 0.59480  0.16520  0.03800  Biso   1.000  C
  C279     1.0000 0.59480  0.33480  0.53800  Biso   1.000  C
  C280     1.0000 0.09480  0.83480  0.96200  Biso   1.000  C
  C281     1.0000 0.93300  0.82840  0.39880  Biso   1.000  C
  C282     1.0000 0.43300  0.32840  0.10120  Biso   1.000  C
  C283     1.0000 0.43300  0.17160  0.60120  Biso   1.000  C
  C284     1.0000 0.93300  0.67160  0.89880  Biso   1.000  C
  C285     1.0000 0.01290  0.87290  0.41550  Biso   1.000  C
  C286     1.0000 0.51290  0.37290  0.08450  Biso   1.000  C
  C287     1.0000 0.51290  0.12710  0.58450  Biso   1.000  C
  C288     1.0000 0.01290  0.62710  0.91550  Biso   1.000  C
  C289     1.0000 0.18080  0.96510  0.42700  Biso   1.000  C
  C290     1.0000 0.68080  0.46510  0.07300  Biso   1.000  C
  C291     1.0000 0.68080  0.03490  0.57300  Biso   1.000  C
  C292     1.0000 0.18080  0.53490  0.92700  Biso   1.000  C
  H145     1.0000 0.15660  0.94290  0.44690  Biso   1.000  H
  H146     1.0000 0.65660  0.44290  0.05310  Biso   1.000  H
  H147     1.0000 0.65660  0.05710  0.55310  Biso   1.000  H
  H148     1.0000 0.15660  0.55710  0.94690  Biso   1.000  H
  C293     1.0000 0.27100  0.00750  0.42760  Biso   1.000  C
  C294     1.0000 0.77100  0.50750  0.07240  Biso   1.000  C
  C295     1.0000 0.77100  0.99250  0.57240  Biso   1.000  C
  C296     1.0000 0.27100  0.49250  0.92760  Biso   1.000  C
  H149     1.0000 0.30650  0.01040  0.44800  Biso   1.000  H
  H150     1.0000 0.80650  0.51040  0.05200  Biso   1.000  H
  H151     1.0000 0.80650  0.98960  0.55200  Biso   1.000  H
  H152     1.0000 0.30650  0.48960  0.94800  Biso   1.000  H
  C297     1.0000 0.29630  0.03870  0.39940  Biso   1.000  C
  C298     1.0000 0.79630  0.53870  0.10060  Biso   1.000  C
  C299     1.0000 0.79630  0.96130  0.60060  Biso   1.000  C
  C300     1.0000 0.29630  0.46130  0.89940  Biso   1.000  C
  H153     1.0000 0.35110  0.06490  0.40010  Biso   1.000  H
  H154     1.0000 0.85110  0.56490  0.09990  Biso   1.000  H
  H155     1.0000 0.85110  0.93510  0.59990  Biso   1.000  H
  H156     1.0000 0.35110  0.43510  0.90010  Biso   1.000  H
  C301     1.0000 0.24770  0.03680  0.36680  Biso   1.000  C
  C302     1.0000 0.74770  0.53680  0.13320  Biso   1.000  C
  C303     1.0000 0.74770  0.96320  0.63320  Biso   1.000  C
  C304     1.0000 0.24770  0.46320  0.86680  Biso   1.000  C
  C305     1.0000 0.16860  0.99880  0.36430  Biso   1.000  C
  C306     1.0000 0.66860  0.49880  0.13570  Biso   1.000  C
  C307     1.0000 0.66860  0.00120  0.63570  Biso   1.000  C
  C308     1.0000 0.16860  0.50120  0.86430  Biso   1.000  C
  H157     1.0000 0.13740  0.99830  0.34290  Biso   1.000  H
  H158     1.0000 0.63740  0.49830  0.15710  Biso   1.000  H
  H159     1.0000 0.63740  0.00170  0.65710  Biso   1.000  H
  H160     1.0000 0.13740  0.50170  0.84290  Biso   1.000  H
  C309     1.0000 0.13310  0.96180  0.39120  Biso   1.000  C
  C310     1.0000 0.63310  0.46180  0.10880  Biso   1.000  C
  C311     1.0000 0.63310  0.03820  0.60880  Biso   1.000  C
  C312     1.0000 0.13310  0.53820  0.89120  Biso   1.000  C
  C313     1.0000 0.26200  0.15660  0.28770  Biso   1.000  C
  C314     1.0000 0.76200  0.65660  0.21230  Biso   1.000  C
  C315     1.0000 0.76200  0.84340  0.71230  Biso   1.000  C
  C316     1.0000 0.26200  0.34340  0.78770  Biso   1.000  C
  C317     1.0000 0.22810  0.09320  0.30920  Biso   1.000  C
  C318     1.0000 0.72810  0.59320  0.19080  Biso   1.000  C
  C319     1.0000 0.72810  0.90680  0.69080  Biso   1.000  C
  C320     1.0000 0.22810  0.40680  0.80920  Biso   1.000  C
  N33      1.0000 0.92600  0.11740  0.37342  Biso   1.000  N
  N34      1.0000 0.42600  0.61740  0.12658  Biso   1.000  N
  N35      1.0000 0.42600  0.88260  0.62658  Biso   1.000  N
  N36      1.0000 0.92600  0.38260  0.87342  Biso   1.000  N
  N37      1.0000 0.92050  0.37840  0.37284  Biso   1.000  N
  N38      1.0000 0.42050  0.87840  0.12716  Biso   1.000  N
  N39      1.0000 0.42050  0.62160  0.62716  Biso   1.000  N
  N40      1.0000 0.92050  0.12160  0.87284  Biso   1.000  N
  N41      1.0000 0.82510  0.37190  0.19631  Biso   1.000  N
  N42      1.0000 0.32510  0.87190  0.30369  Biso   1.000  N
  N43      1.0000 0.32510  0.62810  0.80369  Biso   1.000  N
  N44      1.0000 0.82510  0.12810  0.69631  Biso   1.000  N
  N45      1.0000 0.93750  0.38220  0.62411  Biso   1.000  N
  N46      1.0000 0.43750  0.88220  0.87589  Biso   1.000  N
  N47      1.0000 0.43750  0.61780  0.37589  Biso   1.000  N
  N48      1.0000 0.93750  0.11780  0.12411  Biso   1.000  N
  N49      1.0000 0.02930  0.11870  0.44496  Biso   1.000  N
  N50      1.0000 0.52930  0.61870  0.05504  Biso   1.000  N
  N51      1.0000 0.52930  0.88130  0.55504  Biso   1.000  N
  N52      1.0000 0.02930  0.38130  0.94496  Biso   1.000  N
  N53      1.0000 0.82670  0.12040  0.19664  Biso   1.000  N
  N54      1.0000 0.32670  0.62040  0.30336  Biso   1.000  N
  N55      1.0000 0.32670  0.87960  0.80336  Biso   1.000  N
  N56      1.0000 0.82670  0.37960  0.69664  Biso   1.000  N
  N57      1.0000 0.93750  0.11970  0.62399  Biso   1.000  N
  N58      1.0000 0.43750  0.61970  0.87601  Biso   1.000  N
  N59      1.0000 0.43750  0.88030  0.37601  Biso   1.000  N
  N60      1.0000 0.93750  0.38030  0.12399  Biso   1.000  N
  N61      1.0000 0.02130  0.37950  0.44469  Biso   1.000  N
  N62      1.0000 0.52130  0.87950  0.05531  Biso   1.000  N
  N63      1.0000 0.52130  0.62050  0.55531  Biso   1.000  N
  N64      1.0000 0.02130  0.12050  0.94469  Biso   1.000  N
  O149     1.0000 0.84570  0.99450  0.39698  Biso   1.000  O
  O150     1.0000 0.34570  0.49450  0.10302  Biso   1.000  O
  O151     1.0000 0.34570  0.00550  0.60302  Biso   1.000  O
  O152     1.0000 0.84570  0.50550  0.89698  Biso   1.000  O
  O153     1.0000 0.77500  0.97880  0.34580  Biso   1.000  O
  O154     1.0000 0.27500  0.47880  0.15420  Biso   1.000  O
  O155     1.0000 0.27500  0.02120  0.65420  Biso   1.000  O
  O156     1.0000 0.77500  0.52120  0.84580  Biso   1.000  O
  O157     1.0000 0.84110  0.10600  0.32156  Biso   1.000  O
  O158     1.0000 0.34110  0.60600  0.17844  Biso   1.000  O
  O159     1.0000 0.34110  0.89400  0.67844  Biso   1.000  O
  O160     1.0000 0.84110  0.39400  0.82156  Biso   1.000  O
  O161     1.0000 0.83220  0.49850  0.39643  Biso   1.000  O
  O162     1.0000 0.33220  0.99850  0.10357  Biso   1.000  O
  O163     1.0000 0.33220  0.50150  0.60357  Biso   1.000  O
  O164     1.0000 0.83220  0.00150  0.89643  Biso   1.000  O
  O165     1.0000 0.76370  0.51300  0.34465  Biso   1.000  O
  O166     1.0000 0.26370  0.01300  0.15535  Biso   1.000  O
  O167     1.0000 0.26370  0.48700  0.65535  Biso   1.000  O
  O168     1.0000 0.76370  0.98700  0.84465  Biso   1.000  O
  O169     1.0000 0.83110  0.38610  0.32135  Biso   1.000  O
  O170     1.0000 0.33110  0.88610  0.17865  Biso   1.000  O
  O171     1.0000 0.33110  0.61390  0.67865  Biso   1.000  O
  O172     1.0000 0.83110  0.11390  0.82135  Biso   1.000  O
  O173     1.0000 0.86100  0.98570  0.26252  Biso   1.000  O
  O174     1.0000 0.36100  0.48570  0.23748  Biso   1.000  O
  O175     1.0000 0.36100  0.01430  0.73748  Biso   1.000  O
  O176     1.0000 0.86100  0.51430  0.76252  Biso   1.000  O
  O177     1.0000 0.92980  0.00090  0.21040  Biso   1.000  O
  O178     1.0000 0.42980  0.50090  0.28960  Biso   1.000  O
  O179     1.0000 0.42980  0.99910  0.78960  Biso   1.000  O
  O180     1.0000 0.92980  0.49910  0.71040  Biso   1.000  O
  O181     1.0000 0.75210  0.10390  0.24943  Biso   1.000  O
  O182     1.0000 0.25210  0.60390  0.25057  Biso   1.000  O
  O183     1.0000 0.25210  0.89610  0.75057  Biso   1.000  O
  O184     1.0000 0.75210  0.39610  0.74943  Biso   1.000  O
  O185     1.0000 0.85760  0.50480  0.26297  Biso   1.000  O
  O186     1.0000 0.35760  0.00480  0.23703  Biso   1.000  O
  O187     1.0000 0.35760  0.49520  0.73703  Biso   1.000  O
  O188     1.0000 0.85760  0.99520  0.76297  Biso   1.000  O
  O189     1.0000 0.92760  0.49330  0.21057  Biso   1.000  O
  O190     1.0000 0.42760  0.99330  0.28943  Biso   1.000  O
  O191     1.0000 0.42760  0.50670  0.78943  Biso   1.000  O
  O192     1.0000 0.92760  0.00670  0.71057  Biso   1.000  O
  O193     1.0000 0.74800  0.38790  0.24850  Biso   1.000  O
  O194     1.0000 0.24800  0.88790  0.25150  Biso   1.000  O
  O195     1.0000 0.24800  0.61210  0.75150  Biso   1.000  O
  O196     1.0000 0.74800  0.11210  0.74850  Biso   1.000  O
  O197     1.0000 0.01420  0.49850  0.64656  Biso   1.000  O
  O198     1.0000 0.51420  0.99850  0.85344  Biso   1.000  O
  O199     1.0000 0.51420  0.50150  0.35344  Biso   1.000  O
  O200     1.0000 0.01420  0.00150  0.14656  Biso   1.000  O
  O201     1.0000 0.08770  0.51620  0.59488  Biso   1.000  O
  O202     1.0000 0.58770  0.01620  0.90512  Biso   1.000  O
  O203     1.0000 0.58770  0.48380  0.40512  Biso   1.000  O
  O204     1.0000 0.08770  0.98380  0.09488  Biso   1.000  O
  O205     1.0000 0.01120  0.39010  0.57146  Biso   1.000  O
  O206     1.0000 0.51120  0.89010  0.92854  Biso   1.000  O
  O207     1.0000 0.51120  0.60990  0.42854  Biso   1.000  O
  O208     1.0000 0.01120  0.10990  0.07146  Biso   1.000  O
  O209     1.0000 0.01380  0.00480  0.64703  Biso   1.000  O
  O210     1.0000 0.51380  0.50480  0.85297  Biso   1.000  O
  O211     1.0000 0.51380  0.99520  0.35297  Biso   1.000  O
  O212     1.0000 0.01380  0.49520  0.14703  Biso   1.000  O
  O213     1.0000 0.09230  0.98810  0.59677  Biso   1.000  O
  O214     1.0000 0.59230  0.48810  0.90323  Biso   1.000  O
  O215     1.0000 0.59230  0.01190  0.40323  Biso   1.000  O
  O216     1.0000 0.09230  0.51190  0.09677  Biso   1.000  O
  O217     1.0000 0.01600  0.11450  0.57174  Biso   1.000  O
  O218     1.0000 0.51600  0.61450  0.92826  Biso   1.000  O
  O219     1.0000 0.51600  0.88550  0.42826  Biso   1.000  O
  O220     1.0000 0.01600  0.38550  0.07174  Biso   1.000  O
  O221     1.0000 0.99090  0.50950  0.51057  Biso   1.000  O
  O222     1.0000 0.49090  0.00950  0.98943  Biso   1.000  O
  O223     1.0000 0.49090  0.49050  0.48943  Biso   1.000  O
  O224     1.0000 0.99090  0.99050  0.01057  Biso   1.000  O
  O225     1.0000 0.92390  0.49440  0.45952  Biso   1.000  O
  O226     1.0000 0.42390  0.99440  0.04048  Biso   1.000  O
  O227     1.0000 0.42390  0.50560  0.54048  Biso   1.000  O
  O228     1.0000 0.92390  0.00560  0.95952  Biso   1.000  O
  O229     1.0000 0.10170  0.39570  0.49788  Biso   1.000  O
  O230     1.0000 0.60170  0.89570  0.00212  Biso   1.000  O
  O231     1.0000 0.60170  0.60430  0.50212  Biso   1.000  O
  O232     1.0000 0.10170  0.10430  0.99788  Biso   1.000  O
  O233     1.0000 0.00540  0.99020  0.51194  Biso   1.000  O
  O234     1.0000 0.50540  0.49020  0.98806  Biso   1.000  O
  O235     1.0000 0.50540  0.00980  0.48806  Biso   1.000  O
  O236     1.0000 0.00540  0.50980  0.01194  Biso   1.000  O
  O237     1.0000 0.93710  0.00120  0.46076  Biso   1.000  O
  O238     1.0000 0.43710  0.50120  0.03924  Biso   1.000  O
  O239     1.0000 0.43710  0.99880  0.53924  Biso   1.000  O
  O240     1.0000 0.93710  0.49880  0.96076  Biso   1.000  O
  O241     1.0000 0.10780  0.10820  0.49855  Biso   1.000  O
  O242     1.0000 0.60780  0.60820  0.00145  Biso   1.000  O
  O243     1.0000 0.60780  0.89180  0.50145  Biso   1.000  O
  O244     1.0000 0.10780  0.39180  0.99855  Biso   1.000  O
  O245     1.0000 0.81200  0.13510  0.44378  Biso   1.000  O
  O246     1.0000 0.31200  0.63510  0.05622  Biso   1.000  O
  O247     1.0000 0.31200  0.86490  0.55622  Biso   1.000  O
  O248     1.0000 0.81200  0.36490  0.94378  Biso   1.000  O
  O249     1.0000 0.80410  0.35990  0.44491  Biso   1.000  O
  O250     1.0000 0.30410  0.85990  0.05509  Biso   1.000  O
  O251     1.0000 0.30410  0.64010  0.55509  Biso   1.000  O
  O252     1.0000 0.80410  0.14010  0.94491  Biso   1.000  O
  O253     1.0000 0.65010  0.95790  0.27423  Biso   1.000  O
  O254     1.0000 0.15010  0.45790  0.22577  Biso   1.000  O
  O255     1.0000 0.15010  0.04210  0.72577  Biso   1.000  O
  O256     1.0000 0.65010  0.54210  0.77423  Biso   1.000  O
  O257     1.0000 0.62380  0.08860  0.31448  Biso   1.000  O
  O258     1.0000 0.12380  0.58860  0.18552  Biso   1.000  O
  O259     1.0000 0.12380  0.91140  0.68552  Biso   1.000  O
  O260     1.0000 0.62380  0.41140  0.81448  Biso   1.000  O
  O261     1.0000 0.23190  0.41690  0.55822  Biso   1.000  O
  O262     1.0000 0.73190  0.91690  0.94178  Biso   1.000  O
  O263     1.0000 0.73190  0.58310  0.44178  Biso   1.000  O
  O264     1.0000 0.23190  0.08310  0.05822  Biso   1.000  O
  O265     1.0000 0.17040  0.55900  0.52133  Biso   1.000  O
  O266     1.0000 0.67040  0.05900  0.97867  Biso   1.000  O
  O267     1.0000 0.67040  0.44100  0.47867  Biso   1.000  O
  O268     1.0000 0.17040  0.94100  0.02133  Biso   1.000  O
  O269     1.0000 0.60850  0.40920  0.30750  Biso   1.000  O
  O270     1.0000 0.10850  0.90920  0.19250  Biso   1.000  O
  O271     1.0000 0.10850  0.59080  0.69250  Biso   1.000  O
  O272     1.0000 0.60850  0.09080  0.80750  Biso   1.000  O
  O273     1.0000 0.65980  0.54460  0.27300  Biso   1.000  O
  O274     1.0000 0.15980  0.04460  0.22700  Biso   1.000  O
  O275     1.0000 0.15980  0.45540  0.72700  Biso   1.000  O
  O276     1.0000 0.65980  0.95540  0.77300  Biso   1.000  O
  O277     1.0000 0.23750  0.09630  0.56369  Biso   1.000  O
  O278     1.0000 0.73750  0.59630  0.93631  Biso   1.000  O
  O279     1.0000 0.73750  0.90370  0.43631  Biso   1.000  O
  O280     1.0000 0.23750  0.40370  0.06369  Biso   1.000  O
  O281     1.0000 0.19450  0.95950  0.52320  Biso   1.000  O
  O282     1.0000 0.69450  0.45950  0.97680  Biso   1.000  O
  O283     1.0000 0.69450  0.04050  0.47680  Biso   1.000  O
  O284     1.0000 0.19450  0.54050  0.02320  Biso   1.000  O
  O285     1.0000 0.66660  0.74620  0.48319  Biso   1.000  O
  O286     1.0000 0.16660  0.24620  0.01681  Biso   1.000  O
  O287     1.0000 0.16660  0.25380  0.51681  Biso   1.000  O
  O288     1.0000 0.66660  0.75380  0.98319  Biso   1.000  O
  O289     1.0000 0.96740  0.24973  0.03382  Biso   1.000  O
  O290     1.0000 0.46740  0.74973  0.46618  Biso   1.000  O
  O291     1.0000 0.46740  0.75027  0.96618  Biso   1.000  O
  O292     1.0000 0.96740  0.25027  0.53382  Biso   1.000  O
  O293     1.0000 0.89210  0.24640  0.28329  Biso   1.000  O
  O294     1.0000 0.39210  0.74640  0.21671  Biso   1.000  O
  O295     1.0000 0.39210  0.75360  0.71671  Biso   1.000  O
  O296     1.0000 0.89210  0.25360  0.78329  Biso   1.000  O
  O297     1.0000 0.81510  0.24530  0.49239  Biso   1.000  O
  O298     1.0000 0.31510  0.74530  0.00761  Biso   1.000  O
  O299     1.0000 0.31510  0.75470  0.50761  Biso   1.000  O
  O300     1.0000 0.81510  0.25470  0.99239  Biso   1.000  O
  O301     1.0000 0.68110  0.24510  0.26573  Biso   1.000  O
  O302     1.0000 0.18110  0.74510  0.23427  Biso   1.000  O
  O303     1.0000 0.18110  0.75490  0.73427  Biso   1.000  O
  O304     1.0000 0.68110  0.25490  0.76573  Biso   1.000  O
  O305     1.0000 0.03920  0.25110  0.24171  Biso   1.000  O
  O306     1.0000 0.53920  0.75110  0.25829  Biso   1.000  O
  O307     1.0000 0.53920  0.74890  0.75829  Biso   1.000  O
  O308     1.0000 0.03920  0.24890  0.74171  Biso   1.000  O
  O309     1.0000 0.18020  0.34790  0.14450  Biso   1.000  O
  O310     1.0000 0.68020  0.84790  0.35550  Biso   1.000  O
  O311     1.0000 0.68020  0.65210  0.85550  Biso   1.000  O
  O312     1.0000 0.18020  0.15210  0.64450  Biso   1.000  O
  O313     1.0000 0.67180  0.64420  0.35655  Biso   1.000  O
  O314     1.0000 0.17180  0.14420  0.14345  Biso   1.000  O
  O315     1.0000 0.17180  0.35580  0.64345  Biso   1.000  O
  O316     1.0000 0.67180  0.85580  0.85655  Biso   1.000  O
  O317     1.0000 0.67380  0.34830  0.39153  Biso   1.000  O
  O318     1.0000 0.17380  0.84830  0.10847  Biso   1.000  O
  O319     1.0000 0.17380  0.65170  0.60847  Biso   1.000  O
  O320     1.0000 0.67380  0.15170  0.89153  Biso   1.000  O
  O321     1.0000 0.70650  0.74854  0.40951  Biso   1.000  O
  O322     1.0000 0.20650  0.24854  0.09049  Biso   1.000  O
  O323     1.0000 0.20650  0.25146  0.59049  Biso   1.000  O
  O324     1.0000 0.70650  0.75146  0.90951  Biso   1.000  O
  O325     1.0000 0.67920  0.14830  0.39272  Biso   1.000  O
  O326     1.0000 0.17920  0.64830  0.10728  Biso   1.000  O
  O327     1.0000 0.17920  0.85170  0.60728  Biso   1.000  O
  O328     1.0000 0.67920  0.35170  0.89272  Biso   1.000  O
  O329     1.0000 0.45930  0.38340  0.20470  Biso   1.000  O
  O330     1.0000 0.95930  0.88340  0.29530  Biso   1.000  O
  O331     1.0000 0.95930  0.61660  0.79530  Biso   1.000  O
  O332     1.0000 0.45930  0.11660  0.70470  Biso   1.000  O
  O333     1.0000 0.33230  0.25420  0.17362  Biso   1.000  O
  O334     1.0000 0.83230  0.75420  0.32638  Biso   1.000  O
  O335     1.0000 0.83230  0.74580  0.82638  Biso   1.000  O
  O336     1.0000 0.33230  0.24580  0.67362  Biso   1.000  O
  O337     1.0000 0.05110  0.36120  0.19260  Biso   1.000  O
  O338     1.0000 0.55110  0.86120  0.30740  Biso   1.000  O
  O339     1.0000 0.55110  0.63880  0.80740  Biso   1.000  O
  O340     1.0000 0.05110  0.13880  0.69260  Biso   1.000  O
  O341     1.0000 0.05210  0.36440  0.69395  Biso   1.000  O
  O342     1.0000 0.55210  0.86440  0.80605  Biso   1.000  O
  O343     1.0000 0.55210  0.63560  0.30605  Biso   1.000  O
  O344     1.0000 0.05210  0.13560  0.19395  Biso   1.000  O
  O345     1.0000 0.64740  0.24680  0.33865  Biso   1.000  O
  O346     1.0000 0.14740  0.74680  0.16135  Biso   1.000  O
  O347     1.0000 0.14740  0.75320  0.66135  Biso   1.000  O
  O348     1.0000 0.64740  0.25320  0.83865  Biso   1.000  O
  O349     1.0000 0.98370  0.57630  0.30770  Biso   1.000  O
  O350     1.0000 0.48370  0.07630  0.19230  Biso   1.000  O
  O351     1.0000 0.48370  0.42370  0.69230  Biso   1.000  O
  O352     1.0000 0.98370  0.92370  0.80770  Biso   1.000  O
