data_image0
_cell_length_a       46.404
_cell_length_b       8.9009
_cell_length_c       19.4327
_cell_angle_alpha    90
_cell_angle_beta     90.374
_cell_angle_gamma    90

_symmetry_space_group_name_H-M    "P 1"
_symmetry_int_tables_number       1

loop_
  _symmetry_equiv_pos_as_xyz
  'x, y, z'

loop_
  _atom_site_label
  _atom_site_occupancy
  _atom_site_fract_x
  _atom_site_fract_y
  _atom_site_fract_z
  _atom_site_thermal_displace_type
  _atom_site_B_iso_or_equiv
  _atom_site_type_symbol
  Cu1      1.0000 0.25000  0.75000  0.00000  Biso   1.000  Cu
  Cu2      1.0000 0.75000  0.75000  0.50000  Biso   1.000  Cu
  Cu3      1.0000 0.75000  0.25000  0.00000  Biso   1.000  Cu
  Cu4      1.0000 0.25000  0.25000  0.50000  Biso   1.000  Cu
  S1       1.0000 0.23955  0.13632  0.16713  Biso   1.000  S
  S2       1.0000 0.76045  0.13632  0.33287  Biso   1.000  S
  S3       1.0000 0.73955  0.63632  0.16713  Biso   1.000  S
  S4       1.0000 0.26045  0.63632  0.33287  Biso   1.000  S
  S5       1.0000 0.76045  0.86368  0.83287  Biso   1.000  S
  S6       1.0000 0.23955  0.86368  0.66713  Biso   1.000  S
  S7       1.0000 0.26045  0.36368  0.83287  Biso   1.000  S
  S8       1.0000 0.73955  0.36368  0.66713  Biso   1.000  S
  O1       1.0000 0.33673  0.25350  0.21752  Biso   1.000  O
  O2       1.0000 0.66327  0.25350  0.28248  Biso   1.000  O
  O3       1.0000 0.83673  0.75350  0.21752  Biso   1.000  O
  O4       1.0000 0.16327  0.75350  0.28248  Biso   1.000  O
  O5       1.0000 0.66327  0.74650  0.78248  Biso   1.000  O
  O6       1.0000 0.33673  0.74650  0.71752  Biso   1.000  O
  O7       1.0000 0.16327  0.24650  0.78248  Biso   1.000  O
  O8       1.0000 0.83673  0.24650  0.71752  Biso   1.000  O
  O9       1.0000 0.34416  0.24470  0.83003  Biso   1.000  O
  O10      1.0000 0.65584  0.24470  0.66997  Biso   1.000  O
  O11      1.0000 0.84416  0.74470  0.83003  Biso   1.000  O
  O12      1.0000 0.15584  0.74470  0.66997  Biso   1.000  O
  O13      1.0000 0.65584  0.75530  0.16997  Biso   1.000  O
  O14      1.0000 0.34416  0.75530  0.33003  Biso   1.000  O
  O15      1.0000 0.15584  0.25530  0.16997  Biso   1.000  O
  O16      1.0000 0.84416  0.25530  0.33003  Biso   1.000  O
  O17      1.0000 0.52753  0.30170  0.39464  Biso   1.000  O
  O18      1.0000 0.47247  0.30170  0.10536  Biso   1.000  O
  O19      1.0000 0.02753  0.80170  0.39464  Biso   1.000  O
  O20      1.0000 0.97247  0.80170  0.10536  Biso   1.000  O
  O21      1.0000 0.47247  0.69830  0.60536  Biso   1.000  O
  O22      1.0000 0.52753  0.69830  0.89464  Biso   1.000  O
  O23      1.0000 0.97247  0.19830  0.60536  Biso   1.000  O
  O24      1.0000 0.02753  0.19830  0.89464  Biso   1.000  O
  N1       1.0000 0.39965  0.27190  0.51968  Biso   1.000  N
  N2       1.0000 0.60035  0.27190  0.98032  Biso   1.000  N
  N3       1.0000 0.89965  0.77190  0.51968  Biso   1.000  N
  N4       1.0000 0.10035  0.77190  0.98032  Biso   1.000  N
  N5       1.0000 0.60035  0.72810  0.48032  Biso   1.000  N
  N6       1.0000 0.39965  0.72810  0.01968  Biso   1.000  N
  N7       1.0000 0.10035  0.22810  0.48032  Biso   1.000  N
  N8       1.0000 0.89965  0.22810  0.01968  Biso   1.000  N
  N9       1.0000 0.32965  0.43800  0.29530  Biso   1.000  N
  N10      1.0000 0.67035  0.43800  0.20470  Biso   1.000  N
  N11      1.0000 0.82965  0.93800  0.29530  Biso   1.000  N
  N12      1.0000 0.17035  0.93800  0.20470  Biso   1.000  N
  N13      1.0000 0.67035  0.56200  0.70470  Biso   1.000  N
  N14      1.0000 0.32965  0.56200  0.79530  Biso   1.000  N
  N15      1.0000 0.17035  0.06200  0.70470  Biso   1.000  N
  N16      1.0000 0.82965  0.06200  0.79530  Biso   1.000  N
  N17      1.0000 0.28603  0.63200  0.07263  Biso   1.000  N
  N18      1.0000 0.71397  0.63200  0.42737  Biso   1.000  N
  N19      1.0000 0.78603  0.13200  0.07263  Biso   1.000  N
  N20      1.0000 0.21397  0.13200  0.42737  Biso   1.000  N
  N21      1.0000 0.71397  0.36800  0.92737  Biso   1.000  N
  N22      1.0000 0.28603  0.36800  0.57263  Biso   1.000  N
  N23      1.0000 0.21397  0.86800  0.92737  Biso   1.000  N
  N24      1.0000 0.78603  0.86800  0.57263  Biso   1.000  N
  N25      1.0000 0.34544  0.04650  0.75590  Biso   1.000  N
  N26      1.0000 0.65456  0.04650  0.74410  Biso   1.000  N
  N27      1.0000 0.84544  0.54650  0.75590  Biso   1.000  N
  N28      1.0000 0.15456  0.54650  0.74410  Biso   1.000  N
  N29      1.0000 0.65456  0.95350  0.24410  Biso   1.000  N
  N30      1.0000 0.34544  0.95350  0.25590  Biso   1.000  N
  N31      1.0000 0.15456  0.45350  0.24410  Biso   1.000  N
  N32      1.0000 0.84544  0.45350  0.25590  Biso   1.000  N
  N33      1.0000 0.27939  0.86450  0.94072  Biso   1.000  N
  N34      1.0000 0.72061  0.86450  0.55928  Biso   1.000  N
  N35      1.0000 0.77939  0.36450  0.94072  Biso   1.000  N
  N36      1.0000 0.22061  0.36450  0.55928  Biso   1.000  N
  N37      1.0000 0.72061  0.13550  0.05928  Biso   1.000  N
  N38      1.0000 0.27939  0.13550  0.44072  Biso   1.000  N
  N39      1.0000 0.22061  0.63550  0.05928  Biso   1.000  N
  N40      1.0000 0.77939  0.63550  0.44072  Biso   1.000  N
  N41      1.0000 0.52059  0.24070  0.50553  Biso   1.000  N
  N42      1.0000 0.47941  0.24070  0.99447  Biso   1.000  N
  N43      1.0000 0.02059  0.74070  0.50553  Biso   1.000  N
  N44      1.0000 0.97941  0.74070  0.99447  Biso   1.000  N
  N45      1.0000 0.47941  0.75930  0.49447  Biso   1.000  N
  N46      1.0000 0.52059  0.75930  0.00553  Biso   1.000  N
  N47      1.0000 0.97941  0.25930  0.49447  Biso   1.000  N
  N48      1.0000 0.02059  0.25930  0.00553  Biso   1.000  N
  N49      1.0000 0.62960  0.27020  0.47776  Biso   1.000  N
  N50      1.0000 0.37040  0.27020  0.02224  Biso   1.000  N
  N51      1.0000 0.12960  0.77020  0.47776  Biso   1.000  N
  N52      1.0000 0.87040  0.77020  0.02224  Biso   1.000  N
  N53      1.0000 0.37040  0.72980  0.52224  Biso   1.000  N
  N54      1.0000 0.62960  0.72980  0.97776  Biso   1.000  N
  N55      1.0000 0.87040  0.22980  0.52224  Biso   1.000  N
  N56      1.0000 0.12960  0.22980  0.97776  Biso   1.000  N
  N57      1.0000 0.24796  0.92290  0.06432  Biso   1.000  N
  N58      1.0000 0.75204  0.92290  0.43568  Biso   1.000  N
  N59      1.0000 0.74796  0.42290  0.06432  Biso   1.000  N
  N60      1.0000 0.25204  0.42290  0.43568  Biso   1.000  N
  N61      1.0000 0.75204  0.07710  0.93568  Biso   1.000  N
  N62      1.0000 0.24796  0.07710  0.56432  Biso   1.000  N
  N63      1.0000 0.25204  0.57710  0.93568  Biso   1.000  N
  N64      1.0000 0.74796  0.57710  0.56432  Biso   1.000  N
  C1       1.0000 0.38188  0.30630  0.46208  Biso   1.000  C
  C2       1.0000 0.61812  0.30630  0.03792  Biso   1.000  C
  C3       1.0000 0.88188  0.80630  0.46208  Biso   1.000  C
  C4       1.0000 0.11812  0.80630  0.03792  Biso   1.000  C
  C5       1.0000 0.61812  0.69370  0.53792  Biso   1.000  C
  C6       1.0000 0.38188  0.69370  0.96208  Biso   1.000  C
  C7       1.0000 0.11812  0.19370  0.53792  Biso   1.000  C
  C8       1.0000 0.88188  0.19370  0.96208  Biso   1.000  C
  C9       1.0000 0.35587  0.37970  0.47253  Biso   1.000  C
  C10      1.0000 0.64413  0.37970  0.02747  Biso   1.000  C
  C11      1.0000 0.85587  0.87970  0.47253  Biso   1.000  C
  C12      1.0000 0.14413  0.87970  0.02747  Biso   1.000  C
  C13      1.0000 0.64413  0.62030  0.52747  Biso   1.000  C
  C14      1.0000 0.35587  0.62030  0.97253  Biso   1.000  C
  C15      1.0000 0.14413  0.12030  0.52747  Biso   1.000  C
  C16      1.0000 0.85587  0.12030  0.97253  Biso   1.000  C
  H1       1.0000 0.35000  0.40390  0.51800  Biso   1.000  H
  H2       1.0000 0.65000  0.40390  0.98200  Biso   1.000  H
  H3       1.0000 0.85000  0.90390  0.51800  Biso   1.000  H
  H4       1.0000 0.15000  0.90390  0.98200  Biso   1.000  H
  H5       1.0000 0.65000  0.59610  0.48200  Biso   1.000  H
  H6       1.0000 0.35000  0.59610  0.01800  Biso   1.000  H
  H7       1.0000 0.15000  0.09610  0.48200  Biso   1.000  H
  H8       1.0000 0.85000  0.09610  0.01800  Biso   1.000  H
  C17      1.0000 0.33835  0.41810  0.41697  Biso   1.000  C
  C18      1.0000 0.66165  0.41810  0.08303  Biso   1.000  C
  C19      1.0000 0.83835  0.91810  0.41697  Biso   1.000  C
  C20      1.0000 0.16165  0.91810  0.08303  Biso   1.000  C
  C21      1.0000 0.66165  0.58190  0.58303  Biso   1.000  C
  C22      1.0000 0.33835  0.58190  0.91697  Biso   1.000  C
  C23      1.0000 0.16165  0.08190  0.58303  Biso   1.000  C
  C24      1.0000 0.83835  0.08190  0.91697  Biso   1.000  C
  H9       1.0000 0.32050  0.46790  0.42460  Biso   1.000  H
  H10      1.0000 0.67950  0.46790  0.07540  Biso   1.000  H
  H11      1.0000 0.82050  0.96790  0.42460  Biso   1.000  H
  H12      1.0000 0.17950  0.96790  0.07540  Biso   1.000  H
  H13      1.0000 0.67950  0.53210  0.57540  Biso   1.000  H
  H14      1.0000 0.32050  0.53210  0.92460  Biso   1.000  H
  H15      1.0000 0.17950  0.03210  0.57540  Biso   1.000  H
  H16      1.0000 0.82050  0.03210  0.92460  Biso   1.000  H
  C25      1.0000 0.34680  0.38380  0.35048  Biso   1.000  C
  C26      1.0000 0.65320  0.38380  0.14952  Biso   1.000  C
  C27      1.0000 0.84680  0.88380  0.35048  Biso   1.000  C
  C28      1.0000 0.15320  0.88380  0.14952  Biso   1.000  C
  C29      1.0000 0.65320  0.61620  0.64952  Biso   1.000  C
  C30      1.0000 0.34680  0.61620  0.85048  Biso   1.000  C
  C31      1.0000 0.15320  0.11620  0.64952  Biso   1.000  C
  C32      1.0000 0.84680  0.11620  0.85048  Biso   1.000  C
  C33      1.0000 0.37243  0.30740  0.33990  Biso   1.000  C
  C34      1.0000 0.62757  0.30740  0.16010  Biso   1.000  C
  C35      1.0000 0.87243  0.80740  0.33990  Biso   1.000  C
  C36      1.0000 0.12757  0.80740  0.16010  Biso   1.000  C
  C37      1.0000 0.62757  0.69260  0.66010  Biso   1.000  C
  C38      1.0000 0.37243  0.69260  0.83990  Biso   1.000  C
  C39      1.0000 0.12757  0.19260  0.66010  Biso   1.000  C
  C40      1.0000 0.87243  0.19260  0.83990  Biso   1.000  C
  H17      1.0000 0.37820  0.28230  0.29450  Biso   1.000  H
  H18      1.0000 0.62180  0.28230  0.20550  Biso   1.000  H
  H19      1.0000 0.87820  0.78230  0.29450  Biso   1.000  H
  H20      1.0000 0.12180  0.78230  0.20550  Biso   1.000  H
  H21      1.0000 0.62180  0.71770  0.70550  Biso   1.000  H
  H22      1.0000 0.37820  0.71770  0.79450  Biso   1.000  H
  H23      1.0000 0.12180  0.21770  0.70550  Biso   1.000  H
  H24      1.0000 0.87820  0.21770  0.79450  Biso   1.000  H
  C41      1.0000 0.38966  0.26760  0.39567  Biso   1.000  C
  C42      1.0000 0.61034  0.26760  0.10433  Biso   1.000  C
  C43      1.0000 0.88966  0.76760  0.39567  Biso   1.000  C
  C44      1.0000 0.11034  0.76760  0.10433  Biso   1.000  C
  C45      1.0000 0.61034  0.73240  0.60433  Biso   1.000  C
  C46      1.0000 0.38966  0.73240  0.89567  Biso   1.000  C
  C47      1.0000 0.11034  0.23240  0.60433  Biso   1.000  C
  C48      1.0000 0.88966  0.23240  0.89567  Biso   1.000  C
  H25      1.0000 0.40700  0.21330  0.38820  Biso   1.000  H
  H26      1.0000 0.59300  0.21330  0.11180  Biso   1.000  H
  H27      1.0000 0.90700  0.71330  0.38820  Biso   1.000  H
  H28      1.0000 0.09300  0.71330  0.11180  Biso   1.000  H
  H29      1.0000 0.59300  0.78670  0.61180  Biso   1.000  H
  H30      1.0000 0.40700  0.78670  0.88820  Biso   1.000  H
  H31      1.0000 0.09300  0.28670  0.61180  Biso   1.000  H
  H32      1.0000 0.90700  0.28670  0.88820  Biso   1.000  H
  C49      1.0000 0.32719  0.37690  0.23247  Biso   1.000  C
  C50      1.0000 0.67281  0.37690  0.26753  Biso   1.000  C
  C51      1.0000 0.82719  0.87690  0.23247  Biso   1.000  C
  C52      1.0000 0.17281  0.87690  0.26753  Biso   1.000  C
  C53      1.0000 0.67281  0.62310  0.76753  Biso   1.000  C
  C54      1.0000 0.32719  0.62310  0.73247  Biso   1.000  C
  C55      1.0000 0.17281  0.12310  0.76753  Biso   1.000  C
  C56      1.0000 0.82719  0.12310  0.73247  Biso   1.000  C
  C57      1.0000 0.31217  0.46960  0.17853  Biso   1.000  C
  C58      1.0000 0.68783  0.46960  0.32147  Biso   1.000  C
  C59      1.0000 0.81217  0.96960  0.17853  Biso   1.000  C
  C60      1.0000 0.18783  0.96960  0.32147  Biso   1.000  C
  C61      1.0000 0.68783  0.53040  0.82147  Biso   1.000  C
  C62      1.0000 0.31217  0.53040  0.67853  Biso   1.000  C
  C63      1.0000 0.18783  0.03040  0.82147  Biso   1.000  C
  C64      1.0000 0.81217  0.03040  0.67853  Biso   1.000  C
  C65      1.0000 0.30856  0.62340  0.18333  Biso   1.000  C
  C66      1.0000 0.69144  0.62340  0.31667  Biso   1.000  C
  C67      1.0000 0.80856  0.12340  0.18333  Biso   1.000  C
  C68      1.0000 0.19144  0.12340  0.31667  Biso   1.000  C
  C69      1.0000 0.69144  0.37660  0.81667  Biso   1.000  C
  C70      1.0000 0.30856  0.37660  0.68333  Biso   1.000  C
  C71      1.0000 0.19144  0.87660  0.81667  Biso   1.000  C
  C72      1.0000 0.80856  0.87660  0.68333  Biso   1.000  C
  H33      1.0000 0.31480  0.67610  0.22320  Biso   1.000  H
  H34      1.0000 0.68520  0.67610  0.27680  Biso   1.000  H
  H35      1.0000 0.81480  0.17610  0.22320  Biso   1.000  H
  H36      1.0000 0.18520  0.17610  0.27680  Biso   1.000  H
  H37      1.0000 0.68520  0.32390  0.77680  Biso   1.000  H
  H38      1.0000 0.31480  0.32390  0.72320  Biso   1.000  H
  H39      1.0000 0.18520  0.82390  0.77680  Biso   1.000  H
  H40      1.0000 0.81480  0.82390  0.72320  Biso   1.000  H
  C73      1.0000 0.29580  0.69890  0.12924  Biso   1.000  C
  C74      1.0000 0.70420  0.69890  0.37076  Biso   1.000  C
  C75      1.0000 0.79580  0.19890  0.12924  Biso   1.000  C
  C76      1.0000 0.20420  0.19890  0.37076  Biso   1.000  C
  C77      1.0000 0.70420  0.30110  0.87076  Biso   1.000  C
  C78      1.0000 0.29580  0.30110  0.62924  Biso   1.000  C
  C79      1.0000 0.20420  0.80110  0.87076  Biso   1.000  C
  C80      1.0000 0.79580  0.80110  0.62924  Biso   1.000  C
  H41      1.0000 0.29390  0.80490  0.13260  Biso   1.000  H
  H42      1.0000 0.70610  0.80490  0.36740  Biso   1.000  H
  H43      1.0000 0.79390  0.30490  0.13260  Biso   1.000  H
  H44      1.0000 0.20610  0.30490  0.36740  Biso   1.000  H
  H45      1.0000 0.70610  0.19510  0.86740  Biso   1.000  H
  H46      1.0000 0.29390  0.19510  0.63260  Biso   1.000  H
  H47      1.0000 0.20610  0.69510  0.86740  Biso   1.000  H
  H48      1.0000 0.79390  0.69510  0.63260  Biso   1.000  H
  C81      1.0000 0.28961  0.48320  0.06813  Biso   1.000  C
  C82      1.0000 0.71039  0.48320  0.43187  Biso   1.000  C
  C83      1.0000 0.78961  0.98320  0.06813  Biso   1.000  C
  C84      1.0000 0.21039  0.98320  0.43187  Biso   1.000  C
  C85      1.0000 0.71039  0.51680  0.93187  Biso   1.000  C
  C86      1.0000 0.28961  0.51680  0.56813  Biso   1.000  C
  C87      1.0000 0.21039  0.01680  0.93187  Biso   1.000  C
  C88      1.0000 0.78961  0.01680  0.56813  Biso   1.000  C
  H49      1.0000 0.28290  0.43330  0.02790  Biso   1.000  H
  H50      1.0000 0.71710  0.43330  0.47210  Biso   1.000  H
  H51      1.0000 0.78290  0.93330  0.02790  Biso   1.000  H
  H52      1.0000 0.21710  0.93330  0.47210  Biso   1.000  H
  H53      1.0000 0.71710  0.56670  0.97210  Biso   1.000  H
  H54      1.0000 0.28290  0.56670  0.52790  Biso   1.000  H
  H55      1.0000 0.21710  0.06670  0.97210  Biso   1.000  H
  H56      1.0000 0.78290  0.06670  0.52790  Biso   1.000  H
  C89      1.0000 0.30269  0.39860  0.11927  Biso   1.000  C
  C90      1.0000 0.69731  0.39860  0.38073  Biso   1.000  C
  C91      1.0000 0.80269  0.89860  0.11927  Biso   1.000  C
  C92      1.0000 0.19731  0.89860  0.38073  Biso   1.000  C
  C93      1.0000 0.69731  0.60140  0.88073  Biso   1.000  C
  C94      1.0000 0.30269  0.60140  0.61927  Biso   1.000  C
  C95      1.0000 0.19731  0.10140  0.88073  Biso   1.000  C
  C96      1.0000 0.80269  0.10140  0.61927  Biso   1.000  C
  H57      1.0000 0.30510  0.29330  0.11380  Biso   1.000  H
  H58      1.0000 0.69490  0.29330  0.38620  Biso   1.000  H
  H59      1.0000 0.80510  0.79330  0.11380  Biso   1.000  H
  H60      1.0000 0.19490  0.79330  0.38620  Biso   1.000  H
  H61      1.0000 0.69490  0.70670  0.88620  Biso   1.000  H
  H62      1.0000 0.30510  0.70670  0.61380  Biso   1.000  H
  H63      1.0000 0.19490  0.20670  0.88620  Biso   1.000  H
  H64      1.0000 0.80510  0.20670  0.61380  Biso   1.000  H
  C97      1.0000 0.38623  0.21750  0.58055  Biso   1.000  C
  C98      1.0000 0.61377  0.21750  0.91945  Biso   1.000  C
  C99      1.0000 0.88623  0.71750  0.58055  Biso   1.000  C
  C100     1.0000 0.11377  0.71750  0.91945  Biso   1.000  C
  C101     1.0000 0.61377  0.78250  0.41945  Biso   1.000  C
  C102     1.0000 0.38623  0.78250  0.08055  Biso   1.000  C
  C103     1.0000 0.11377  0.28250  0.41945  Biso   1.000  C
  C104     1.0000 0.88623  0.28250  0.08055  Biso   1.000  C
  C105     1.0000 0.36763  0.09660  0.57666  Biso   1.000  C
  C106     1.0000 0.63237  0.09660  0.92334  Biso   1.000  C
  C107     1.0000 0.86763  0.59660  0.57666  Biso   1.000  C
  C108     1.0000 0.13237  0.59660  0.92334  Biso   1.000  C
  C109     1.0000 0.63237  0.90340  0.42334  Biso   1.000  C
  C110     1.0000 0.36763  0.90340  0.07666  Biso   1.000  C
  C111     1.0000 0.13237  0.40340  0.42334  Biso   1.000  C
  C112     1.0000 0.86763  0.40340  0.07666  Biso   1.000  C
  H65      1.0000 0.36380  0.05060  0.53350  Biso   1.000  H
  H66      1.0000 0.63620  0.05060  0.96650  Biso   1.000  H
  H67      1.0000 0.86380  0.55060  0.53350  Biso   1.000  H
  H68      1.0000 0.13620  0.55060  0.96650  Biso   1.000  H
  H69      1.0000 0.63620  0.94940  0.46650  Biso   1.000  H
  H70      1.0000 0.36380  0.94940  0.03350  Biso   1.000  H
  H71      1.0000 0.13620  0.44940  0.46650  Biso   1.000  H
  H72      1.0000 0.86380  0.44940  0.03350  Biso   1.000  H
  C113     1.0000 0.35459  0.04250  0.63538  Biso   1.000  C
  C114     1.0000 0.64541  0.04250  0.86462  Biso   1.000  C
  C115     1.0000 0.85459  0.54250  0.63538  Biso   1.000  C
  C116     1.0000 0.14541  0.54250  0.86462  Biso   1.000  C
  C117     1.0000 0.64541  0.95750  0.36462  Biso   1.000  C
  C118     1.0000 0.35459  0.95750  0.13538  Biso   1.000  C
  C119     1.0000 0.14541  0.45750  0.36462  Biso   1.000  C
  C120     1.0000 0.85459  0.45750  0.13538  Biso   1.000  C
  H73      1.0000 0.34180  0.95950  0.63240  Biso   1.000  H
  H74      1.0000 0.65820  0.95950  0.86760  Biso   1.000  H
  H75      1.0000 0.84180  0.45950  0.63240  Biso   1.000  H
  H76      1.0000 0.15820  0.45950  0.86760  Biso   1.000  H
  H77      1.0000 0.65820  0.04050  0.36760  Biso   1.000  H
  H78      1.0000 0.34180  0.04050  0.13240  Biso   1.000  H
  H79      1.0000 0.15820  0.54050  0.36760  Biso   1.000  H
  H80      1.0000 0.84180  0.54050  0.13240  Biso   1.000  H
  C121     1.0000 0.36011  0.10880  0.69875  Biso   1.000  C
  C122     1.0000 0.63989  0.10880  0.80125  Biso   1.000  C
  C123     1.0000 0.86011  0.60880  0.69875  Biso   1.000  C
  C124     1.0000 0.13989  0.60880  0.80125  Biso   1.000  C
  C125     1.0000 0.63989  0.89120  0.30125  Biso   1.000  C
  C126     1.0000 0.36011  0.89120  0.19875  Biso   1.000  C
  C127     1.0000 0.13989  0.39120  0.30125  Biso   1.000  C
  C128     1.0000 0.86011  0.39120  0.19875  Biso   1.000  C
  C129     1.0000 0.37899  0.22960  0.70339  Biso   1.000  C
  C130     1.0000 0.62101  0.22960  0.79661  Biso   1.000  C
  C131     1.0000 0.87899  0.72960  0.70339  Biso   1.000  C
  C132     1.0000 0.12101  0.72960  0.79661  Biso   1.000  C
  C133     1.0000 0.62101  0.77040  0.29661  Biso   1.000  C
  C134     1.0000 0.37899  0.77040  0.20339  Biso   1.000  C
  C135     1.0000 0.12101  0.27040  0.29661  Biso   1.000  C
  C136     1.0000 0.87899  0.27040  0.20339  Biso   1.000  C
  H81      1.0000 0.38300  0.27490  0.74670  Biso   1.000  H
  H82      1.0000 0.61700  0.27490  0.75330  Biso   1.000  H
  H83      1.0000 0.88300  0.77490  0.74670  Biso   1.000  H
  H84      1.0000 0.11700  0.77490  0.75330  Biso   1.000  H
  H85      1.0000 0.61700  0.72510  0.25330  Biso   1.000  H
  H86      1.0000 0.38300  0.72510  0.24670  Biso   1.000  H
  H87      1.0000 0.11700  0.22510  0.25330  Biso   1.000  H
  H88      1.0000 0.88300  0.22510  0.24670  Biso   1.000  H
  C137     1.0000 0.39200  0.28370  0.64393  Biso   1.000  C
  C138     1.0000 0.60800  0.28370  0.85607  Biso   1.000  C
  C139     1.0000 0.89200  0.78370  0.64393  Biso   1.000  C
  C140     1.0000 0.10800  0.78370  0.85607  Biso   1.000  C
  C141     1.0000 0.60800  0.71630  0.35607  Biso   1.000  C
  C142     1.0000 0.39200  0.71630  0.14393  Biso   1.000  C
  C143     1.0000 0.10800  0.21630  0.35607  Biso   1.000  C
  C144     1.0000 0.89200  0.21630  0.14393  Biso   1.000  C
  H89      1.0000 0.40490  0.36640  0.64670  Biso   1.000  H
  H90      1.0000 0.59510  0.36640  0.85330  Biso   1.000  H
  H91      1.0000 0.90490  0.86640  0.64670  Biso   1.000  H
  H92      1.0000 0.09510  0.86640  0.85330  Biso   1.000  H
  H93      1.0000 0.59510  0.63360  0.35330  Biso   1.000  H
  H94      1.0000 0.40490  0.63360  0.14670  Biso   1.000  H
  H95      1.0000 0.09510  0.13360  0.35330  Biso   1.000  H
  H96      1.0000 0.90490  0.13360  0.14670  Biso   1.000  H
  C145     1.0000 0.33715  0.11760  0.81402  Biso   1.000  C
  C146     1.0000 0.66285  0.11760  0.68598  Biso   1.000  C
  C147     1.0000 0.83715  0.61760  0.81402  Biso   1.000  C
  C148     1.0000 0.16285  0.61760  0.68598  Biso   1.000  C
  C149     1.0000 0.66285  0.88240  0.18598  Biso   1.000  C
  C150     1.0000 0.33715  0.88240  0.31402  Biso   1.000  C
  C151     1.0000 0.16285  0.38240  0.18598  Biso   1.000  C
  C152     1.0000 0.83715  0.38240  0.31402  Biso   1.000  C
  C153     1.0000 0.31714  0.02590  0.85799  Biso   1.000  C
  C154     1.0000 0.68286  0.02590  0.64201  Biso   1.000  C
  C155     1.0000 0.81714  0.52590  0.85799  Biso   1.000  C
  C156     1.0000 0.18286  0.52590  0.64201  Biso   1.000  C
  C157     1.0000 0.68286  0.97410  0.14201  Biso   1.000  C
  C158     1.0000 0.31714  0.97410  0.35799  Biso   1.000  C
  C159     1.0000 0.18286  0.47410  0.14201  Biso   1.000  C
  C160     1.0000 0.81714  0.47410  0.35799  Biso   1.000  C
  C161     1.0000 0.29693  0.92970  0.82915  Biso   1.000  C
  C162     1.0000 0.70307  0.92970  0.67085  Biso   1.000  C
  C163     1.0000 0.79693  0.42970  0.82915  Biso   1.000  C
  C164     1.0000 0.20307  0.42970  0.67085  Biso   1.000  C
  C165     1.0000 0.70307  0.07030  0.17085  Biso   1.000  C
  C166     1.0000 0.29693  0.07030  0.32915  Biso   1.000  C
  C167     1.0000 0.20307  0.57030  0.17085  Biso   1.000  C
  C168     1.0000 0.79693  0.57030  0.32915  Biso   1.000  C
  H97      1.0000 0.29580  0.91740  0.78070  Biso   1.000  H
  H98      1.0000 0.70420  0.91740  0.71930  Biso   1.000  H
  H99      1.0000 0.79580  0.41740  0.78070  Biso   1.000  H
  H100     1.0000 0.20420  0.41740  0.71930  Biso   1.000  H
  H101     1.0000 0.70420  0.08260  0.21930  Biso   1.000  H
  H102     1.0000 0.29580  0.08260  0.28070  Biso   1.000  H
  H103     1.0000 0.20420  0.58260  0.21930  Biso   1.000  H
  H104     1.0000 0.79580  0.58260  0.28070  Biso   1.000  H
  C169     1.0000 0.27853  0.85210  0.87191  Biso   1.000  C
  C170     1.0000 0.72147  0.85210  0.62809  Biso   1.000  C
  C171     1.0000 0.77853  0.35210  0.87191  Biso   1.000  C
  C172     1.0000 0.22147  0.35210  0.62809  Biso   1.000  C
  C173     1.0000 0.72147  0.14790  0.12809  Biso   1.000  C
  C174     1.0000 0.27853  0.14790  0.37191  Biso   1.000  C
  C175     1.0000 0.22147  0.64790  0.12809  Biso   1.000  C
  C176     1.0000 0.77853  0.64790  0.37191  Biso   1.000  C
  H105     1.0000 0.26460  0.78700  0.85170  Biso   1.000  H
  H106     1.0000 0.73540  0.78700  0.64830  Biso   1.000  H
  H107     1.0000 0.76460  0.28700  0.85170  Biso   1.000  H
  H108     1.0000 0.23540  0.28700  0.64830  Biso   1.000  H
  H109     1.0000 0.73540  0.21300  0.14830  Biso   1.000  H
  H110     1.0000 0.26460  0.21300  0.35170  Biso   1.000  H
  H111     1.0000 0.23540  0.71300  0.14830  Biso   1.000  H
  H112     1.0000 0.76460  0.71300  0.35170  Biso   1.000  H
  C177     1.0000 0.29872  0.95910  0.96789  Biso   1.000  C
  C178     1.0000 0.70128  0.95910  0.53211  Biso   1.000  C
  C179     1.0000 0.79872  0.45910  0.96789  Biso   1.000  C
  C180     1.0000 0.20128  0.45910  0.53211  Biso   1.000  C
  C181     1.0000 0.70128  0.04090  0.03211  Biso   1.000  C
  C182     1.0000 0.29872  0.04090  0.46789  Biso   1.000  C
  C183     1.0000 0.20128  0.54090  0.03211  Biso   1.000  C
  C184     1.0000 0.79872  0.54090  0.46789  Biso   1.000  C
  H113     1.0000 0.29940  0.96960  0.01650  Biso   1.000  H
  H114     1.0000 0.70060  0.96960  0.48350  Biso   1.000  H
  H115     1.0000 0.79940  0.46960  0.01650  Biso   1.000  H
  H116     1.0000 0.20060  0.46960  0.48350  Biso   1.000  H
  H117     1.0000 0.70060  0.03040  0.98350  Biso   1.000  H
  H118     1.0000 0.29940  0.03040  0.51650  Biso   1.000  H
  H119     1.0000 0.20060  0.53040  0.98350  Biso   1.000  H
  H120     1.0000 0.79940  0.53040  0.51650  Biso   1.000  H
  C185     1.0000 0.31777  0.04240  0.92891  Biso   1.000  C
  C186     1.0000 0.68223  0.04240  0.57109  Biso   1.000  C
  C187     1.0000 0.81777  0.54240  0.92891  Biso   1.000  C
  C188     1.0000 0.18223  0.54240  0.57109  Biso   1.000  C
  C189     1.0000 0.68223  0.95760  0.07109  Biso   1.000  C
  C190     1.0000 0.31777  0.95760  0.42891  Biso   1.000  C
  C191     1.0000 0.18223  0.45760  0.07109  Biso   1.000  C
  C192     1.0000 0.81777  0.45760  0.42891  Biso   1.000  C
  H121     1.0000 0.33100  0.10950  0.95030  Biso   1.000  H
  H122     1.0000 0.66900  0.10950  0.54970  Biso   1.000  H
  H123     1.0000 0.83100  0.60950  0.95030  Biso   1.000  H
  H124     1.0000 0.16900  0.60950  0.54970  Biso   1.000  H
  H125     1.0000 0.66900  0.89050  0.04970  Biso   1.000  H
  H126     1.0000 0.33100  0.89050  0.45030  Biso   1.000  H
  H127     1.0000 0.16900  0.39050  0.04970  Biso   1.000  H
  H128     1.0000 0.83100  0.39050  0.45030  Biso   1.000  H
  C193     1.0000 0.42990  0.26140  0.51398  Biso   1.000  C
  C194     1.0000 0.57010  0.26140  0.98602  Biso   1.000  C
  C195     1.0000 0.92990  0.76140  0.51398  Biso   1.000  C
  C196     1.0000 0.07010  0.76140  0.98602  Biso   1.000  C
  C197     1.0000 0.57010  0.73860  0.48602  Biso   1.000  C
  C198     1.0000 0.42990  0.73860  0.01398  Biso   1.000  C
  C199     1.0000 0.07010  0.23860  0.48602  Biso   1.000  C
  C200     1.0000 0.92990  0.23860  0.01398  Biso   1.000  C
  C201     1.0000 0.44506  0.14900  0.54858  Biso   1.000  C
  C202     1.0000 0.55494  0.14900  0.95142  Biso   1.000  C
  C203     1.0000 0.94506  0.64900  0.54858  Biso   1.000  C
  C204     1.0000 0.05494  0.64900  0.95142  Biso   1.000  C
  C205     1.0000 0.55494  0.85100  0.45142  Biso   1.000  C
  C206     1.0000 0.44506  0.85100  0.04858  Biso   1.000  C
  C207     1.0000 0.05494  0.35100  0.45142  Biso   1.000  C
  C208     1.0000 0.94506  0.35100  0.04858  Biso   1.000  C
  H129     1.0000 0.43490  0.07650  0.57490  Biso   1.000  H
  H130     1.0000 0.56510  0.07650  0.92510  Biso   1.000  H
  H131     1.0000 0.93490  0.57650  0.57490  Biso   1.000  H
  H132     1.0000 0.06510  0.57650  0.92510  Biso   1.000  H
  H133     1.0000 0.56510  0.92350  0.42510  Biso   1.000  H
  H134     1.0000 0.43490  0.92350  0.07490  Biso   1.000  H
  H135     1.0000 0.06510  0.42350  0.42510  Biso   1.000  H
  H136     1.0000 0.93490  0.42350  0.07490  Biso   1.000  H
  C209     1.0000 0.47487  0.14230  0.54471  Biso   1.000  C
  C210     1.0000 0.52513  0.14230  0.95529  Biso   1.000  C
  C211     1.0000 0.97487  0.64230  0.54471  Biso   1.000  C
  C212     1.0000 0.02513  0.64230  0.95529  Biso   1.000  C
  C213     1.0000 0.52513  0.85770  0.45529  Biso   1.000  C
  C214     1.0000 0.47487  0.85770  0.04471  Biso   1.000  C
  C215     1.0000 0.02513  0.35770  0.45529  Biso   1.000  C
  C216     1.0000 0.97487  0.35770  0.04471  Biso   1.000  C
  H137     1.0000 0.48500  0.06590  0.56890  Biso   1.000  H
  H138     1.0000 0.51500  0.06590  0.93110  Biso   1.000  H
  H139     1.0000 0.98500  0.56590  0.56890  Biso   1.000  H
  H140     1.0000 0.01500  0.56590  0.93110  Biso   1.000  H
  H141     1.0000 0.51500  0.93410  0.43110  Biso   1.000  H
  H142     1.0000 0.48500  0.93410  0.06890  Biso   1.000  H
  H143     1.0000 0.01500  0.43410  0.43110  Biso   1.000  H
  H144     1.0000 0.98500  0.43410  0.06890  Biso   1.000  H
  C217     1.0000 0.49013  0.24660  0.50567  Biso   1.000  C
  C218     1.0000 0.50987  0.24660  0.99433  Biso   1.000  C
  C219     1.0000 0.99013  0.74660  0.50567  Biso   1.000  C
  C220     1.0000 0.00987  0.74660  0.99433  Biso   1.000  C
  C221     1.0000 0.50987  0.75340  0.49433  Biso   1.000  C
  C222     1.0000 0.49013  0.75340  0.00567  Biso   1.000  C
  C223     1.0000 0.00987  0.25340  0.49433  Biso   1.000  C
  C224     1.0000 0.99013  0.25340  0.00567  Biso   1.000  C
  C225     1.0000 0.47493  0.35800  0.47060  Biso   1.000  C
  C226     1.0000 0.52507  0.35800  0.02940  Biso   1.000  C
  C227     1.0000 0.97493  0.85800  0.47060  Biso   1.000  C
  C228     1.0000 0.02507  0.85800  0.02940  Biso   1.000  C
  C229     1.0000 0.52507  0.64200  0.52940  Biso   1.000  C
  C230     1.0000 0.47493  0.64200  0.97060  Biso   1.000  C
  C231     1.0000 0.02507  0.14200  0.52940  Biso   1.000  C
  C232     1.0000 0.97493  0.14200  0.97060  Biso   1.000  C
  H145     1.0000 0.48500  0.42950  0.44360  Biso   1.000  H
  H146     1.0000 0.51500  0.42950  0.05640  Biso   1.000  H
  H147     1.0000 0.98500  0.92950  0.44360  Biso   1.000  H
  H148     1.0000 0.01500  0.92950  0.05640  Biso   1.000  H
  H149     1.0000 0.51500  0.57050  0.55640  Biso   1.000  H
  H150     1.0000 0.48500  0.57050  0.94360  Biso   1.000  H
  H151     1.0000 0.01500  0.07050  0.55640  Biso   1.000  H
  H152     1.0000 0.98500  0.07050  0.94360  Biso   1.000  H
  C233     1.0000 0.44525  0.36520  0.47477  Biso   1.000  C
  C234     1.0000 0.55475  0.36520  0.02523  Biso   1.000  C
  C235     1.0000 0.94525  0.86520  0.47477  Biso   1.000  C
  C236     1.0000 0.05475  0.86520  0.02523  Biso   1.000  C
  C237     1.0000 0.55475  0.63480  0.52523  Biso   1.000  C
  C238     1.0000 0.44525  0.63480  0.97477  Biso   1.000  C
  C239     1.0000 0.05475  0.13480  0.52523  Biso   1.000  C
  C240     1.0000 0.94525  0.13480  0.97477  Biso   1.000  C
  H153     1.0000 0.43510  0.44180  0.45060  Biso   1.000  H
  H154     1.0000 0.56490  0.44180  0.04940  Biso   1.000  H
  H155     1.0000 0.93510  0.94180  0.45060  Biso   1.000  H
  H156     1.0000 0.06490  0.94180  0.04940  Biso   1.000  H
  H157     1.0000 0.56490  0.55820  0.54940  Biso   1.000  H
  H158     1.0000 0.43510  0.55820  0.95060  Biso   1.000  H
  H159     1.0000 0.06490  0.05820  0.54940  Biso   1.000  H
  H160     1.0000 0.93510  0.05820  0.95060  Biso   1.000  H
  C241     1.0000 0.53734  0.27110  0.45141  Biso   1.000  C
  C242     1.0000 0.46266  0.27110  0.04859  Biso   1.000  C
  C243     1.0000 0.03734  0.77110  0.45141  Biso   1.000  C
  C244     1.0000 0.96266  0.77110  0.04859  Biso   1.000  C
  C245     1.0000 0.46266  0.72890  0.54859  Biso   1.000  C
  C246     1.0000 0.53734  0.72890  0.95141  Biso   1.000  C
  C247     1.0000 0.96266  0.22890  0.54859  Biso   1.000  C
  C248     1.0000 0.03734  0.22890  0.95141  Biso   1.000  C
  C249     1.0000 0.56942  0.26850  0.46344  Biso   1.000  C
  C250     1.0000 0.43058  0.26850  0.03656  Biso   1.000  C
  C251     1.0000 0.06942  0.76850  0.46344  Biso   1.000  C
  C252     1.0000 0.93058  0.76850  0.03656  Biso   1.000  C
  C253     1.0000 0.43058  0.73150  0.53656  Biso   1.000  C
  C254     1.0000 0.56942  0.73150  0.96344  Biso   1.000  C
  C255     1.0000 0.93058  0.23150  0.53656  Biso   1.000  C
  C256     1.0000 0.06942  0.23150  0.96344  Biso   1.000  C
  C257     1.0000 0.58251  0.24740  0.52668  Biso   1.000  C
  C258     1.0000 0.41749  0.24740  0.97332  Biso   1.000  C
  C259     1.0000 0.08251  0.74740  0.52668  Biso   1.000  C
  C260     1.0000 0.91749  0.74740  0.97332  Biso   1.000  C
  C261     1.0000 0.41749  0.75260  0.47332  Biso   1.000  C
  C262     1.0000 0.58251  0.75260  0.02668  Biso   1.000  C
  C263     1.0000 0.91749  0.25260  0.47332  Biso   1.000  C
  C264     1.0000 0.08251  0.25260  0.02668  Biso   1.000  C
  H161     1.0000 0.57120  0.23120  0.56660  Biso   1.000  H
  H162     1.0000 0.42880  0.23120  0.93340  Biso   1.000  H
  H163     1.0000 0.07120  0.73120  0.56660  Biso   1.000  H
  H164     1.0000 0.92880  0.73120  0.93340  Biso   1.000  H
  H165     1.0000 0.42880  0.76880  0.43340  Biso   1.000  H
  H166     1.0000 0.57120  0.76880  0.06660  Biso   1.000  H
  H167     1.0000 0.92880  0.26880  0.43340  Biso   1.000  H
  H168     1.0000 0.07120  0.26880  0.06660  Biso   1.000  H
  C265     1.0000 0.61240  0.25020  0.53122  Biso   1.000  C
  C266     1.0000 0.38760  0.25020  0.96878  Biso   1.000  C
  C267     1.0000 0.11240  0.75020  0.53122  Biso   1.000  C
  C268     1.0000 0.88760  0.75020  0.96878  Biso   1.000  C
  C269     1.0000 0.38760  0.74980  0.46878  Biso   1.000  C
  C270     1.0000 0.61240  0.74980  0.03122  Biso   1.000  C
  C271     1.0000 0.88760  0.24980  0.46878  Biso   1.000  C
  C272     1.0000 0.11240  0.24980  0.03122  Biso   1.000  C
  H169     1.0000 0.62100  0.23700  0.57530  Biso   1.000  H
  H170     1.0000 0.37900  0.23700  0.92470  Biso   1.000  H
  H171     1.0000 0.12100  0.73700  0.57530  Biso   1.000  H
  H172     1.0000 0.87900  0.73700  0.92470  Biso   1.000  H
  H173     1.0000 0.37900  0.76300  0.42470  Biso   1.000  H
  H174     1.0000 0.62100  0.76300  0.07530  Biso   1.000  H
  H175     1.0000 0.87900  0.26300  0.42470  Biso   1.000  H
  H176     1.0000 0.12100  0.26300  0.07530  Biso   1.000  H
  C273     1.0000 0.61672  0.29280  0.41786  Biso   1.000  C
  C274     1.0000 0.38328  0.29280  0.08214  Biso   1.000  C
  C275     1.0000 0.11672  0.79280  0.41786  Biso   1.000  C
  C276     1.0000 0.88328  0.79280  0.08214  Biso   1.000  C
  C277     1.0000 0.38328  0.70720  0.58214  Biso   1.000  C
  C278     1.0000 0.61672  0.70720  0.91786  Biso   1.000  C
  C279     1.0000 0.88328  0.20720  0.58214  Biso   1.000  C
  C280     1.0000 0.11672  0.20720  0.91786  Biso   1.000  C
  H177     1.0000 0.62860  0.30920  0.37890  Biso   1.000  H
  H178     1.0000 0.37140  0.30920  0.12110  Biso   1.000  H
  H179     1.0000 0.12860  0.80920  0.37890  Biso   1.000  H
  H180     1.0000 0.87140  0.80920  0.12110  Biso   1.000  H
  H181     1.0000 0.37140  0.69080  0.62110  Biso   1.000  H
  H182     1.0000 0.62860  0.69080  0.87890  Biso   1.000  H
  H183     1.0000 0.87140  0.19080  0.62110  Biso   1.000  H
  H184     1.0000 0.12860  0.19080  0.87890  Biso   1.000  H
  C281     1.0000 0.58717  0.29440  0.40785  Biso   1.000  C
  C282     1.0000 0.41283  0.29440  0.09215  Biso   1.000  C
  C283     1.0000 0.08717  0.79440  0.40785  Biso   1.000  C
  C284     1.0000 0.91283  0.79440  0.09215  Biso   1.000  C
  C285     1.0000 0.41283  0.70560  0.59215  Biso   1.000  C
  C286     1.0000 0.58717  0.70560  0.90785  Biso   1.000  C
  C287     1.0000 0.91283  0.20560  0.59215  Biso   1.000  C
  C288     1.0000 0.08717  0.20560  0.90785  Biso   1.000  C
  H185     1.0000 0.57920  0.31290  0.36350  Biso   1.000  H
  H186     1.0000 0.42080  0.31290  0.13650  Biso   1.000  H
  H187     1.0000 0.07920  0.81290  0.36350  Biso   1.000  H
  H188     1.0000 0.92080  0.81290  0.13650  Biso   1.000  H
  H189     1.0000 0.42080  0.68710  0.63650  Biso   1.000  H
  H190     1.0000 0.57920  0.68710  0.86350  Biso   1.000  H
  H191     1.0000 0.92080  0.18710  0.63650  Biso   1.000  H
  H192     1.0000 0.07920  0.18710  0.86350  Biso   1.000  H
  C289     1.0000 0.24458  0.01240  0.10659  Biso   1.000  C
  C290     1.0000 0.75542  0.01240  0.39341  Biso   1.000  C
  C291     1.0000 0.74458  0.51240  0.10659  Biso   1.000  C
  C292     1.0000 0.25542  0.51240  0.39341  Biso   1.000  C
  C293     1.0000 0.75542  0.98760  0.89341  Biso   1.000  C
  C294     1.0000 0.24458  0.98760  0.60659  Biso   1.000  C
  C295     1.0000 0.25542  0.48760  0.89341  Biso   1.000  C
  C296     1.0000 0.74458  0.48760  0.60659  Biso   1.000  C
  H193     1.0000 0.32300  0.50800  0.30250  Biso   1.000  H
  H194     1.0000 0.67700  0.50800  0.19750  Biso   1.000  H
  H195     1.0000 0.82300  0.00800  0.30250  Biso   1.000  H
  H196     1.0000 0.17700  0.00800  0.19750  Biso   1.000  H
  H197     1.0000 0.67700  0.49200  0.69750  Biso   1.000  H
  H198     1.0000 0.32300  0.49200  0.80250  Biso   1.000  H
  H199     1.0000 0.17700  0.99200  0.69750  Biso   1.000  H
  H200     1.0000 0.82300  0.99200  0.80250  Biso   1.000  H
  H201     1.0000 0.34090  0.95500  0.75070  Biso   1.000  H
  H202     1.0000 0.65910  0.95500  0.74930  Biso   1.000  H
  H203     1.0000 0.84090  0.45500  0.75070  Biso   1.000  H
  H204     1.0000 0.15910  0.45500  0.74930  Biso   1.000  H
  H205     1.0000 0.65910  0.04500  0.24930  Biso   1.000  H
  H206     1.0000 0.34090  0.04500  0.25070  Biso   1.000  H
  H207     1.0000 0.15910  0.54500  0.24930  Biso   1.000  H
  H208     1.0000 0.84090  0.54500  0.25070  Biso   1.000  H
  H209     1.0000 0.52720  0.21500  0.53420  Biso   1.000  H
  H210     1.0000 0.47280  0.21500  0.96580  Biso   1.000  H
  H211     1.0000 0.02720  0.71500  0.53420  Biso   1.000  H
  H212     1.0000 0.97280  0.71500  0.96580  Biso   1.000  H
  H213     1.0000 0.47280  0.78500  0.46580  Biso   1.000  H
  H214     1.0000 0.52720  0.78500  0.03420  Biso   1.000  H
  H215     1.0000 0.97280  0.28500  0.46580  Biso   1.000  H
  H216     1.0000 0.02720  0.28500  0.03420  Biso   1.000  H
  O25      1.0000 0.03738  0.40370  0.13417  Biso   1.000  O
  O26      1.0000 0.96262  0.40370  0.36583  Biso   1.000  O
  O27      1.0000 0.53738  0.90370  0.13417  Biso   1.000  O
  O28      1.0000 0.46262  0.90370  0.36583  Biso   1.000  O
  O29      1.0000 0.96262  0.59630  0.86583  Biso   1.000  O
  O30      1.0000 0.03738  0.59630  0.63417  Biso   1.000  O
  O31      1.0000 0.46262  0.09630  0.86583  Biso   1.000  O
  O32      1.0000 0.53738  0.09630  0.63417  Biso   1.000  O
  N65      1.0000 0.04584  0.59810  0.20665  Biso   1.000  N
  N66      1.0000 0.95416  0.59810  0.29335  Biso   1.000  N
  N67      1.0000 0.54584  0.09810  0.20665  Biso   1.000  N
  N68      1.0000 0.45416  0.09810  0.29335  Biso   1.000  N
  N69      1.0000 0.95416  0.40190  0.79335  Biso   1.000  N
  N70      1.0000 0.04584  0.40190  0.70665  Biso   1.000  N
  N71      1.0000 0.45416  0.90190  0.79335  Biso   1.000  N
  N72      1.0000 0.54584  0.90190  0.70665  Biso   1.000  N
  C297     1.0000 0.03438  0.53420  0.15170  Biso   1.000  C
  C298     1.0000 0.96562  0.53420  0.34830  Biso   1.000  C
  C299     1.0000 0.53438  0.03420  0.15170  Biso   1.000  C
  C300     1.0000 0.46562  0.03420  0.34830  Biso   1.000  C
  C301     1.0000 0.96562  0.46580  0.84830  Biso   1.000  C
  C302     1.0000 0.03438  0.46580  0.65170  Biso   1.000  C
  C303     1.0000 0.46562  0.96580  0.84830  Biso   1.000  C
  C304     1.0000 0.53438  0.96580  0.65170  Biso   1.000  C
  H217     1.0000 0.02270  0.59570  0.12300  Biso   1.000  H
  H218     1.0000 0.97730  0.59570  0.37700  Biso   1.000  H
  H219     1.0000 0.52270  0.09570  0.12300  Biso   1.000  H
  H220     1.0000 0.47730  0.09570  0.37700  Biso   1.000  H
  H221     1.0000 0.97730  0.40430  0.87700  Biso   1.000  H
  H222     1.0000 0.02270  0.40430  0.62300  Biso   1.000  H
  H223     1.0000 0.47730  0.90430  0.87700  Biso   1.000  H
  H224     1.0000 0.52270  0.90430  0.62300  Biso   1.000  H
  C305     1.0000 0.04165  0.75900  0.22080  Biso   1.000  C
  C306     1.0000 0.95835  0.75900  0.27920  Biso   1.000  C
  C307     1.0000 0.54165  0.25900  0.22080  Biso   1.000  C
  C308     1.0000 0.45835  0.25900  0.27920  Biso   1.000  C
  C309     1.0000 0.95835  0.24100  0.77920  Biso   1.000  C
  C310     1.0000 0.04165  0.24100  0.72080  Biso   1.000  C
  C311     1.0000 0.45835  0.74100  0.77920  Biso   1.000  C
  C312     1.0000 0.54165  0.74100  0.72080  Biso   1.000  C
  H225     1.0000 0.02860  0.80200  0.18610  Biso   1.000  H
  H226     1.0000 0.97140  0.80200  0.31390  Biso   1.000  H
  H227     1.0000 0.52860  0.30200  0.18610  Biso   1.000  H
  H228     1.0000 0.47140  0.30200  0.31390  Biso   1.000  H
  H229     1.0000 0.97140  0.19800  0.81390  Biso   1.000  H
  H230     1.0000 0.02860  0.19800  0.68610  Biso   1.000  H
  H231     1.0000 0.47140  0.69800  0.81390  Biso   1.000  H
  H232     1.0000 0.52860  0.69800  0.68610  Biso   1.000  H
  H233     1.0000 0.06030  0.81080  0.21910  Biso   1.000  H
  H234     1.0000 0.93970  0.81080  0.28090  Biso   1.000  H
  H235     1.0000 0.56030  0.31080  0.21910  Biso   1.000  H
  H236     1.0000 0.43970  0.31080  0.28090  Biso   1.000  H
  H237     1.0000 0.93970  0.18920  0.78090  Biso   1.000  H
  H238     1.0000 0.06030  0.18920  0.71910  Biso   1.000  H
  H239     1.0000 0.43970  0.68920  0.78090  Biso   1.000  H
  H240     1.0000 0.56030  0.68920  0.71910  Biso   1.000  H
  H241     1.0000 0.03320  0.77150  0.26660  Biso   1.000  H
  H242     1.0000 0.96680  0.77150  0.23340  Biso   1.000  H
  H243     1.0000 0.53320  0.27150  0.26660  Biso   1.000  H
  H244     1.0000 0.46680  0.27150  0.23340  Biso   1.000  H
  H245     1.0000 0.96680  0.22850  0.73340  Biso   1.000  H
  H246     1.0000 0.03320  0.22850  0.76660  Biso   1.000  H
  H247     1.0000 0.46680  0.72850  0.73340  Biso   1.000  H
  H248     1.0000 0.53320  0.72850  0.76660  Biso   1.000  H
  C313     1.0000 0.06559  0.52260  0.25040  Biso   1.000  C
  C314     1.0000 0.93441  0.52260  0.24960  Biso   1.000  C
  C315     1.0000 0.56559  0.02260  0.25040  Biso   1.000  C
  C316     1.0000 0.43441  0.02260  0.24960  Biso   1.000  C
  C317     1.0000 0.93441  0.47740  0.74960  Biso   1.000  C
  C318     1.0000 0.06559  0.47740  0.75040  Biso   1.000  C
  C319     1.0000 0.43441  0.97740  0.74960  Biso   1.000  C
  C320     1.0000 0.56559  0.97740  0.75040  Biso   1.000  C
  H249     1.0000 0.06990  0.42340  0.23130  Biso   1.000  H
  H250     1.0000 0.93010  0.42340  0.26870  Biso   1.000  H
  H251     1.0000 0.56990  0.92340  0.23130  Biso   1.000  H
  H252     1.0000 0.43010  0.92340  0.26870  Biso   1.000  H
  H253     1.0000 0.93010  0.57660  0.76870  Biso   1.000  H
  H254     1.0000 0.06990  0.57660  0.73130  Biso   1.000  H
  H255     1.0000 0.43010  0.07660  0.76870  Biso   1.000  H
  H256     1.0000 0.56990  0.07660  0.73130  Biso   1.000  H
  H257     1.0000 0.05710  0.51100  0.29620  Biso   1.000  H
  H258     1.0000 0.94290  0.51100  0.20380  Biso   1.000  H
  H259     1.0000 0.55710  0.01100  0.29620  Biso   1.000  H
  H260     1.0000 0.44290  0.01100  0.20380  Biso   1.000  H
  H261     1.0000 0.94290  0.48900  0.70380  Biso   1.000  H
  H262     1.0000 0.05710  0.48900  0.79620  Biso   1.000  H
  H263     1.0000 0.44290  0.98900  0.70380  Biso   1.000  H
  H264     1.0000 0.55710  0.98900  0.79620  Biso   1.000  H
  H265     1.0000 0.08340  0.58130  0.25410  Biso   1.000  H
  H266     1.0000 0.91660  0.58130  0.24590  Biso   1.000  H
  H267     1.0000 0.58340  0.08130  0.25410  Biso   1.000  H
  H268     1.0000 0.41660  0.08130  0.24590  Biso   1.000  H
  H269     1.0000 0.91660  0.41870  0.74590  Biso   1.000  H
  H270     1.0000 0.08340  0.41870  0.75410  Biso   1.000  H
  H271     1.0000 0.41660  0.91870  0.74590  Biso   1.000  H
  H272     1.0000 0.58340  0.91870  0.75410  Biso   1.000  H
  O33      1.0000 0.06470  0.07200  0.22390  Biso   1.000  O
  O34      1.0000 0.93530  0.07200  0.27610  Biso   1.000  O
  O35      1.0000 0.56470  0.57200  0.22390  Biso   1.000  O
  O36      1.0000 0.43530  0.57200  0.27610  Biso   1.000  O
  O37      1.0000 0.93530  0.92800  0.77610  Biso   1.000  O
  O38      1.0000 0.06470  0.92800  0.72390  Biso   1.000  O
  O39      1.0000 0.43530  0.42800  0.77610  Biso   1.000  O
  O40      1.0000 0.56470  0.42800  0.72390  Biso   1.000  O
  N73      1.0000 0.01660  0.11620  0.23950  Biso   1.000  N
  N74      1.0000 0.98340  0.11620  0.26050  Biso   1.000  N
  N75      1.0000 0.51660  0.61620  0.23950  Biso   1.000  N
  N76      1.0000 0.48340  0.61620  0.26050  Biso   1.000  N
  N77      1.0000 0.98340  0.88380  0.76050  Biso   1.000  N
  N78      1.0000 0.01660  0.88380  0.73950  Biso   1.000  N
  N79      1.0000 0.48340  0.38380  0.76050  Biso   1.000  N
  N80      1.0000 0.51660  0.38380  0.73950  Biso   1.000  N
  C321     1.0000 0.04090  0.10800  0.19330  Biso   1.000  C
  C322     1.0000 0.95910  0.10800  0.30670  Biso   1.000  C
  C323     1.0000 0.54090  0.60800  0.19330  Biso   1.000  C
  C324     1.0000 0.45910  0.60800  0.30670  Biso   1.000  C
  C325     1.0000 0.95910  0.89200  0.80670  Biso   1.000  C
  C326     1.0000 0.04090  0.89200  0.69330  Biso   1.000  C
  C327     1.0000 0.45910  0.39200  0.80670  Biso   1.000  C
  C328     1.0000 0.54090  0.39200  0.69330  Biso   1.000  C
  H273     1.0000 0.03950  0.12790  0.14540  Biso   1.000  H
  H274     1.0000 0.96050  0.12790  0.35460  Biso   1.000  H
  H275     1.0000 0.53950  0.62790  0.14540  Biso   1.000  H
  H276     1.0000 0.46050  0.62790  0.35460  Biso   1.000  H
  H277     1.0000 0.96050  0.87210  0.85460  Biso   1.000  H
  H278     1.0000 0.03950  0.87210  0.64540  Biso   1.000  H
  H279     1.0000 0.46050  0.37210  0.85460  Biso   1.000  H
  H280     1.0000 0.53950  0.37210  0.64540  Biso   1.000  H
  C329     1.0000 0.01350  0.13160  0.30520  Biso   1.000  C
  C330     1.0000 0.98650  0.13160  0.19480  Biso   1.000  C
  C331     1.0000 0.51350  0.63160  0.30520  Biso   1.000  C
  C332     1.0000 0.48650  0.63160  0.19480  Biso   1.000  C
  C333     1.0000 0.98650  0.86840  0.69480  Biso   1.000  C
  C334     1.0000 0.01350  0.86840  0.80520  Biso   1.000  C
  C335     1.0000 0.48650  0.36840  0.69480  Biso   1.000  C
  C336     1.0000 0.51350  0.36840  0.80520  Biso   1.000  C
  H281     1.0000 0.02430  0.21930  0.28920  Biso   1.000  H
  H282     1.0000 0.97570  0.21930  0.21080  Biso   1.000  H
  H283     1.0000 0.52430  0.71930  0.28920  Biso   1.000  H
  H284     1.0000 0.47570  0.71930  0.21080  Biso   1.000  H
  H285     1.0000 0.97570  0.78070  0.71080  Biso   1.000  H
  H286     1.0000 0.02430  0.78070  0.78920  Biso   1.000  H
  H287     1.0000 0.47570  0.28070  0.71080  Biso   1.000  H
  H288     1.0000 0.52430  0.28070  0.78920  Biso   1.000  H
  H289     1.0000 0.02510  0.04080  0.29890  Biso   1.000  H
  H290     1.0000 0.97490  0.04080  0.20110  Biso   1.000  H
  H291     1.0000 0.52510  0.54080  0.29890  Biso   1.000  H
  H292     1.0000 0.47490  0.54080  0.20110  Biso   1.000  H
  H293     1.0000 0.97490  0.95920  0.70110  Biso   1.000  H
  H294     1.0000 0.02510  0.95920  0.79890  Biso   1.000  H
  H295     1.0000 0.47490  0.45920  0.70110  Biso   1.000  H
  H296     1.0000 0.52510  0.45920  0.79890  Biso   1.000  H
  H297     1.0000 0.00890  0.14370  0.35400  Biso   1.000  H
  H298     1.0000 0.99110  0.14370  0.14600  Biso   1.000  H
  H299     1.0000 0.50890  0.64370  0.35400  Biso   1.000  H
  H300     1.0000 0.49110  0.64370  0.14600  Biso   1.000  H
  H301     1.0000 0.99110  0.85630  0.64600  Biso   1.000  H
  H302     1.0000 0.00890  0.85630  0.85400  Biso   1.000  H
  H303     1.0000 0.49110  0.35630  0.64600  Biso   1.000  H
  H304     1.0000 0.50890  0.35630  0.85400  Biso   1.000  H
