data_image0
_cell_length_a       18.6707
_cell_length_b       18.6707
_cell_length_c       39.262
_cell_angle_alpha    90
_cell_angle_beta     90
_cell_angle_gamma    120

_symmetry_space_group_name_H-M    "P 1"
_symmetry_int_tables_number       1

loop_
  _symmetry_equiv_pos_as_xyz
  'x, y, z'

loop_
  _atom_site_label
  _atom_site_occupancy
  _atom_site_fract_x
  _atom_site_fract_y
  _atom_site_fract_z
  _atom_site_thermal_displace_type
  _atom_site_B_iso_or_equiv
  _atom_site_type_symbol
  Cu1      1.0000 0.47691  0.95382  0.02793  Biso   1.000  Cu
  Cu2      1.0000 0.04618  0.52309  0.02793  Biso   1.000  Cu
  Cu3      1.0000 0.47691  0.52309  0.02793  Biso   1.000  Cu
  Cu4      1.0000 0.95382  0.47691  0.97207  Biso   1.000  Cu
  Cu5      1.0000 0.52309  0.47691  0.97207  Biso   1.000  Cu
  Cu6      1.0000 0.52309  0.04618  0.97207  Biso   1.000  Cu
  Cu7      1.0000 0.14358  0.28715  0.36126  Biso   1.000  Cu
  Cu8      1.0000 0.71285  0.85642  0.36126  Biso   1.000  Cu
  Cu9      1.0000 0.14358  0.85642  0.36126  Biso   1.000  Cu
  Cu10     1.0000 0.62049  0.81024  0.30540  Biso   1.000  Cu
  Cu11     1.0000 0.18976  0.81024  0.30540  Biso   1.000  Cu
  Cu12     1.0000 0.18976  0.37951  0.30540  Biso   1.000  Cu
  Cu13     1.0000 0.81024  0.62049  0.69460  Biso   1.000  Cu
  Cu14     1.0000 0.37951  0.18976  0.69460  Biso   1.000  Cu
  Cu15     1.0000 0.81024  0.18976  0.69460  Biso   1.000  Cu
  Cu16     1.0000 0.28715  0.14358  0.63874  Biso   1.000  Cu
  Cu17     1.0000 0.85642  0.14358  0.63874  Biso   1.000  Cu
  Cu18     1.0000 0.85642  0.71285  0.63874  Biso   1.000  Cu
  O1       1.0000 0.44160  0.03200  0.04238  Biso   1.000  O
  O2       1.0000 0.96800  0.40960  0.04238  Biso   1.000  O
  O3       1.0000 0.59040  0.55840  0.04238  Biso   1.000  O
  O4       1.0000 0.03200  0.44160  0.95762  Biso   1.000  O
  O5       1.0000 0.55840  0.59040  0.95762  Biso   1.000  O
  O6       1.0000 0.40960  0.96800  0.95762  Biso   1.000  O
  O7       1.0000 0.10827  0.36533  0.37571  Biso   1.000  O
  O8       1.0000 0.63467  0.74293  0.37571  Biso   1.000  O
  O9       1.0000 0.25707  0.89173  0.37571  Biso   1.000  O
  O10      1.0000 0.69867  0.77493  0.29095  Biso   1.000  O
  O11      1.0000 0.22507  0.92373  0.29095  Biso   1.000  O
  O12      1.0000 0.07627  0.30133  0.29095  Biso   1.000  O
  O13      1.0000 0.77493  0.69867  0.70905  Biso   1.000  O
  O14      1.0000 0.30133  0.07627  0.70905  Biso   1.000  O
  O15      1.0000 0.92373  0.22507  0.70905  Biso   1.000  O
  O16      1.0000 0.36533  0.10827  0.62429  Biso   1.000  O
  O17      1.0000 0.89173  0.25707  0.62429  Biso   1.000  O
  O18      1.0000 0.74293  0.63467  0.62429  Biso   1.000  O
  O19      1.0000 0.55840  0.96800  0.95762  Biso   1.000  O
  O20      1.0000 0.03200  0.59040  0.95762  Biso   1.000  O
  O21      1.0000 0.40960  0.44160  0.95762  Biso   1.000  O
  O22      1.0000 0.96800  0.55840  0.04238  Biso   1.000  O
  O23      1.0000 0.44160  0.40960  0.04238  Biso   1.000  O
  O24      1.0000 0.59040  0.03200  0.04238  Biso   1.000  O
  O25      1.0000 0.22507  0.30133  0.29095  Biso   1.000  O
  O26      1.0000 0.69867  0.92373  0.29095  Biso   1.000  O
  O27      1.0000 0.07627  0.77493  0.29095  Biso   1.000  O
  O28      1.0000 0.63467  0.89173  0.37571  Biso   1.000  O
  O29      1.0000 0.10827  0.74293  0.37571  Biso   1.000  O
  O30      1.0000 0.25707  0.36533  0.37571  Biso   1.000  O
  O31      1.0000 0.89173  0.63467  0.62429  Biso   1.000  O
  O32      1.0000 0.36533  0.25707  0.62429  Biso   1.000  O
  O33      1.0000 0.74293  0.10827  0.62429  Biso   1.000  O
  O34      1.0000 0.30133  0.22507  0.70905  Biso   1.000  O
  O35      1.0000 0.77493  0.07627  0.70905  Biso   1.000  O
  O36      1.0000 0.92373  0.69867  0.70905  Biso   1.000  O
  O37      1.0000 0.44550  0.89100  0.07660  Biso   1.000  O
  O38      1.0000 0.10900  0.55450  0.07660  Biso   1.000  O
  O39      1.0000 0.44550  0.55450  0.07660  Biso   1.000  O
  O40      1.0000 0.89100  0.44550  0.92340  Biso   1.000  O
  O41      1.0000 0.55450  0.44550  0.92340  Biso   1.000  O
  O42      1.0000 0.55450  0.10900  0.92340  Biso   1.000  O
  O43      1.0000 0.11217  0.22433  0.40993  Biso   1.000  O
  O44      1.0000 0.77567  0.88783  0.40993  Biso   1.000  O
  O45      1.0000 0.11217  0.88783  0.40993  Biso   1.000  O
  O46      1.0000 0.55767  0.77883  0.25673  Biso   1.000  O
  O47      1.0000 0.22117  0.77883  0.25673  Biso   1.000  O
  O48      1.0000 0.22117  0.44233  0.25673  Biso   1.000  O
  O49      1.0000 0.77883  0.55767  0.74327  Biso   1.000  O
  O50      1.0000 0.44233  0.22117  0.74327  Biso   1.000  O
  O51      1.0000 0.77883  0.22117  0.74327  Biso   1.000  O
  O52      1.0000 0.22433  0.11217  0.59007  Biso   1.000  O
  O53      1.0000 0.88783  0.11217  0.59007  Biso   1.000  O
  O54      1.0000 0.88783  0.77567  0.59007  Biso   1.000  O
  O55      1.0000 0.48230  0.11050  0.99594  Biso   1.000  O
  O56      1.0000 0.88950  0.37180  0.99594  Biso   1.000  O
  O57      1.0000 0.62820  0.51770  0.99594  Biso   1.000  O
  O58      1.0000 0.11050  0.48230  0.00406  Biso   1.000  O
  O59      1.0000 0.51770  0.62820  0.00406  Biso   1.000  O
  O60      1.0000 0.37180  0.88950  0.00406  Biso   1.000  O
  O61      1.0000 0.14897  0.44383  0.32927  Biso   1.000  O
  O62      1.0000 0.55617  0.70513  0.32927  Biso   1.000  O
  O63      1.0000 0.29487  0.85103  0.32927  Biso   1.000  O
  O64      1.0000 0.77717  0.81563  0.33739  Biso   1.000  O
  O65      1.0000 0.18437  0.96153  0.33739  Biso   1.000  O
  O66      1.0000 0.03847  0.22283  0.33739  Biso   1.000  O
  O67      1.0000 0.81563  0.77717  0.66261  Biso   1.000  O
  O68      1.0000 0.22283  0.03847  0.66261  Biso   1.000  O
  O69      1.0000 0.96153  0.18437  0.66261  Biso   1.000  O
  O70      1.0000 0.44383  0.14897  0.67073  Biso   1.000  O
  O71      1.0000 0.85103  0.29487  0.67073  Biso   1.000  O
  O72      1.0000 0.70513  0.55617  0.67073  Biso   1.000  O
  O73      1.0000 0.51770  0.88950  0.00406  Biso   1.000  O
  O74      1.0000 0.11050  0.62820  0.00406  Biso   1.000  O
  O75      1.0000 0.37180  0.48230  0.00406  Biso   1.000  O
  O76      1.0000 0.88950  0.51770  0.99594  Biso   1.000  O
  O77      1.0000 0.48230  0.37180  0.99594  Biso   1.000  O
  O78      1.0000 0.62820  0.11050  0.99594  Biso   1.000  O
  O79      1.0000 0.18437  0.22283  0.33739  Biso   1.000  O
  O80      1.0000 0.77717  0.96153  0.33739  Biso   1.000  O
  O81      1.0000 0.03847  0.81563  0.33739  Biso   1.000  O
  O82      1.0000 0.55617  0.85103  0.32927  Biso   1.000  O
  O83      1.0000 0.14897  0.70513  0.32927  Biso   1.000  O
  O84      1.0000 0.29487  0.44383  0.32927  Biso   1.000  O
  O85      1.0000 0.85103  0.55617  0.67073  Biso   1.000  O
  O86      1.0000 0.44383  0.29487  0.67073  Biso   1.000  O
  O87      1.0000 0.70513  0.14897  0.67073  Biso   1.000  O
  O88      1.0000 0.22283  0.18437  0.66261  Biso   1.000  O
  O89      1.0000 0.81563  0.03847  0.66261  Biso   1.000  O
  O90      1.0000 0.96153  0.77717  0.66261  Biso   1.000  O
  C1       1.0000 0.45080  0.09150  0.02550  Biso   1.000  C
  C2       1.0000 0.90850  0.35930  0.02550  Biso   1.000  C
  C3       1.0000 0.64070  0.54920  0.02550  Biso   1.000  C
  C4       1.0000 0.09150  0.45080  0.97450  Biso   1.000  C
  C5       1.0000 0.54920  0.64070  0.97450  Biso   1.000  C
  C6       1.0000 0.35930  0.90850  0.97450  Biso   1.000  C
  C7       1.0000 0.11747  0.42483  0.35883  Biso   1.000  C
  C8       1.0000 0.57517  0.69263  0.35883  Biso   1.000  C
  C9       1.0000 0.30737  0.88253  0.35883  Biso   1.000  C
  C10      1.0000 0.75817  0.78413  0.30783  Biso   1.000  C
  C11      1.0000 0.21587  0.97403  0.30783  Biso   1.000  C
  C12      1.0000 0.02597  0.24183  0.30783  Biso   1.000  C
  C13      1.0000 0.78413  0.75817  0.69217  Biso   1.000  C
  C14      1.0000 0.24183  0.02597  0.69217  Biso   1.000  C
  C15      1.0000 0.97403  0.21587  0.69217  Biso   1.000  C
  C16      1.0000 0.42483  0.11747  0.64117  Biso   1.000  C
  C17      1.0000 0.88253  0.30737  0.64117  Biso   1.000  C
  C18      1.0000 0.69263  0.57517  0.64117  Biso   1.000  C
  C19      1.0000 0.54920  0.90850  0.97450  Biso   1.000  C
  C20      1.0000 0.09150  0.64070  0.97450  Biso   1.000  C
  C21      1.0000 0.35930  0.45080  0.97450  Biso   1.000  C
  C22      1.0000 0.90850  0.54920  0.02550  Biso   1.000  C
  C23      1.0000 0.45080  0.35930  0.02550  Biso   1.000  C
  C24      1.0000 0.64070  0.09150  0.02550  Biso   1.000  C
  C25      1.0000 0.21587  0.24183  0.30783  Biso   1.000  C
  C26      1.0000 0.75817  0.97403  0.30783  Biso   1.000  C
  C27      1.0000 0.02597  0.78413  0.30783  Biso   1.000  C
  C28      1.0000 0.57517  0.88253  0.35883  Biso   1.000  C
  C29      1.0000 0.11747  0.69263  0.35883  Biso   1.000  C
  C30      1.0000 0.30737  0.42483  0.35883  Biso   1.000  C
  C31      1.0000 0.88253  0.57517  0.64117  Biso   1.000  C
  C32      1.0000 0.42483  0.30737  0.64117  Biso   1.000  C
  C33      1.0000 0.69263  0.11747  0.64117  Biso   1.000  C
  C34      1.0000 0.24183  0.21587  0.69217  Biso   1.000  C
  C35      1.0000 0.78413  0.02597  0.69217  Biso   1.000  C
  C36      1.0000 0.97403  0.75817  0.69217  Biso   1.000  C
  C37      1.0000 0.42630  0.14880  0.04113  Biso   1.000  C
  C38      1.0000 0.85120  0.27750  0.04113  Biso   1.000  C
  C39      1.0000 0.72250  0.57370  0.04113  Biso   1.000  C
  C40      1.0000 0.14880  0.42630  0.95887  Biso   1.000  C
  C41      1.0000 0.57370  0.72250  0.95887  Biso   1.000  C
  C42      1.0000 0.27750  0.85120  0.95887  Biso   1.000  C
  C43      1.0000 0.09297  0.48213  0.37446  Biso   1.000  C
  C44      1.0000 0.51787  0.61083  0.37446  Biso   1.000  C
  C45      1.0000 0.38917  0.90703  0.37446  Biso   1.000  C
  C46      1.0000 0.81547  0.75963  0.29220  Biso   1.000  C
  C47      1.0000 0.24037  0.05583  0.29220  Biso   1.000  C
  C48      1.0000 0.94417  0.18453  0.29220  Biso   1.000  C
  C49      1.0000 0.75963  0.81547  0.70780  Biso   1.000  C
  C50      1.0000 0.18453  0.94417  0.70780  Biso   1.000  C
  C51      1.0000 0.05583  0.24037  0.70780  Biso   1.000  C
  C52      1.0000 0.48213  0.09297  0.62554  Biso   1.000  C
  C53      1.0000 0.90703  0.38917  0.62554  Biso   1.000  C
  C54      1.0000 0.61083  0.51787  0.62554  Biso   1.000  C
  C55      1.0000 0.57370  0.85120  0.95887  Biso   1.000  C
  C56      1.0000 0.14880  0.72250  0.95887  Biso   1.000  C
  C57      1.0000 0.27750  0.42630  0.95887  Biso   1.000  C
  C58      1.0000 0.85120  0.57370  0.04113  Biso   1.000  C
  C59      1.0000 0.42630  0.27750  0.04113  Biso   1.000  C
  C60      1.0000 0.72250  0.14880  0.04113  Biso   1.000  C
  C61      1.0000 0.24037  0.18453  0.29220  Biso   1.000  C
  C62      1.0000 0.81547  0.05583  0.29220  Biso   1.000  C
  C63      1.0000 0.94417  0.75963  0.29220  Biso   1.000  C
  C64      1.0000 0.51787  0.90703  0.37446  Biso   1.000  C
  C65      1.0000 0.09297  0.61083  0.37446  Biso   1.000  C
  C66      1.0000 0.38917  0.48213  0.37446  Biso   1.000  C
  C67      1.0000 0.90703  0.51787  0.62554  Biso   1.000  C
  C68      1.0000 0.48213  0.38917  0.62554  Biso   1.000  C
  C69      1.0000 0.61083  0.09297  0.62554  Biso   1.000  C
  C70      1.0000 0.18453  0.24037  0.70780  Biso   1.000  C
  C71      1.0000 0.75963  0.94417  0.70780  Biso   1.000  C
  C72      1.0000 0.05583  0.81547  0.70780  Biso   1.000  C
  C73      1.0000 0.44480  0.22240  0.02580  Biso   1.000  C
  C74      1.0000 0.77760  0.22240  0.02580  Biso   1.000  C
  C75      1.0000 0.77760  0.55520  0.02580  Biso   1.000  C
  C76      1.0000 0.22240  0.44480  0.97420  Biso   1.000  C
  C77      1.0000 0.55520  0.77760  0.97420  Biso   1.000  C
  C78      1.0000 0.22240  0.77760  0.97420  Biso   1.000  C
  C79      1.0000 0.11147  0.55573  0.35913  Biso   1.000  C
  C80      1.0000 0.44427  0.55573  0.35913  Biso   1.000  C
  C81      1.0000 0.44427  0.88853  0.35913  Biso   1.000  C
  C82      1.0000 0.88907  0.77813  0.30753  Biso   1.000  C
  C83      1.0000 0.22187  0.11093  0.30753  Biso   1.000  C
  C84      1.0000 0.88907  0.11093  0.30753  Biso   1.000  C
  C85      1.0000 0.77813  0.88907  0.69247  Biso   1.000  C
  C86      1.0000 0.11093  0.88907  0.69247  Biso   1.000  C
  C87      1.0000 0.11093  0.22187  0.69247  Biso   1.000  C
  C88      1.0000 0.55573  0.11147  0.64087  Biso   1.000  C
  C89      1.0000 0.88853  0.44427  0.64087  Biso   1.000  C
  C90      1.0000 0.55573  0.44427  0.64087  Biso   1.000  C
  H1       1.0000 0.47040  0.23520  0.00460  Biso   1.000  H
  H2       1.0000 0.76480  0.23520  0.00460  Biso   1.000  H
  H3       1.0000 0.76480  0.52960  0.00460  Biso   1.000  H
  H4       1.0000 0.23520  0.47040  0.99540  Biso   1.000  H
  H5       1.0000 0.52960  0.76480  0.99540  Biso   1.000  H
  H6       1.0000 0.23520  0.76480  0.99540  Biso   1.000  H
  H7       1.0000 0.13707  0.56853  0.33793  Biso   1.000  H
  H8       1.0000 0.43147  0.56853  0.33793  Biso   1.000  H
  H9       1.0000 0.43147  0.86293  0.33793  Biso   1.000  H
  H10      1.0000 0.90187  0.80373  0.32873  Biso   1.000  H
  H11      1.0000 0.19627  0.09813  0.32873  Biso   1.000  H
  H12      1.0000 0.90187  0.09813  0.32873  Biso   1.000  H
  H13      1.0000 0.80373  0.90187  0.67127  Biso   1.000  H
  H14      1.0000 0.09813  0.90187  0.67127  Biso   1.000  H
  H15      1.0000 0.09813  0.19627  0.67127  Biso   1.000  H
  H16      1.0000 0.56853  0.13707  0.66207  Biso   1.000  H
  H17      1.0000 0.86293  0.43147  0.66207  Biso   1.000  H
  H18      1.0000 0.56853  0.43147  0.66207  Biso   1.000  H
  C91      1.0000 0.38480  0.12880  0.07170  Biso   1.000  C
  C92      1.0000 0.87120  0.25600  0.07170  Biso   1.000  C
  C93      1.0000 0.74400  0.61520  0.07170  Biso   1.000  C
  C94      1.0000 0.12880  0.38480  0.92830  Biso   1.000  C
  C95      1.0000 0.61520  0.74400  0.92830  Biso   1.000  C
  C96      1.0000 0.25600  0.87120  0.92830  Biso   1.000  C
  C97      1.0000 0.05147  0.46213  0.40503  Biso   1.000  C
  C98      1.0000 0.53787  0.58933  0.40503  Biso   1.000  C
  C99      1.0000 0.41067  0.94853  0.40503  Biso   1.000  C
  C100     1.0000 0.79547  0.71813  0.26163  Biso   1.000  C
  C101     1.0000 0.28187  0.07733  0.26163  Biso   1.000  C
  C102     1.0000 0.92267  0.20453  0.26163  Biso   1.000  C
  C103     1.0000 0.71813  0.79547  0.73837  Biso   1.000  C
  C104     1.0000 0.20453  0.92267  0.73837  Biso   1.000  C
  C105     1.0000 0.07733  0.28187  0.73837  Biso   1.000  C
  C106     1.0000 0.46213  0.05147  0.59497  Biso   1.000  C
  C107     1.0000 0.94853  0.41067  0.59497  Biso   1.000  C
  C108     1.0000 0.58933  0.53787  0.59497  Biso   1.000  C
  C109     1.0000 0.61520  0.87120  0.92830  Biso   1.000  C
  C110     1.0000 0.12880  0.74400  0.92830  Biso   1.000  C
  C111     1.0000 0.25600  0.38480  0.92830  Biso   1.000  C
  C112     1.0000 0.87120  0.61520  0.07170  Biso   1.000  C
  C113     1.0000 0.38480  0.25600  0.07170  Biso   1.000  C
  C114     1.0000 0.74400  0.12880  0.07170  Biso   1.000  C
  C115     1.0000 0.28187  0.20453  0.26163  Biso   1.000  C
  C116     1.0000 0.79547  0.07733  0.26163  Biso   1.000  C
  C117     1.0000 0.92267  0.71813  0.26163  Biso   1.000  C
  C118     1.0000 0.53787  0.94853  0.40503  Biso   1.000  C
  C119     1.0000 0.05147  0.58933  0.40503  Biso   1.000  C
  C120     1.0000 0.41067  0.46213  0.40503  Biso   1.000  C
  C121     1.0000 0.94853  0.53787  0.59497  Biso   1.000  C
  C122     1.0000 0.46213  0.41067  0.59497  Biso   1.000  C
  C123     1.0000 0.58933  0.05147  0.59497  Biso   1.000  C
  C124     1.0000 0.20453  0.28187  0.73837  Biso   1.000  C
  C125     1.0000 0.71813  0.92267  0.73837  Biso   1.000  C
  C126     1.0000 0.07733  0.79547  0.73837  Biso   1.000  C
  H19      1.0000 0.37060  0.07840  0.08190  Biso   1.000  H
  H20      1.0000 0.92160  0.29220  0.08190  Biso   1.000  H
  H21      1.0000 0.70780  0.62940  0.08190  Biso   1.000  H
  H22      1.0000 0.07840  0.37060  0.91810  Biso   1.000  H
  H23      1.0000 0.62940  0.70780  0.91810  Biso   1.000  H
  H24      1.0000 0.29220  0.92160  0.91810  Biso   1.000  H
  H25      1.0000 0.03727  0.41173  0.41523  Biso   1.000  H
  H26      1.0000 0.58827  0.62553  0.41523  Biso   1.000  H
  H27      1.0000 0.37447  0.96273  0.41523  Biso   1.000  H
  H28      1.0000 0.74507  0.70393  0.25143  Biso   1.000  H
  H29      1.0000 0.29607  0.04113  0.25143  Biso   1.000  H
  H30      1.0000 0.95887  0.25493  0.25143  Biso   1.000  H
  H31      1.0000 0.70393  0.74507  0.74857  Biso   1.000  H
  H32      1.0000 0.25493  0.95887  0.74857  Biso   1.000  H
  H33      1.0000 0.04113  0.29607  0.74857  Biso   1.000  H
  H34      1.0000 0.41173  0.03727  0.58477  Biso   1.000  H
  H35      1.0000 0.96273  0.37447  0.58477  Biso   1.000  H
  H36      1.0000 0.62553  0.58827  0.58477  Biso   1.000  H
  H37      1.0000 0.62940  0.92160  0.91810  Biso   1.000  H
  H38      1.0000 0.07840  0.70780  0.91810  Biso   1.000  H
  H39      1.0000 0.29220  0.37060  0.91810  Biso   1.000  H
  H40      1.0000 0.92160  0.62940  0.08190  Biso   1.000  H
  H41      1.0000 0.37060  0.29220  0.08190  Biso   1.000  H
  H42      1.0000 0.70780  0.07840  0.08190  Biso   1.000  H
  H43      1.0000 0.29607  0.25493  0.25143  Biso   1.000  H
  H44      1.0000 0.74507  0.04113  0.25143  Biso   1.000  H
  H45      1.0000 0.95887  0.70393  0.25143  Biso   1.000  H
  H46      1.0000 0.58827  0.96273  0.41523  Biso   1.000  H
  H47      1.0000 0.03727  0.62553  0.41523  Biso   1.000  H
  H48      1.0000 0.37447  0.41173  0.41523  Biso   1.000  H
  H49      1.0000 0.96273  0.58827  0.58477  Biso   1.000  H
  H50      1.0000 0.41173  0.37447  0.58477  Biso   1.000  H
  H51      1.0000 0.62553  0.03727  0.58477  Biso   1.000  H
  H52      1.0000 0.25493  0.29607  0.74857  Biso   1.000  H
  H53      1.0000 0.70393  0.95887  0.74857  Biso   1.000  H
  H54      1.0000 0.04113  0.74507  0.74857  Biso   1.000  H
  C127     1.0000 0.36360  0.18180  0.08770  Biso   1.000  C
  C128     1.0000 0.81820  0.18180  0.08770  Biso   1.000  C
  C129     1.0000 0.81820  0.63640  0.08770  Biso   1.000  C
  C130     1.0000 0.18180  0.36360  0.91230  Biso   1.000  C
  C131     1.0000 0.63640  0.81820  0.91230  Biso   1.000  C
  C132     1.0000 0.18180  0.81820  0.91230  Biso   1.000  C
  C133     1.0000 0.03027  0.51513  0.42103  Biso   1.000  C
  C134     1.0000 0.48487  0.51513  0.42103  Biso   1.000  C
  C135     1.0000 0.48487  0.96973  0.42103  Biso   1.000  C
  C136     1.0000 0.84847  0.69693  0.24563  Biso   1.000  C
  C137     1.0000 0.30307  0.15153  0.24563  Biso   1.000  C
  C138     1.0000 0.84847  0.15153  0.24563  Biso   1.000  C
  C139     1.0000 0.69693  0.84847  0.75437  Biso   1.000  C
  C140     1.0000 0.15153  0.84847  0.75437  Biso   1.000  C
  C141     1.0000 0.15153  0.30307  0.75437  Biso   1.000  C
  C142     1.0000 0.51513  0.03027  0.57897  Biso   1.000  C
  C143     1.0000 0.96973  0.48487  0.57897  Biso   1.000  C
  C144     1.0000 0.51513  0.48487  0.57897  Biso   1.000  C
  C145     1.0000 0.31210  0.15600  0.12190  Biso   1.000  C
  C146     1.0000 0.84400  0.15610  0.12190  Biso   1.000  C
  C147     1.0000 0.84390  0.68790  0.12190  Biso   1.000  C
  C148     1.0000 0.15600  0.31210  0.87810  Biso   1.000  C
  C149     1.0000 0.68790  0.84390  0.87810  Biso   1.000  C
  C150     1.0000 0.15610  0.84400  0.87810  Biso   1.000  C
  C151     1.0000 0.97877  0.48933  0.45523  Biso   1.000  C
  C152     1.0000 0.51067  0.48943  0.45523  Biso   1.000  C
  C153     1.0000 0.51057  0.02123  0.45523  Biso   1.000  C
  C154     1.0000 0.82267  0.64543  0.21143  Biso   1.000  C
  C155     1.0000 0.35457  0.17723  0.21143  Biso   1.000  C
  C156     1.0000 0.82277  0.17733  0.21143  Biso   1.000  C
  C157     1.0000 0.64543  0.82267  0.78857  Biso   1.000  C
  C158     1.0000 0.17733  0.82277  0.78857  Biso   1.000  C
  C159     1.0000 0.17723  0.35457  0.78857  Biso   1.000  C
  C160     1.0000 0.48933  0.97877  0.54477  Biso   1.000  C
  C161     1.0000 0.02123  0.51057  0.54477  Biso   1.000  C
  C162     1.0000 0.48943  0.51067  0.54477  Biso   1.000  C
  C163     1.0000 0.11350  0.05680  0.08450  Biso   1.000  C
  C164     1.0000 0.94320  0.05670  0.08450  Biso   1.000  C
  C165     1.0000 0.94330  0.88650  0.08450  Biso   1.000  C
  C166     1.0000 0.05680  0.11350  0.91550  Biso   1.000  C
  C167     1.0000 0.88650  0.94330  0.91550  Biso   1.000  C
  C168     1.0000 0.05670  0.94320  0.91550  Biso   1.000  C
  C169     1.0000 0.78017  0.39013  0.41783  Biso   1.000  C
  C170     1.0000 0.60987  0.39003  0.41783  Biso   1.000  C
  C171     1.0000 0.60997  0.21983  0.41783  Biso   1.000  C
  C172     1.0000 0.72347  0.44683  0.24883  Biso   1.000  C
  C173     1.0000 0.55317  0.27663  0.24883  Biso   1.000  C
  C174     1.0000 0.72337  0.27653  0.24883  Biso   1.000  C
  C175     1.0000 0.44683  0.72347  0.75117  Biso   1.000  C
  C176     1.0000 0.27653  0.72337  0.75117  Biso   1.000  C
  C177     1.0000 0.27663  0.55317  0.75117  Biso   1.000  C
  C178     1.0000 0.39013  0.78017  0.58217  Biso   1.000  C
  C179     1.0000 0.21983  0.60997  0.58217  Biso   1.000  C
  C180     1.0000 0.39003  0.60987  0.58217  Biso   1.000  C
  H55      1.0000 0.08670  0.05870  0.06380  Biso   1.000  H
  H56      1.0000 0.94130  0.02800  0.06380  Biso   1.000  H
  H57      1.0000 0.97200  0.91330  0.06380  Biso   1.000  H
  H58      1.0000 0.05870  0.08670  0.93620  Biso   1.000  H
  H59      1.0000 0.91330  0.97200  0.93620  Biso   1.000  H
  H60      1.0000 0.02800  0.94130  0.93620  Biso   1.000  H
  H61      1.0000 0.75337  0.39203  0.39713  Biso   1.000  H
  H62      1.0000 0.60797  0.36133  0.39713  Biso   1.000  H
  H63      1.0000 0.63867  0.24663  0.39713  Biso   1.000  H
  H64      1.0000 0.72537  0.42003  0.26953  Biso   1.000  H
  H65      1.0000 0.57997  0.30533  0.26953  Biso   1.000  H
  H66      1.0000 0.69467  0.27463  0.26953  Biso   1.000  H
  H67      1.0000 0.42003  0.72537  0.73047  Biso   1.000  H
  H68      1.0000 0.27463  0.69467  0.73047  Biso   1.000  H
  H69      1.0000 0.30533  0.57997  0.73047  Biso   1.000  H
  H70      1.0000 0.39203  0.75337  0.60287  Biso   1.000  H
  H71      1.0000 0.24663  0.63867  0.60287  Biso   1.000  H
  H72      1.0000 0.36133  0.60797  0.60287  Biso   1.000  H
  H73      1.0000 0.91330  0.94130  0.93620  Biso   1.000  H
  H74      1.0000 0.05870  0.97200  0.93620  Biso   1.000  H
  H75      1.0000 0.02800  0.08670  0.93620  Biso   1.000  H
  H76      1.0000 0.94130  0.91330  0.06380  Biso   1.000  H
  H77      1.0000 0.08670  0.02800  0.06380  Biso   1.000  H
  H78      1.0000 0.97200  0.05870  0.06380  Biso   1.000  H
  H79      1.0000 0.57997  0.27463  0.26953  Biso   1.000  H
  H80      1.0000 0.72537  0.30533  0.26953  Biso   1.000  H
  H81      1.0000 0.69467  0.42003  0.26953  Biso   1.000  H
  H82      1.0000 0.60797  0.24663  0.39713  Biso   1.000  H
  H83      1.0000 0.75337  0.36133  0.39713  Biso   1.000  H
  H84      1.0000 0.63867  0.39203  0.39713  Biso   1.000  H
  H85      1.0000 0.24663  0.60797  0.60287  Biso   1.000  H
  H86      1.0000 0.39203  0.63867  0.60287  Biso   1.000  H
  H87      1.0000 0.36133  0.75337  0.60287  Biso   1.000  H
  H88      1.0000 0.27463  0.57997  0.73047  Biso   1.000  H
  H89      1.0000 0.42003  0.69467  0.73047  Biso   1.000  H
  H90      1.0000 0.30533  0.72537  0.73047  Biso   1.000  H
  H91      1.0000 0.12820  0.01550  0.08320  Biso   1.000  H
  H92      1.0000 0.98450  0.11270  0.08320  Biso   1.000  H
  H93      1.0000 0.88730  0.87180  0.08320  Biso   1.000  H
  H94      1.0000 0.01550  0.12820  0.91680  Biso   1.000  H
  H95      1.0000 0.87180  0.88730  0.91680  Biso   1.000  H
  H96      1.0000 0.11270  0.98450  0.91680  Biso   1.000  H
  H97      1.0000 0.79487  0.34883  0.41653  Biso   1.000  H
  H98      1.0000 0.65117  0.44603  0.41653  Biso   1.000  H
  H99      1.0000 0.55397  0.20513  0.41653  Biso   1.000  H
  H100     1.0000 0.68217  0.46153  0.25013  Biso   1.000  H
  H101     1.0000 0.53847  0.22063  0.25013  Biso   1.000  H
  H102     1.0000 0.77937  0.31783  0.25013  Biso   1.000  H
  H103     1.0000 0.46153  0.68217  0.74987  Biso   1.000  H
  H104     1.0000 0.31783  0.77937  0.74987  Biso   1.000  H
  H105     1.0000 0.22063  0.53847  0.74987  Biso   1.000  H
  H106     1.0000 0.34883  0.79487  0.58347  Biso   1.000  H
  H107     1.0000 0.20513  0.55397  0.58347  Biso   1.000  H
  H108     1.0000 0.44603  0.65117  0.58347  Biso   1.000  H
  H109     1.0000 0.87180  0.98450  0.91680  Biso   1.000  H
  H110     1.0000 0.01550  0.88730  0.91680  Biso   1.000  H
  H111     1.0000 0.11270  0.12820  0.91680  Biso   1.000  H
  H112     1.0000 0.98450  0.87180  0.08320  Biso   1.000  H
  H113     1.0000 0.12820  0.11270  0.08320  Biso   1.000  H
  H114     1.0000 0.88730  0.01550  0.08320  Biso   1.000  H
  H115     1.0000 0.53847  0.31783  0.25013  Biso   1.000  H
  H116     1.0000 0.68217  0.22063  0.25013  Biso   1.000  H
  H117     1.0000 0.77937  0.46153  0.25013  Biso   1.000  H
  H118     1.0000 0.65117  0.20513  0.41653  Biso   1.000  H
  H119     1.0000 0.79487  0.44603  0.41653  Biso   1.000  H
  H120     1.0000 0.55397  0.34883  0.41653  Biso   1.000  H
  H121     1.0000 0.20513  0.65117  0.58347  Biso   1.000  H
  H122     1.0000 0.34883  0.55397  0.58347  Biso   1.000  H
  H123     1.0000 0.44603  0.79487  0.58347  Biso   1.000  H
  H124     1.0000 0.31783  0.53847  0.74987  Biso   1.000  H
  H125     1.0000 0.46153  0.77937  0.74987  Biso   1.000  H
  H126     1.0000 0.22063  0.68217  0.74987  Biso   1.000  H
  H127     1.0000 0.07670  0.04690  0.10330  Biso   1.000  H
  H128     1.0000 0.95310  0.02980  0.10330  Biso   1.000  H
  H129     1.0000 0.97020  0.92330  0.10330  Biso   1.000  H
  H130     1.0000 0.04690  0.07670  0.89670  Biso   1.000  H
  H131     1.0000 0.92330  0.97020  0.89670  Biso   1.000  H
  H132     1.0000 0.02980  0.95310  0.89670  Biso   1.000  H
  H133     1.0000 0.74337  0.38023  0.43663  Biso   1.000  H
  H134     1.0000 0.61977  0.36313  0.43663  Biso   1.000  H
  H135     1.0000 0.63687  0.25663  0.43663  Biso   1.000  H
  H136     1.0000 0.71357  0.41003  0.23003  Biso   1.000  H
  H137     1.0000 0.58997  0.30353  0.23003  Biso   1.000  H
  H138     1.0000 0.69647  0.28643  0.23003  Biso   1.000  H
  H139     1.0000 0.41003  0.71357  0.76997  Biso   1.000  H
  H140     1.0000 0.28643  0.69647  0.76997  Biso   1.000  H
  H141     1.0000 0.30353  0.58997  0.76997  Biso   1.000  H
  H142     1.0000 0.38023  0.74337  0.56337  Biso   1.000  H
  H143     1.0000 0.25663  0.63687  0.56337  Biso   1.000  H
  H144     1.0000 0.36313  0.61977  0.56337  Biso   1.000  H
  H145     1.0000 0.92330  0.95310  0.89670  Biso   1.000  H
  H146     1.0000 0.04690  0.97020  0.89670  Biso   1.000  H
  H147     1.0000 0.02980  0.07670  0.89670  Biso   1.000  H
  H148     1.0000 0.95310  0.92330  0.10330  Biso   1.000  H
  H149     1.0000 0.07670  0.02980  0.10330  Biso   1.000  H
  H150     1.0000 0.97020  0.04690  0.10330  Biso   1.000  H
  H151     1.0000 0.58997  0.28643  0.23003  Biso   1.000  H
  H152     1.0000 0.71357  0.30353  0.23003  Biso   1.000  H
  H153     1.0000 0.69647  0.41003  0.23003  Biso   1.000  H
  H154     1.0000 0.61977  0.25663  0.43663  Biso   1.000  H
  H155     1.0000 0.74337  0.36313  0.43663  Biso   1.000  H
  H156     1.0000 0.63687  0.38023  0.43663  Biso   1.000  H
  H157     1.0000 0.25663  0.61977  0.56337  Biso   1.000  H
  H158     1.0000 0.38023  0.63687  0.56337  Biso   1.000  H
  H159     1.0000 0.36313  0.74337  0.56337  Biso   1.000  H
  H160     1.0000 0.28643  0.58997  0.76997  Biso   1.000  H
  H161     1.0000 0.41003  0.69647  0.76997  Biso   1.000  H
  H162     1.0000 0.30353  0.71357  0.76997  Biso   1.000  H
  C181     1.0000 0.22680  0.12960  0.18160  Biso   1.000  C
  C182     1.0000 0.87040  0.09720  0.18160  Biso   1.000  C
  C183     1.0000 0.90280  0.77320  0.18160  Biso   1.000  C
  C184     1.0000 0.12960  0.22680  0.81840  Biso   1.000  C
  C185     1.0000 0.77320  0.90280  0.81840  Biso   1.000  C
  C186     1.0000 0.09720  0.87040  0.81840  Biso   1.000  C
  C187     1.0000 0.89347  0.46293  0.51493  Biso   1.000  C
  C188     1.0000 0.53707  0.43053  0.51493  Biso   1.000  C
  C189     1.0000 0.56947  0.10653  0.51493  Biso   1.000  C
  C190     1.0000 0.79627  0.56013  0.15173  Biso   1.000  C
  C191     1.0000 0.43987  0.23613  0.15173  Biso   1.000  C
  C192     1.0000 0.76387  0.20373  0.15173  Biso   1.000  C
  C193     1.0000 0.56013  0.79627  0.84827  Biso   1.000  C
  C194     1.0000 0.20373  0.76387  0.84827  Biso   1.000  C
  C195     1.0000 0.23613  0.43987  0.84827  Biso   1.000  C
  C196     1.0000 0.46293  0.89347  0.48507  Biso   1.000  C
  C197     1.0000 0.10653  0.56947  0.48507  Biso   1.000  C
  C198     1.0000 0.43053  0.53707  0.48507  Biso   1.000  C
  C199     1.0000 0.77320  0.87040  0.81840  Biso   1.000  C
  C200     1.0000 0.12960  0.90280  0.81840  Biso   1.000  C
  C201     1.0000 0.09720  0.22680  0.81840  Biso   1.000  C
  C202     1.0000 0.87040  0.77320  0.18160  Biso   1.000  C
  C203     1.0000 0.22680  0.09720  0.18160  Biso   1.000  C
  C204     1.0000 0.90280  0.12960  0.18160  Biso   1.000  C
  C205     1.0000 0.43987  0.20373  0.15173  Biso   1.000  C
  C206     1.0000 0.79627  0.23613  0.15173  Biso   1.000  C
  C207     1.0000 0.76387  0.56013  0.15173  Biso   1.000  C
  C208     1.0000 0.53707  0.10653  0.51493  Biso   1.000  C
  C209     1.0000 0.89347  0.43053  0.51493  Biso   1.000  C
  C210     1.0000 0.56947  0.46293  0.51493  Biso   1.000  C
  C211     1.0000 0.10653  0.53707  0.48507  Biso   1.000  C
  C212     1.0000 0.46293  0.56947  0.48507  Biso   1.000  C
  C213     1.0000 0.43053  0.89347  0.48507  Biso   1.000  C
  C214     1.0000 0.20373  0.43987  0.84827  Biso   1.000  C
  C215     1.0000 0.56013  0.76387  0.84827  Biso   1.000  C
  C216     1.0000 0.23613  0.79627  0.84827  Biso   1.000  C
  H163     1.0000 0.19510  0.11310  0.20180  Biso   1.000  H
  H164     1.0000 0.88690  0.08200  0.20180  Biso   1.000  H
  H165     1.0000 0.91800  0.80490  0.20180  Biso   1.000  H
  H166     1.0000 0.11310  0.19510  0.79820  Biso   1.000  H
  H167     1.0000 0.80490  0.91800  0.79820  Biso   1.000  H
  H168     1.0000 0.08200  0.88690  0.79820  Biso   1.000  H
  H169     1.0000 0.86177  0.44643  0.53513  Biso   1.000  H
  H170     1.0000 0.55357  0.41533  0.53513  Biso   1.000  H
  H171     1.0000 0.58467  0.13823  0.53513  Biso   1.000  H
  H172     1.0000 0.77977  0.52843  0.13153  Biso   1.000  H
  H173     1.0000 0.47157  0.25133  0.13153  Biso   1.000  H
  H174     1.0000 0.74867  0.22023  0.13153  Biso   1.000  H
  H175     1.0000 0.52843  0.77977  0.86847  Biso   1.000  H
  H176     1.0000 0.22023  0.74867  0.86847  Biso   1.000  H
  H177     1.0000 0.25133  0.47157  0.86847  Biso   1.000  H
  H178     1.0000 0.44643  0.86177  0.46487  Biso   1.000  H
  H179     1.0000 0.13823  0.58467  0.46487  Biso   1.000  H
  H180     1.0000 0.41533  0.55357  0.46487  Biso   1.000  H
  H181     1.0000 0.80490  0.88690  0.79820  Biso   1.000  H
  H182     1.0000 0.11310  0.91800  0.79820  Biso   1.000  H
  H183     1.0000 0.08200  0.19510  0.79820  Biso   1.000  H
  H184     1.0000 0.88690  0.80490  0.20180  Biso   1.000  H
  H185     1.0000 0.19510  0.08200  0.20180  Biso   1.000  H
  H186     1.0000 0.91800  0.11310  0.20180  Biso   1.000  H
  H187     1.0000 0.47157  0.22023  0.13153  Biso   1.000  H
  H188     1.0000 0.77977  0.25133  0.13153  Biso   1.000  H
  H189     1.0000 0.74867  0.52843  0.13153  Biso   1.000  H
  H190     1.0000 0.55357  0.13823  0.53513  Biso   1.000  H
  H191     1.0000 0.86177  0.41533  0.53513  Biso   1.000  H
  H192     1.0000 0.58467  0.44643  0.53513  Biso   1.000  H
  H193     1.0000 0.13823  0.55357  0.46487  Biso   1.000  H
  H194     1.0000 0.44643  0.58467  0.46487  Biso   1.000  H
  H195     1.0000 0.41533  0.86177  0.46487  Biso   1.000  H
  H196     1.0000 0.22023  0.47157  0.86847  Biso   1.000  H
  H197     1.0000 0.52843  0.74867  0.86847  Biso   1.000  H
  H198     1.0000 0.25133  0.77977  0.86847  Biso   1.000  H
  C217     1.0000 0.35000  0.16320  0.15240  Biso   1.000  C
  C218     1.0000 0.83680  0.18680  0.15240  Biso   1.000  C
  C219     1.0000 0.81320  0.65000  0.15240  Biso   1.000  C
  C220     1.0000 0.16320  0.35000  0.84760  Biso   1.000  C
  C221     1.0000 0.65000  0.81320  0.84760  Biso   1.000  C
  C222     1.0000 0.18680  0.83680  0.84760  Biso   1.000  C
  C223     1.0000 0.01667  0.49653  0.48573  Biso   1.000  C
  C224     1.0000 0.50347  0.52013  0.48573  Biso   1.000  C
  C225     1.0000 0.47987  0.98333  0.48573  Biso   1.000  C
  C226     1.0000 0.82987  0.68333  0.18093  Biso   1.000  C
  C227     1.0000 0.31667  0.14653  0.18093  Biso   1.000  C
  C228     1.0000 0.85347  0.17013  0.18093  Biso   1.000  C
  C229     1.0000 0.68333  0.82987  0.81907  Biso   1.000  C
  C230     1.0000 0.17013  0.85347  0.81907  Biso   1.000  C
  C231     1.0000 0.14653  0.31667  0.81907  Biso   1.000  C
  C232     1.0000 0.49653  0.01667  0.51427  Biso   1.000  C
  C233     1.0000 0.98333  0.47987  0.51427  Biso   1.000  C
  C234     1.0000 0.52013  0.50347  0.51427  Biso   1.000  C
  C235     1.0000 0.65000  0.83680  0.84760  Biso   1.000  C
  C236     1.0000 0.16320  0.81320  0.84760  Biso   1.000  C
  C237     1.0000 0.18680  0.35000  0.84760  Biso   1.000  C
  C238     1.0000 0.83680  0.65000  0.15240  Biso   1.000  C
  C239     1.0000 0.35000  0.18680  0.15240  Biso   1.000  C
  C240     1.0000 0.81320  0.16320  0.15240  Biso   1.000  C
  C241     1.0000 0.31667  0.17013  0.18093  Biso   1.000  C
  C242     1.0000 0.82987  0.14653  0.18093  Biso   1.000  C
  C243     1.0000 0.85347  0.68333  0.18093  Biso   1.000  C
  C244     1.0000 0.50347  0.98333  0.48573  Biso   1.000  C
  C245     1.0000 0.01667  0.52013  0.48573  Biso   1.000  C
  C246     1.0000 0.47987  0.49653  0.48573  Biso   1.000  C
  C247     1.0000 0.98333  0.50347  0.51427  Biso   1.000  C
  C248     1.0000 0.49653  0.47987  0.51427  Biso   1.000  C
  C249     1.0000 0.52013  0.01667  0.51427  Biso   1.000  C
  C250     1.0000 0.17013  0.31667  0.81907  Biso   1.000  C
  C251     1.0000 0.68333  0.85347  0.81907  Biso   1.000  C
  C252     1.0000 0.14653  0.82987  0.81907  Biso   1.000  C
  C253     1.0000 0.30840  0.16160  0.18230  Biso   1.000  C
  C254     1.0000 0.83840  0.14680  0.18230  Biso   1.000  C
  C255     1.0000 0.85320  0.69160  0.18230  Biso   1.000  C
  C256     1.0000 0.16160  0.30840  0.81770  Biso   1.000  C
  C257     1.0000 0.69160  0.85320  0.81770  Biso   1.000  C
  C258     1.0000 0.14680  0.83840  0.81770  Biso   1.000  C
  C259     1.0000 0.97507  0.49493  0.51563  Biso   1.000  C
  C260     1.0000 0.50507  0.48013  0.51563  Biso   1.000  C
  C261     1.0000 0.51987  0.02493  0.51563  Biso   1.000  C
  C262     1.0000 0.82827  0.64173  0.15103  Biso   1.000  C
  C263     1.0000 0.35827  0.18653  0.15103  Biso   1.000  C
  C264     1.0000 0.81347  0.17173  0.15103  Biso   1.000  C
  C265     1.0000 0.64173  0.82827  0.84897  Biso   1.000  C
  C266     1.0000 0.17173  0.81347  0.84897  Biso   1.000  C
  C267     1.0000 0.18653  0.35827  0.84897  Biso   1.000  C
  C268     1.0000 0.49493  0.97507  0.48437  Biso   1.000  C
  C269     1.0000 0.02493  0.51987  0.48437  Biso   1.000  C
  C270     1.0000 0.48013  0.50507  0.48437  Biso   1.000  C
  C271     1.0000 0.69160  0.83840  0.81770  Biso   1.000  C
  C272     1.0000 0.16160  0.85320  0.81770  Biso   1.000  C
  C273     1.0000 0.14680  0.30840  0.81770  Biso   1.000  C
  C274     1.0000 0.83840  0.69160  0.18230  Biso   1.000  C
  C275     1.0000 0.30840  0.14680  0.18230  Biso   1.000  C
  C276     1.0000 0.85320  0.16160  0.18230  Biso   1.000  C
  C277     1.0000 0.35827  0.17173  0.15103  Biso   1.000  C
  C278     1.0000 0.82827  0.18653  0.15103  Biso   1.000  C
  C279     1.0000 0.81347  0.64173  0.15103  Biso   1.000  C
  C280     1.0000 0.50507  0.02493  0.51563  Biso   1.000  C
  C281     1.0000 0.97507  0.48013  0.51563  Biso   1.000  C
  C282     1.0000 0.51987  0.49493  0.51563  Biso   1.000  C
  C283     1.0000 0.02493  0.50507  0.48437  Biso   1.000  C
  C284     1.0000 0.49493  0.51987  0.48437  Biso   1.000  C
  C285     1.0000 0.48013  0.97507  0.48437  Biso   1.000  C
  C286     1.0000 0.17173  0.35827  0.84897  Biso   1.000  C
  C287     1.0000 0.64173  0.81347  0.84897  Biso   1.000  C
  C288     1.0000 0.18653  0.82827  0.84897  Biso   1.000  C
  C289     1.0000 0.23070  0.13600  0.12070  Biso   1.000  C
  C290     1.0000 0.86400  0.09470  0.12070  Biso   1.000  C
  C291     1.0000 0.90530  0.76930  0.12070  Biso   1.000  C
  C292     1.0000 0.13600  0.23070  0.87930  Biso   1.000  C
  C293     1.0000 0.76930  0.90530  0.87930  Biso   1.000  C
  C294     1.0000 0.09470  0.86400  0.87930  Biso   1.000  C
  C295     1.0000 0.89737  0.46933  0.45403  Biso   1.000  C
  C296     1.0000 0.53067  0.42803  0.45403  Biso   1.000  C
  C297     1.0000 0.57197  0.10263  0.45403  Biso   1.000  C
  C298     1.0000 0.80267  0.56403  0.21263  Biso   1.000  C
  C299     1.0000 0.43597  0.23863  0.21263  Biso   1.000  C
  C300     1.0000 0.76137  0.19733  0.21263  Biso   1.000  C
  C301     1.0000 0.56403  0.80267  0.78737  Biso   1.000  C
  C302     1.0000 0.19733  0.76137  0.78737  Biso   1.000  C
  C303     1.0000 0.23863  0.43597  0.78737  Biso   1.000  C
  C304     1.0000 0.46933  0.89737  0.54597  Biso   1.000  C
  C305     1.0000 0.10263  0.57197  0.54597  Biso   1.000  C
  C306     1.0000 0.42803  0.53067  0.54597  Biso   1.000  C
  C307     1.0000 0.76930  0.86400  0.87930  Biso   1.000  C
  C308     1.0000 0.13600  0.90530  0.87930  Biso   1.000  C
  C309     1.0000 0.09470  0.23070  0.87930  Biso   1.000  C
  C310     1.0000 0.86400  0.76930  0.12070  Biso   1.000  C
  C311     1.0000 0.23070  0.09470  0.12070  Biso   1.000  C
  C312     1.0000 0.90530  0.13600  0.12070  Biso   1.000  C
  C313     1.0000 0.43597  0.19733  0.21263  Biso   1.000  C
  C314     1.0000 0.80267  0.23863  0.21263  Biso   1.000  C
  C315     1.0000 0.76137  0.56403  0.21263  Biso   1.000  C
  C316     1.0000 0.53067  0.10263  0.45403  Biso   1.000  C
  C317     1.0000 0.89737  0.42803  0.45403  Biso   1.000  C
  C318     1.0000 0.57197  0.46933  0.45403  Biso   1.000  C
  C319     1.0000 0.10263  0.53067  0.54597  Biso   1.000  C
  C320     1.0000 0.46933  0.57197  0.54597  Biso   1.000  C
  C321     1.0000 0.42803  0.89737  0.54597  Biso   1.000  C
  C322     1.0000 0.19733  0.43597  0.78737  Biso   1.000  C
  C323     1.0000 0.56403  0.76137  0.78737  Biso   1.000  C
  C324     1.0000 0.23863  0.80267  0.78737  Biso   1.000  C
  O91      1.0000 0.19230  0.10500  0.08770  Biso   1.000  O
  O92      1.0000 0.89500  0.08730  0.08770  Biso   1.000  O
  O93      1.0000 0.91270  0.80770  0.08770  Biso   1.000  O
  O94      1.0000 0.10500  0.19230  0.91230  Biso   1.000  O
  O95      1.0000 0.80770  0.91270  0.91230  Biso   1.000  O
  O96      1.0000 0.08730  0.89500  0.91230  Biso   1.000  O
  O97      1.0000 0.85897  0.43833  0.42103  Biso   1.000  O
  O98      1.0000 0.56167  0.42063  0.42103  Biso   1.000  O
  O99      1.0000 0.57937  0.14103  0.42103  Biso   1.000  O
  O100     1.0000 0.77167  0.52563  0.24563  Biso   1.000  O
  O101     1.0000 0.47437  0.24603  0.24563  Biso   1.000  O
  O102     1.0000 0.75397  0.22833  0.24563  Biso   1.000  O
  O103     1.0000 0.52563  0.77167  0.75437  Biso   1.000  O
  O104     1.0000 0.22833  0.75397  0.75437  Biso   1.000  O
  O105     1.0000 0.24603  0.47437  0.75437  Biso   1.000  O
  O106     1.0000 0.43833  0.85897  0.57897  Biso   1.000  O
  O107     1.0000 0.14103  0.57937  0.57897  Biso   1.000  O
  O108     1.0000 0.42063  0.56167  0.57897  Biso   1.000  O
  O109     1.0000 0.80770  0.89500  0.91230  Biso   1.000  O
  O110     1.0000 0.10500  0.91270  0.91230  Biso   1.000  O
  O111     1.0000 0.08730  0.19230  0.91230  Biso   1.000  O
  O112     1.0000 0.89500  0.80770  0.08770  Biso   1.000  O
  O113     1.0000 0.19230  0.08730  0.08770  Biso   1.000  O
  O114     1.0000 0.91270  0.10500  0.08770  Biso   1.000  O
  O115     1.0000 0.47437  0.22833  0.24563  Biso   1.000  O
  O116     1.0000 0.77167  0.24603  0.24563  Biso   1.000  O
  O117     1.0000 0.75397  0.52563  0.24563  Biso   1.000  O
  O118     1.0000 0.56167  0.14103  0.42103  Biso   1.000  O
  O119     1.0000 0.85897  0.42063  0.42103  Biso   1.000  O
  O120     1.0000 0.57937  0.43833  0.42103  Biso   1.000  O
  O121     1.0000 0.14103  0.56167  0.57897  Biso   1.000  O
  O122     1.0000 0.43833  0.57937  0.57897  Biso   1.000  O
  O123     1.0000 0.42063  0.85897  0.57897  Biso   1.000  O
  O124     1.0000 0.22833  0.47437  0.75437  Biso   1.000  O
  O125     1.0000 0.52563  0.75397  0.75437  Biso   1.000  O
  O126     1.0000 0.24603  0.77167  0.75437  Biso   1.000  O
  C325     1.0000 0.18840  0.12880  0.15020  Biso   1.000  C
  C326     1.0000 0.87120  0.05960  0.15020  Biso   1.000  C
  C327     1.0000 0.94040  0.81160  0.15020  Biso   1.000  C
  C328     1.0000 0.12880  0.18840  0.84980  Biso   1.000  C
  C329     1.0000 0.81160  0.94040  0.84980  Biso   1.000  C
  C330     1.0000 0.05960  0.87120  0.84980  Biso   1.000  C
  C331     1.0000 0.85507  0.46213  0.48353  Biso   1.000  C
  C332     1.0000 0.53787  0.39293  0.48353  Biso   1.000  C
  C333     1.0000 0.60707  0.14493  0.48353  Biso   1.000  C
  C334     1.0000 0.79547  0.52173  0.18313  Biso   1.000  C
  C335     1.0000 0.47827  0.27373  0.18313  Biso   1.000  C
  C336     1.0000 0.72627  0.20453  0.18313  Biso   1.000  C
  C337     1.0000 0.52173  0.79547  0.81687  Biso   1.000  C
  C338     1.0000 0.20453  0.72627  0.81687  Biso   1.000  C
  C339     1.0000 0.27373  0.47827  0.81687  Biso   1.000  C
  C340     1.0000 0.46213  0.85507  0.51647  Biso   1.000  C
  C341     1.0000 0.14493  0.60707  0.51647  Biso   1.000  C
  C342     1.0000 0.39293  0.53787  0.51647  Biso   1.000  C
  C343     1.0000 0.81160  0.87120  0.84980  Biso   1.000  C
  C344     1.0000 0.12880  0.94040  0.84980  Biso   1.000  C
  C345     1.0000 0.05960  0.18840  0.84980  Biso   1.000  C
  C346     1.0000 0.87120  0.81160  0.15020  Biso   1.000  C
  C347     1.0000 0.18840  0.05960  0.15020  Biso   1.000  C
  C348     1.0000 0.94040  0.12880  0.15020  Biso   1.000  C
  C349     1.0000 0.47827  0.20453  0.18313  Biso   1.000  C
  C350     1.0000 0.79547  0.27373  0.18313  Biso   1.000  C
  C351     1.0000 0.72627  0.52173  0.18313  Biso   1.000  C
  C352     1.0000 0.53787  0.14493  0.48353  Biso   1.000  C
  C353     1.0000 0.85507  0.39293  0.48353  Biso   1.000  C
  C354     1.0000 0.60707  0.46213  0.48353  Biso   1.000  C
  C355     1.0000 0.14493  0.53787  0.51647  Biso   1.000  C
  C356     1.0000 0.46213  0.60707  0.51647  Biso   1.000  C
  C357     1.0000 0.39293  0.85507  0.51647  Biso   1.000  C
  C358     1.0000 0.20453  0.47827  0.81687  Biso   1.000  C
  C359     1.0000 0.52173  0.72627  0.81687  Biso   1.000  C
  C360     1.0000 0.27373  0.79547  0.81687  Biso   1.000  C
  H199     1.0000 0.13440  0.12110  0.14940  Biso   1.000  H
  H200     1.0000 0.87890  0.01330  0.14940  Biso   1.000  H
  H201     1.0000 0.98670  0.86560  0.14940  Biso   1.000  H
  H202     1.0000 0.12110  0.13440  0.85060  Biso   1.000  H
  H203     1.0000 0.86560  0.98670  0.85060  Biso   1.000  H
  H204     1.0000 0.01330  0.87890  0.85060  Biso   1.000  H
  H205     1.0000 0.80107  0.45443  0.48273  Biso   1.000  H
  H206     1.0000 0.54557  0.34663  0.48273  Biso   1.000  H
  H207     1.0000 0.65337  0.19893  0.48273  Biso   1.000  H
  H208     1.0000 0.78777  0.46773  0.18393  Biso   1.000  H
  H209     1.0000 0.53227  0.32003  0.18393  Biso   1.000  H
  H210     1.0000 0.67997  0.21223  0.18393  Biso   1.000  H
  H211     1.0000 0.46773  0.78777  0.81607  Biso   1.000  H
  H212     1.0000 0.21223  0.67997  0.81607  Biso   1.000  H
  H213     1.0000 0.32003  0.53227  0.81607  Biso   1.000  H
  H214     1.0000 0.45443  0.80107  0.51727  Biso   1.000  H
  H215     1.0000 0.19893  0.65337  0.51727  Biso   1.000  H
  H216     1.0000 0.34663  0.54557  0.51727  Biso   1.000  H
  H217     1.0000 0.86560  0.87890  0.85060  Biso   1.000  H
  H218     1.0000 0.12110  0.98670  0.85060  Biso   1.000  H
  H219     1.0000 0.01330  0.13440  0.85060  Biso   1.000  H
  H220     1.0000 0.87890  0.86560  0.14940  Biso   1.000  H
  H221     1.0000 0.13440  0.01330  0.14940  Biso   1.000  H
  H222     1.0000 0.98670  0.12110  0.14940  Biso   1.000  H
  H223     1.0000 0.53227  0.21223  0.18393  Biso   1.000  H
  H224     1.0000 0.78777  0.32003  0.18393  Biso   1.000  H
  H225     1.0000 0.67997  0.46773  0.18393  Biso   1.000  H
  H226     1.0000 0.54557  0.19893  0.48273  Biso   1.000  H
  H227     1.0000 0.80107  0.34663  0.48273  Biso   1.000  H
  H228     1.0000 0.65337  0.45443  0.48273  Biso   1.000  H
  H229     1.0000 0.19893  0.54557  0.51727  Biso   1.000  H
  H230     1.0000 0.45443  0.65337  0.51727  Biso   1.000  H
  H231     1.0000 0.34663  0.80107  0.51727  Biso   1.000  H
  H232     1.0000 0.21223  0.53227  0.81607  Biso   1.000  H
  H233     1.0000 0.46773  0.67997  0.81607  Biso   1.000  H
  H234     1.0000 0.32003  0.78777  0.81607  Biso   1.000  H
