data_image0
_cell_length_a       32.3534
_cell_length_b       18.2884
_cell_length_c       32.7902
_cell_angle_alpha    90
_cell_angle_beta     111.698
_cell_angle_gamma    90

_symmetry_space_group_name_H-M    "P 1"
_symmetry_int_tables_number       1

loop_
  _symmetry_equiv_pos_as_xyz
  'x, y, z'

loop_
  _atom_site_label
  _atom_site_occupancy
  _atom_site_fract_x
  _atom_site_fract_y
  _atom_site_fract_z
  _atom_site_thermal_displace_type
  _atom_site_B_iso_or_equiv
  _atom_site_type_symbol
  Cu1      1.0000 0.24922  0.94053  0.21626  Biso   1.000  Cu
  Cu2      1.0000 0.75078  0.94053  0.28374  Biso   1.000  Cu
  Cu3      1.0000 0.74922  0.44053  0.21626  Biso   1.000  Cu
  Cu4      1.0000 0.25078  0.44053  0.28374  Biso   1.000  Cu
  Cu5      1.0000 0.75078  0.05947  0.78374  Biso   1.000  Cu
  Cu6      1.0000 0.24922  0.05947  0.71626  Biso   1.000  Cu
  Cu7      1.0000 0.25078  0.55947  0.78374  Biso   1.000  Cu
  Cu8      1.0000 0.74922  0.55947  0.71626  Biso   1.000  Cu
  Cu9      1.0000 0.25229  0.01591  0.28661  Biso   1.000  Cu
  Cu10     1.0000 0.74771  0.01591  0.21339  Biso   1.000  Cu
  Cu11     1.0000 0.75229  0.51591  0.28661  Biso   1.000  Cu
  Cu12     1.0000 0.24771  0.51591  0.21339  Biso   1.000  Cu
  Cu13     1.0000 0.74771  0.98409  0.71339  Biso   1.000  Cu
  Cu14     1.0000 0.25229  0.98409  0.78661  Biso   1.000  Cu
  Cu15     1.0000 0.24771  0.48409  0.71339  Biso   1.000  Cu
  Cu16     1.0000 0.75229  0.48409  0.78661  Biso   1.000  Cu
  Cu17     1.0000 0.03711  0.23273  0.28579  Biso   1.000  Cu
  Cu18     1.0000 0.96289  0.23273  0.21421  Biso   1.000  Cu
  Cu19     1.0000 0.53711  0.73273  0.28579  Biso   1.000  Cu
  Cu20     1.0000 0.46289  0.73273  0.21421  Biso   1.000  Cu
  Cu21     1.0000 0.96289  0.76727  0.71421  Biso   1.000  Cu
  Cu22     1.0000 0.03711  0.76727  0.78579  Biso   1.000  Cu
  Cu23     1.0000 0.46289  0.26727  0.71421  Biso   1.000  Cu
  Cu24     1.0000 0.53711  0.26727  0.78579  Biso   1.000  Cu
  O1       1.0000 0.31639  0.99710  0.30811  Biso   1.000  O
  O2       1.0000 0.68361  0.99710  0.19189  Biso   1.000  O
  O3       1.0000 0.81639  0.49710  0.30811  Biso   1.000  O
  O4       1.0000 0.18361  0.49710  0.19189  Biso   1.000  O
  O5       1.0000 0.68361  0.00290  0.69189  Biso   1.000  O
  O6       1.0000 0.31639  0.00290  0.80811  Biso   1.000  O
  O7       1.0000 0.18361  0.50290  0.69189  Biso   1.000  O
  O8       1.0000 0.81639  0.50290  0.80811  Biso   1.000  O
  O9       1.0000 0.24670  0.87570  0.16146  Biso   1.000  O
  O10      1.0000 0.75330  0.87570  0.33854  Biso   1.000  O
  O11      1.0000 0.74670  0.37570  0.16146  Biso   1.000  O
  O12      1.0000 0.25330  0.37570  0.33854  Biso   1.000  O
  O13      1.0000 0.75330  0.12430  0.83854  Biso   1.000  O
  O14      1.0000 0.24670  0.12430  0.66146  Biso   1.000  O
  O15      1.0000 0.25330  0.62430  0.83854  Biso   1.000  O
  O16      1.0000 0.74670  0.62430  0.66146  Biso   1.000  O
  H1       1.0000 0.22310  0.85020  0.15280  Biso   1.000  H
  H2       1.0000 0.77690  0.85020  0.34720  Biso   1.000  H
  H3       1.0000 0.72310  0.35020  0.15280  Biso   1.000  H
  H4       1.0000 0.27690  0.35020  0.34720  Biso   1.000  H
  H5       1.0000 0.77690  0.14980  0.84720  Biso   1.000  H
  H6       1.0000 0.22310  0.14980  0.65280  Biso   1.000  H
  H7       1.0000 0.27690  0.64980  0.84720  Biso   1.000  H
  H8       1.0000 0.72310  0.64980  0.65280  Biso   1.000  H
  H9       1.0000 0.26880  0.84680  0.16900  Biso   1.000  H
  H10      1.0000 0.73120  0.84680  0.33100  Biso   1.000  H
  H11      1.0000 0.76880  0.34680  0.16900  Biso   1.000  H
  H12      1.0000 0.23120  0.34680  0.33100  Biso   1.000  H
  H13      1.0000 0.73120  0.15320  0.83100  Biso   1.000  H
  H14      1.0000 0.26880  0.15320  0.66900  Biso   1.000  H
  H15      1.0000 0.23120  0.65320  0.83100  Biso   1.000  H
  H16      1.0000 0.76880  0.65320  0.66900  Biso   1.000  H
  O17      1.0000 0.25450  0.07590  0.34405  Biso   1.000  O
  O18      1.0000 0.74550  0.07590  0.15595  Biso   1.000  O
  O19      1.0000 0.75450  0.57590  0.34405  Biso   1.000  O
  O20      1.0000 0.24550  0.57590  0.15595  Biso   1.000  O
  O21      1.0000 0.74550  0.92410  0.65595  Biso   1.000  O
  O22      1.0000 0.25450  0.92410  0.84405  Biso   1.000  O
  O23      1.0000 0.24550  0.42410  0.65595  Biso   1.000  O
  O24      1.0000 0.75450  0.42410  0.84405  Biso   1.000  O
  H17      1.0000 0.23170  0.09940  0.34360  Biso   1.000  H
  H18      1.0000 0.76830  0.09940  0.15640  Biso   1.000  H
  H19      1.0000 0.73170  0.59940  0.34360  Biso   1.000  H
  H20      1.0000 0.26830  0.59940  0.15640  Biso   1.000  H
  H21      1.0000 0.76830  0.90060  0.65640  Biso   1.000  H
  H22      1.0000 0.23170  0.90060  0.84360  Biso   1.000  H
  H23      1.0000 0.26830  0.40060  0.65640  Biso   1.000  H
  H24      1.0000 0.73170  0.40060  0.84360  Biso   1.000  H
  H25      1.0000 0.27950  0.08980  0.36250  Biso   1.000  H
  H26      1.0000 0.72050  0.08980  0.13750  Biso   1.000  H
  H27      1.0000 0.77950  0.58980  0.36250  Biso   1.000  H
  H28      1.0000 0.22050  0.58980  0.13750  Biso   1.000  H
  H29      1.0000 0.72050  0.91020  0.63750  Biso   1.000  H
  H30      1.0000 0.27950  0.91020  0.86250  Biso   1.000  H
  H31      1.0000 0.22050  0.41020  0.63750  Biso   1.000  H
  H32      1.0000 0.77950  0.41020  0.86250  Biso   1.000  H
  O25      1.0000 0.31328  0.93280  0.24869  Biso   1.000  O
  O26      1.0000 0.68672  0.93280  0.25131  Biso   1.000  O
  O27      1.0000 0.81328  0.43280  0.24869  Biso   1.000  O
  O28      1.0000 0.18672  0.43280  0.25131  Biso   1.000  O
  O29      1.0000 0.68672  0.06720  0.75131  Biso   1.000  O
  O30      1.0000 0.31328  0.06720  0.74869  Biso   1.000  O
  O31      1.0000 0.18672  0.56720  0.75131  Biso   1.000  O
  O32      1.0000 0.81328  0.56720  0.74869  Biso   1.000  O
  O33      1.0000 0.09033  0.23250  0.34947  Biso   1.000  O
  O34      1.0000 0.90967  0.23250  0.15053  Biso   1.000  O
  O35      1.0000 0.59033  0.73250  0.34947  Biso   1.000  O
  O36      1.0000 0.40967  0.73250  0.15053  Biso   1.000  O
  O37      1.0000 0.90967  0.76750  0.65053  Biso   1.000  O
  O38      1.0000 0.09033  0.76750  0.84947  Biso   1.000  O
  O39      1.0000 0.40967  0.26750  0.65053  Biso   1.000  O
  O40      1.0000 0.59033  0.26750  0.84947  Biso   1.000  O
  H33      1.0000 0.11480  0.24250  0.34670  Biso   1.000  H
  H34      1.0000 0.88520  0.24250  0.15330  Biso   1.000  H
  H35      1.0000 0.61480  0.74250  0.34670  Biso   1.000  H
  H36      1.0000 0.38520  0.74250  0.15330  Biso   1.000  H
  H37      1.0000 0.88520  0.75750  0.65330  Biso   1.000  H
  H38      1.0000 0.11480  0.75750  0.84670  Biso   1.000  H
  H39      1.0000 0.38520  0.25750  0.65330  Biso   1.000  H
  H40      1.0000 0.61480  0.25750  0.84670  Biso   1.000  H
  H41      1.0000 0.09250  0.19020  0.36080  Biso   1.000  H
  H42      1.0000 0.90750  0.19020  0.13920  Biso   1.000  H
  H43      1.0000 0.59250  0.69020  0.36080  Biso   1.000  H
  H44      1.0000 0.40750  0.69020  0.13920  Biso   1.000  H
  H45      1.0000 0.90750  0.80980  0.63920  Biso   1.000  H
  H46      1.0000 0.09250  0.80980  0.86080  Biso   1.000  H
  H47      1.0000 0.40750  0.30980  0.63920  Biso   1.000  H
  H48      1.0000 0.59250  0.30980  0.86080  Biso   1.000  H
  O41      1.0000 0.44315  0.80540  0.24662  Biso   1.000  O
  O42      1.0000 0.55685  0.80540  0.25338  Biso   1.000  O
  O43      1.0000 0.94315  0.30540  0.24662  Biso   1.000  O
  O44      1.0000 0.05685  0.30540  0.25338  Biso   1.000  O
  O45      1.0000 0.55685  0.19460  0.75338  Biso   1.000  O
  O46      1.0000 0.44315  0.19460  0.74662  Biso   1.000  O
  O47      1.0000 0.05685  0.69460  0.75338  Biso   1.000  O
  O48      1.0000 0.94315  0.69460  0.74662  Biso   1.000  O
  O49      1.0000 0.50615  0.80730  0.30584  Biso   1.000  O
  O50      1.0000 0.49385  0.80730  0.19416  Biso   1.000  O
  O51      1.0000 0.00615  0.30730  0.30584  Biso   1.000  O
  O52      1.0000 0.99385  0.30730  0.19416  Biso   1.000  O
  O53      1.0000 0.49385  0.19270  0.69416  Biso   1.000  O
  O54      1.0000 0.50615  0.19270  0.80584  Biso   1.000  O
  O55      1.0000 0.99385  0.69270  0.69416  Biso   1.000  O
  O56      1.0000 0.00615  0.69270  0.80584  Biso   1.000  O
  O57      1.0000 0.44690  0.07830  0.41410  Biso   1.000  O
  O58      1.0000 0.55310  0.07830  0.08590  Biso   1.000  O
  O59      1.0000 0.94690  0.57830  0.41410  Biso   1.000  O
  O60      1.0000 0.05310  0.57830  0.08590  Biso   1.000  O
  O61      1.0000 0.55310  0.92170  0.58590  Biso   1.000  O
  O62      1.0000 0.44690  0.92170  0.91410  Biso   1.000  O
  O63      1.0000 0.05310  0.42170  0.58590  Biso   1.000  O
  O64      1.0000 0.94690  0.42170  0.91410  Biso   1.000  O
  O65      1.0000 0.24423  0.92199  0.31060  Biso   1.000  O
  O66      1.0000 0.75577  0.92199  0.18940  Biso   1.000  O
  O67      1.0000 0.74423  0.42199  0.31060  Biso   1.000  O
  O68      1.0000 0.25577  0.42199  0.18940  Biso   1.000  O
  O69      1.0000 0.75577  0.07801  0.68940  Biso   1.000  O
  O70      1.0000 0.24423  0.07801  0.81060  Biso   1.000  O
  O71      1.0000 0.25577  0.57801  0.68940  Biso   1.000  O
  O72      1.0000 0.74423  0.57801  0.81060  Biso   1.000  O
  O73      1.0000 0.24123  0.85834  0.25070  Biso   1.000  O
  O74      1.0000 0.75877  0.85834  0.24930  Biso   1.000  O
  O75      1.0000 0.74123  0.35834  0.25070  Biso   1.000  O
  O76      1.0000 0.25877  0.35834  0.24930  Biso   1.000  O
  O77      1.0000 0.75877  0.14166  0.74930  Biso   1.000  O
  O78      1.0000 0.24123  0.14166  0.75070  Biso   1.000  O
  O79      1.0000 0.25877  0.64166  0.74930  Biso   1.000  O
  O80      1.0000 0.74123  0.64166  0.75070  Biso   1.000  O
  O81      1.0000 0.23991  0.59727  0.24907  Biso   1.000  O
  O82      1.0000 0.76009  0.59727  0.25093  Biso   1.000  O
  O83      1.0000 0.73991  0.09727  0.24907  Biso   1.000  O
  O84      1.0000 0.26009  0.09727  0.25093  Biso   1.000  O
  O85      1.0000 0.76009  0.40273  0.75093  Biso   1.000  O
  O86      1.0000 0.23991  0.40273  0.74907  Biso   1.000  O
  O87      1.0000 0.26009  0.90273  0.75093  Biso   1.000  O
  O88      1.0000 0.73991  0.90273  0.74907  Biso   1.000  O
  O89      1.0000 0.24316  0.53178  0.30909  Biso   1.000  O
  O90      1.0000 0.75684  0.53178  0.19091  Biso   1.000  O
  O91      1.0000 0.74316  0.03178  0.30909  Biso   1.000  O
  O92      1.0000 0.25684  0.03178  0.19091  Biso   1.000  O
  O93      1.0000 0.75684  0.46822  0.69091  Biso   1.000  O
  O94      1.0000 0.24316  0.46822  0.80909  Biso   1.000  O
  O95      1.0000 0.25684  0.96822  0.69091  Biso   1.000  O
  O96      1.0000 0.74316  0.96822  0.80909  Biso   1.000  O
  O97      1.0000 0.19170  0.81650  0.41293  Biso   1.000  O
  O98      1.0000 0.80830  0.81650  0.08707  Biso   1.000  O
  O99      1.0000 0.69170  0.31650  0.41293  Biso   1.000  O
  O100     1.0000 0.30830  0.31650  0.08707  Biso   1.000  O
  O101     1.0000 0.80830  0.18350  0.58707  Biso   1.000  O
  O102     1.0000 0.19170  0.18350  0.91293  Biso   1.000  O
  O103     1.0000 0.30830  0.68350  0.58707  Biso   1.000  O
  O104     1.0000 0.69170  0.68350  0.91293  Biso   1.000  O
  O105     1.0000 0.18524  0.96160  0.19680  Biso   1.000  O
  O106     1.0000 0.81476  0.96160  0.30320  Biso   1.000  O
  O107     1.0000 0.68524  0.46160  0.19680  Biso   1.000  O
  O108     1.0000 0.31476  0.46160  0.30320  Biso   1.000  O
  O109     1.0000 0.81476  0.03840  0.80320  Biso   1.000  O
  O110     1.0000 0.18524  0.03840  0.69680  Biso   1.000  O
  O111     1.0000 0.31476  0.53840  0.80320  Biso   1.000  O
  O112     1.0000 0.68524  0.53840  0.69680  Biso   1.000  O
  O113     1.0000 0.18854  0.02460  0.25612  Biso   1.000  O
  O114     1.0000 0.81146  0.02460  0.24388  Biso   1.000  O
  O115     1.0000 0.68854  0.52460  0.25612  Biso   1.000  O
  O116     1.0000 0.31146  0.52460  0.24388  Biso   1.000  O
  O117     1.0000 0.81146  0.97540  0.74388  Biso   1.000  O
  O118     1.0000 0.18854  0.97540  0.75612  Biso   1.000  O
  O119     1.0000 0.31146  0.47540  0.74388  Biso   1.000  O
  O120     1.0000 0.68854  0.47540  0.75612  Biso   1.000  O
  O121     1.0000 0.05885  0.15720  0.25650  Biso   1.000  O
  O122     1.0000 0.94115  0.15720  0.24350  Biso   1.000  O
  O123     1.0000 0.55885  0.65720  0.25650  Biso   1.000  O
  O124     1.0000 0.44115  0.65720  0.24350  Biso   1.000  O
  O125     1.0000 0.94115  0.84280  0.74350  Biso   1.000  O
  O126     1.0000 0.05885  0.84280  0.75650  Biso   1.000  O
  O127     1.0000 0.44115  0.34280  0.74350  Biso   1.000  O
  O128     1.0000 0.55885  0.34280  0.75650  Biso   1.000  O
  O129     1.0000 0.99648  0.15700  0.19648  Biso   1.000  O
  O130     1.0000 0.00352  0.15700  0.30352  Biso   1.000  O
  O131     1.0000 0.49648  0.65700  0.19648  Biso   1.000  O
  O132     1.0000 0.50352  0.65700  0.30352  Biso   1.000  O
  O133     1.0000 0.00352  0.84300  0.80352  Biso   1.000  O
  O134     1.0000 0.99648  0.84300  0.69648  Biso   1.000  O
  O135     1.0000 0.50352  0.34300  0.80352  Biso   1.000  O
  O136     1.0000 0.49648  0.34300  0.69648  Biso   1.000  O
  C1       1.0000 0.38125  0.93850  0.30825  Biso   1.000  C
  C2       1.0000 0.61875  0.93850  0.19175  Biso   1.000  C
  C3       1.0000 0.88125  0.43850  0.30825  Biso   1.000  C
  C4       1.0000 0.11875  0.43850  0.19175  Biso   1.000  C
  C5       1.0000 0.61875  0.06150  0.69175  Biso   1.000  C
  C6       1.0000 0.38125  0.06150  0.80825  Biso   1.000  C
  C7       1.0000 0.11875  0.56150  0.69175  Biso   1.000  C
  C8       1.0000 0.88125  0.56150  0.80825  Biso   1.000  C
  C9       1.0000 0.40200  0.89780  0.28594  Biso   1.000  C
  C10      1.0000 0.59800  0.89780  0.21406  Biso   1.000  C
  C11      1.0000 0.90200  0.39780  0.28594  Biso   1.000  C
  C12      1.0000 0.09800  0.39780  0.21406  Biso   1.000  C
  C13      1.0000 0.59800  0.10220  0.71406  Biso   1.000  C
  C14      1.0000 0.40200  0.10220  0.78594  Biso   1.000  C
  C15      1.0000 0.09800  0.60220  0.71406  Biso   1.000  C
  C16      1.0000 0.90200  0.60220  0.78594  Biso   1.000  C
  H49      1.0000 0.38670  0.88510  0.25680  Biso   1.000  H
  H50      1.0000 0.61330  0.88510  0.24320  Biso   1.000  H
  H51      1.0000 0.88670  0.38510  0.25680  Biso   1.000  H
  H52      1.0000 0.11330  0.38510  0.24320  Biso   1.000  H
  H53      1.0000 0.61330  0.11490  0.74320  Biso   1.000  H
  H54      1.0000 0.38670  0.11490  0.75680  Biso   1.000  H
  H55      1.0000 0.11330  0.61490  0.74320  Biso   1.000  H
  H56      1.0000 0.88670  0.61490  0.75680  Biso   1.000  H
  C17      1.0000 0.44567  0.87600  0.30712  Biso   1.000  C
  C18      1.0000 0.55433  0.87600  0.19288  Biso   1.000  C
  C19      1.0000 0.94567  0.37600  0.30712  Biso   1.000  C
  C20      1.0000 0.05433  0.37600  0.19288  Biso   1.000  C
  C21      1.0000 0.55433  0.12400  0.69288  Biso   1.000  C
  C22      1.0000 0.44567  0.12400  0.80712  Biso   1.000  C
  C23      1.0000 0.05433  0.62400  0.69288  Biso   1.000  C
  C24      1.0000 0.94567  0.62400  0.80712  Biso   1.000  C
  C25      1.0000 0.46850  0.89700  0.35170  Biso   1.000  C
  C26      1.0000 0.53150  0.89700  0.14830  Biso   1.000  C
  C27      1.0000 0.96850  0.39700  0.35170  Biso   1.000  C
  C28      1.0000 0.03150  0.39700  0.14830  Biso   1.000  C
  C29      1.0000 0.53150  0.10300  0.64830  Biso   1.000  C
  C30      1.0000 0.46850  0.10300  0.85170  Biso   1.000  C
  C31      1.0000 0.03150  0.60300  0.64830  Biso   1.000  C
  C32      1.0000 0.96850  0.60300  0.85170  Biso   1.000  C
  H57      1.0000 0.49810  0.88330  0.36600  Biso   1.000  H
  H58      1.0000 0.50190  0.88330  0.13400  Biso   1.000  H
  H59      1.0000 0.99810  0.38330  0.36600  Biso   1.000  H
  H60      1.0000 0.00190  0.38330  0.13400  Biso   1.000  H
  H61      1.0000 0.50190  0.11670  0.63400  Biso   1.000  H
  H62      1.0000 0.49810  0.11670  0.86600  Biso   1.000  H
  H63      1.0000 0.00190  0.61670  0.63400  Biso   1.000  H
  H64      1.0000 0.99810  0.61670  0.86600  Biso   1.000  H
  C33      1.0000 0.44810  0.93630  0.37355  Biso   1.000  C
  C34      1.0000 0.55190  0.93630  0.12645  Biso   1.000  C
  C35      1.0000 0.94810  0.43630  0.37355  Biso   1.000  C
  C36      1.0000 0.05190  0.43630  0.12645  Biso   1.000  C
  C37      1.0000 0.55190  0.06370  0.62645  Biso   1.000  C
  C38      1.0000 0.44810  0.06370  0.87355  Biso   1.000  C
  C39      1.0000 0.05190  0.56370  0.62645  Biso   1.000  C
  C40      1.0000 0.94810  0.56370  0.87355  Biso   1.000  C
  C41      1.0000 0.40390  0.95880  0.35130  Biso   1.000  C
  C42      1.0000 0.59610  0.95880  0.14870  Biso   1.000  C
  C43      1.0000 0.90390  0.45880  0.35130  Biso   1.000  C
  C44      1.0000 0.09610  0.45880  0.14870  Biso   1.000  C
  C45      1.0000 0.59610  0.04120  0.64870  Biso   1.000  C
  C46      1.0000 0.40390  0.04120  0.85130  Biso   1.000  C
  C47      1.0000 0.09610  0.54120  0.64870  Biso   1.000  C
  C48      1.0000 0.90390  0.54120  0.85130  Biso   1.000  C
  H65      1.0000 0.38980  0.98750  0.36570  Biso   1.000  H
  H66      1.0000 0.61020  0.98750  0.13430  Biso   1.000  H
  H67      1.0000 0.88980  0.48750  0.36570  Biso   1.000  H
  H68      1.0000 0.11020  0.48750  0.13430  Biso   1.000  H
  H69      1.0000 0.61020  0.01250  0.63430  Biso   1.000  H
  H70      1.0000 0.38980  0.01250  0.86570  Biso   1.000  H
  H71      1.0000 0.11020  0.51250  0.63430  Biso   1.000  H
  H72      1.0000 0.88980  0.51250  0.86570  Biso   1.000  H
  C49      1.0000 0.33268  0.95780  0.28652  Biso   1.000  C
  C50      1.0000 0.66732  0.95780  0.21348  Biso   1.000  C
  C51      1.0000 0.83268  0.45780  0.28652  Biso   1.000  C
  C52      1.0000 0.16732  0.45780  0.21348  Biso   1.000  C
  C53      1.0000 0.66732  0.04220  0.71348  Biso   1.000  C
  C54      1.0000 0.33268  0.04220  0.78652  Biso   1.000  C
  C55      1.0000 0.16732  0.54220  0.71348  Biso   1.000  C
  C56      1.0000 0.83268  0.54220  0.78652  Biso   1.000  C
  C57      1.0000 0.46667  0.82580  0.28500  Biso   1.000  C
  C58      1.0000 0.53333  0.82580  0.21500  Biso   1.000  C
  C59      1.0000 0.96667  0.32580  0.28500  Biso   1.000  C
  C60      1.0000 0.03333  0.32580  0.21500  Biso   1.000  C
  C61      1.0000 0.53333  0.17420  0.71500  Biso   1.000  C
  C62      1.0000 0.46667  0.17420  0.78500  Biso   1.000  C
  C63      1.0000 0.03333  0.67420  0.71500  Biso   1.000  C
  C64      1.0000 0.96667  0.67420  0.78500  Biso   1.000  C
  C65      1.0000 0.47120  0.95210  0.42210  Biso   1.000  C
  C66      1.0000 0.52880  0.95210  0.07790  Biso   1.000  C
  C67      1.0000 0.97120  0.45210  0.42210  Biso   1.000  C
  C68      1.0000 0.02880  0.45210  0.07790  Biso   1.000  C
  C69      1.0000 0.52880  0.04790  0.57790  Biso   1.000  C
  C70      1.0000 0.47120  0.04790  0.92210  Biso   1.000  C
  C71      1.0000 0.02880  0.54790  0.57790  Biso   1.000  C
  C72      1.0000 0.97120  0.54790  0.92210  Biso   1.000  C
  C73      1.0000 0.49500  0.89430  0.44910  Biso   1.000  C
  C74      1.0000 0.50500  0.89430  0.05090  Biso   1.000  C
  C75      1.0000 0.99500  0.39430  0.44910  Biso   1.000  C
  C76      1.0000 0.00500  0.39430  0.05090  Biso   1.000  C
  C77      1.0000 0.50500  0.10570  0.55090  Biso   1.000  C
  C78      1.0000 0.49500  0.10570  0.94910  Biso   1.000  C
  C79      1.0000 0.00500  0.60570  0.55090  Biso   1.000  C
  C80      1.0000 0.99500  0.60570  0.94910  Biso   1.000  C
  H73      1.0000 0.49710  0.84980  0.43630  Biso   1.000  H
  H74      1.0000 0.50290  0.84980  0.06370  Biso   1.000  H
  H75      1.0000 0.99710  0.34980  0.43630  Biso   1.000  H
  H76      1.0000 0.00290  0.34980  0.06370  Biso   1.000  H
  H77      1.0000 0.50290  0.15020  0.56370  Biso   1.000  H
  H78      1.0000 0.49710  0.15020  0.93630  Biso   1.000  H
  H79      1.0000 0.00290  0.65020  0.56370  Biso   1.000  H
  H80      1.0000 0.99710  0.65020  0.93630  Biso   1.000  H
  C81      1.0000 0.51490  0.90170  0.49310  Biso   1.000  C
  C82      1.0000 0.48510  0.90170  0.00690  Biso   1.000  C
  C83      1.0000 0.01490  0.40170  0.49310  Biso   1.000  C
  C84      1.0000 0.98510  0.40170  0.00690  Biso   1.000  C
  C85      1.0000 0.48510  0.09830  0.50690  Biso   1.000  C
  C86      1.0000 0.51490  0.09830  0.99310  Biso   1.000  C
  C87      1.0000 0.98510  0.59830  0.50690  Biso   1.000  C
  C88      1.0000 0.01490  0.59830  0.99310  Biso   1.000  C
  H81      1.0000 0.53070  0.86310  0.51030  Biso   1.000  H
  H82      1.0000 0.46930  0.86310  0.98970  Biso   1.000  H
  H83      1.0000 0.03070  0.36310  0.51030  Biso   1.000  H
  H84      1.0000 0.96930  0.36310  0.98970  Biso   1.000  H
  H85      1.0000 0.46930  0.13690  0.48970  Biso   1.000  H
  H86      1.0000 0.53070  0.13690  0.01030  Biso   1.000  H
  H87      1.0000 0.96930  0.63690  0.48970  Biso   1.000  H
  H88      1.0000 0.03070  0.63690  0.01030  Biso   1.000  H
  C89      1.0000 0.48870  0.02930  0.48690  Biso   1.000  C
  C90      1.0000 0.51130  0.02930  0.01310  Biso   1.000  C
  C91      1.0000 0.98870  0.52930  0.48690  Biso   1.000  C
  C92      1.0000 0.01130  0.52930  0.01310  Biso   1.000  C
  C93      1.0000 0.51130  0.97070  0.51310  Biso   1.000  C
  C94      1.0000 0.48870  0.97070  0.98690  Biso   1.000  C
  C95      1.0000 0.01130  0.47070  0.51310  Biso   1.000  C
  C96      1.0000 0.98870  0.47070  0.98690  Biso   1.000  C
  C97      1.0000 0.46960  0.01880  0.44050  Biso   1.000  C
  C98      1.0000 0.53040  0.01880  0.05950  Biso   1.000  C
  C99      1.0000 0.96960  0.51880  0.44050  Biso   1.000  C
  C100     1.0000 0.03040  0.51880  0.05950  Biso   1.000  C
  C101     1.0000 0.53040  0.98120  0.55950  Biso   1.000  C
  C102     1.0000 0.46960  0.98120  0.94050  Biso   1.000  C
  C103     1.0000 0.03040  0.48120  0.55950  Biso   1.000  C
  C104     1.0000 0.96960  0.48120  0.94050  Biso   1.000  C
  C105     1.0000 0.47380  0.11800  0.39250  Biso   1.000  C
  C106     1.0000 0.52620  0.11800  0.10750  Biso   1.000  C
  C107     1.0000 0.97380  0.61800  0.39250  Biso   1.000  C
  C108     1.0000 0.02620  0.61800  0.10750  Biso   1.000  C
  C109     1.0000 0.52620  0.88200  0.60750  Biso   1.000  C
  C110     1.0000 0.47380  0.88200  0.89250  Biso   1.000  C
  C111     1.0000 0.02620  0.38200  0.60750  Biso   1.000  C
  C112     1.0000 0.97380  0.38200  0.89250  Biso   1.000  C
  H89      1.0000 0.45660  0.15770  0.37520  Biso   1.000  H
  H90      1.0000 0.54340  0.15770  0.12480  Biso   1.000  H
  H91      1.0000 0.95660  0.65770  0.37520  Biso   1.000  H
  H92      1.0000 0.04340  0.65770  0.12480  Biso   1.000  H
  H93      1.0000 0.54340  0.84230  0.62480  Biso   1.000  H
  H94      1.0000 0.45660  0.84230  0.87520  Biso   1.000  H
  H95      1.0000 0.04340  0.34230  0.62480  Biso   1.000  H
  H96      1.0000 0.95660  0.34230  0.87520  Biso   1.000  H
  H97      1.0000 0.48170  0.08490  0.37380  Biso   1.000  H
  H98      1.0000 0.51830  0.08490  0.12620  Biso   1.000  H
  H99      1.0000 0.98170  0.58490  0.37380  Biso   1.000  H
  H100     1.0000 0.01830  0.58490  0.12620  Biso   1.000  H
  H101     1.0000 0.51830  0.91510  0.62620  Biso   1.000  H
  H102     1.0000 0.48170  0.91510  0.87380  Biso   1.000  H
  H103     1.0000 0.01830  0.41510  0.62620  Biso   1.000  H
  H104     1.0000 0.98170  0.41510  0.87380  Biso   1.000  H
  H105     1.0000 0.50040  0.13700  0.41460  Biso   1.000  H
  H106     1.0000 0.49960  0.13700  0.08540  Biso   1.000  H
  H107     1.0000 0.00040  0.63700  0.41460  Biso   1.000  H
  H108     1.0000 0.99960  0.63700  0.08540  Biso   1.000  H
  H109     1.0000 0.49960  0.86300  0.58540  Biso   1.000  H
  H110     1.0000 0.50040  0.86300  0.91460  Biso   1.000  H
  H111     1.0000 0.99960  0.36300  0.58540  Biso   1.000  H
  H112     1.0000 0.00040  0.36300  0.91460  Biso   1.000  H
  C113     1.0000 0.23940  0.79240  0.31107  Biso   1.000  C
  C114     1.0000 0.76060  0.79240  0.18893  Biso   1.000  C
  C115     1.0000 0.73940  0.29240  0.31107  Biso   1.000  C
  C116     1.0000 0.26060  0.29240  0.18893  Biso   1.000  C
  C117     1.0000 0.76060  0.20760  0.68893  Biso   1.000  C
  C118     1.0000 0.23940  0.20760  0.81107  Biso   1.000  C
  C119     1.0000 0.26060  0.70760  0.68893  Biso   1.000  C
  C120     1.0000 0.73940  0.70760  0.81107  Biso   1.000  C
  C121     1.0000 0.23730  0.72710  0.28877  Biso   1.000  C
  C122     1.0000 0.76270  0.72710  0.21123  Biso   1.000  C
  C123     1.0000 0.73730  0.22710  0.28877  Biso   1.000  C
  C124     1.0000 0.26270  0.22710  0.21123  Biso   1.000  C
  C125     1.0000 0.76270  0.27290  0.71123  Biso   1.000  C
  C126     1.0000 0.23730  0.27290  0.78877  Biso   1.000  C
  C127     1.0000 0.26270  0.77290  0.71123  Biso   1.000  C
  C128     1.0000 0.73730  0.77290  0.78877  Biso   1.000  C
  H113     1.0000 0.23500  0.72720  0.25960  Biso   1.000  H
  H114     1.0000 0.76500  0.72720  0.24040  Biso   1.000  H
  H115     1.0000 0.73500  0.22720  0.25960  Biso   1.000  H
  H116     1.0000 0.26500  0.22720  0.24040  Biso   1.000  H
  H117     1.0000 0.76500  0.27280  0.74040  Biso   1.000  H
  H118     1.0000 0.23500  0.27280  0.75960  Biso   1.000  H
  H119     1.0000 0.26500  0.77280  0.74040  Biso   1.000  H
  H120     1.0000 0.73500  0.77280  0.75960  Biso   1.000  H
  C129     1.0000 0.23890  0.66240  0.31053  Biso   1.000  C
  C130     1.0000 0.76110  0.66240  0.18947  Biso   1.000  C
  C131     1.0000 0.73890  0.16240  0.31053  Biso   1.000  C
  C132     1.0000 0.26110  0.16240  0.18947  Biso   1.000  C
  C133     1.0000 0.76110  0.33760  0.68947  Biso   1.000  C
  C134     1.0000 0.23890  0.33760  0.81053  Biso   1.000  C
  C135     1.0000 0.26110  0.83760  0.68947  Biso   1.000  C
  C136     1.0000 0.73890  0.83760  0.81053  Biso   1.000  C
  C137     1.0000 0.24220  0.66200  0.35429  Biso   1.000  C
  C138     1.0000 0.75780  0.66200  0.14571  Biso   1.000  C
  C139     1.0000 0.74220  0.16200  0.35429  Biso   1.000  C
  C140     1.0000 0.25780  0.16200  0.14571  Biso   1.000  C
  C141     1.0000 0.75780  0.33800  0.64571  Biso   1.000  C
  C142     1.0000 0.24220  0.33800  0.85429  Biso   1.000  C
  C143     1.0000 0.25780  0.83800  0.64571  Biso   1.000  C
  C144     1.0000 0.74220  0.83800  0.85429  Biso   1.000  C
  H121     1.0000 0.24360  0.61750  0.36850  Biso   1.000  H
  H122     1.0000 0.75640  0.61750  0.13150  Biso   1.000  H
  H123     1.0000 0.74360  0.11750  0.36850  Biso   1.000  H
  H124     1.0000 0.25640  0.11750  0.13150  Biso   1.000  H
  H125     1.0000 0.75640  0.38250  0.63150  Biso   1.000  H
  H126     1.0000 0.24360  0.38250  0.86850  Biso   1.000  H
  H127     1.0000 0.25640  0.88250  0.63150  Biso   1.000  H
  H128     1.0000 0.74360  0.88250  0.86850  Biso   1.000  H
  C145     1.0000 0.24330  0.72640  0.37677  Biso   1.000  C
  C146     1.0000 0.75670  0.72640  0.12323  Biso   1.000  C
  C147     1.0000 0.74330  0.22640  0.37677  Biso   1.000  C
  C148     1.0000 0.25670  0.22640  0.12323  Biso   1.000  C
  C149     1.0000 0.75670  0.27360  0.62323  Biso   1.000  C
  C150     1.0000 0.24330  0.27360  0.87677  Biso   1.000  C
  C151     1.0000 0.25670  0.77360  0.62323  Biso   1.000  C
  C152     1.0000 0.74330  0.77360  0.87677  Biso   1.000  C
  C153     1.0000 0.24240  0.79290  0.35393  Biso   1.000  C
  C154     1.0000 0.75760  0.79290  0.14607  Biso   1.000  C
  C155     1.0000 0.74240  0.29290  0.35393  Biso   1.000  C
  C156     1.0000 0.25760  0.29290  0.14607  Biso   1.000  C
  C157     1.0000 0.75760  0.20710  0.64607  Biso   1.000  C
  C158     1.0000 0.24240  0.20710  0.85393  Biso   1.000  C
  C159     1.0000 0.25760  0.70710  0.64607  Biso   1.000  C
  C160     1.0000 0.74240  0.70710  0.85393  Biso   1.000  C
  H129     1.0000 0.24390  0.83730  0.36820  Biso   1.000  H
  H130     1.0000 0.75610  0.83730  0.13180  Biso   1.000  H
  H131     1.0000 0.74390  0.33730  0.36820  Biso   1.000  H
  H132     1.0000 0.25610  0.33730  0.13180  Biso   1.000  H
  H133     1.0000 0.75610  0.16270  0.63180  Biso   1.000  H
  H134     1.0000 0.24390  0.16270  0.86820  Biso   1.000  H
  H135     1.0000 0.25610  0.66270  0.63180  Biso   1.000  H
  H136     1.0000 0.74390  0.66270  0.86820  Biso   1.000  H
  C161     1.0000 0.24175  0.86310  0.28789  Biso   1.000  C
  C162     1.0000 0.75825  0.86310  0.21211  Biso   1.000  C
  C163     1.0000 0.74175  0.36310  0.28789  Biso   1.000  C
  C164     1.0000 0.25825  0.36310  0.21211  Biso   1.000  C
  C165     1.0000 0.75825  0.13690  0.71211  Biso   1.000  C
  C166     1.0000 0.24175  0.13690  0.78789  Biso   1.000  C
  C167     1.0000 0.25825  0.63690  0.71211  Biso   1.000  C
  C168     1.0000 0.74175  0.63690  0.78789  Biso   1.000  C
  C169     1.0000 0.24083  0.59180  0.28672  Biso   1.000  C
  C170     1.0000 0.75917  0.59180  0.21328  Biso   1.000  C
  C171     1.0000 0.74083  0.09180  0.28672  Biso   1.000  C
  C172     1.0000 0.25917  0.09180  0.21328  Biso   1.000  C
  C173     1.0000 0.75917  0.40820  0.71328  Biso   1.000  C
  C174     1.0000 0.24083  0.40820  0.78672  Biso   1.000  C
  C175     1.0000 0.25917  0.90820  0.71328  Biso   1.000  C
  C176     1.0000 0.74083  0.90820  0.78672  Biso   1.000  C
  C177     1.0000 0.23490  0.77230  0.48620  Biso   1.000  C
  C178     1.0000 0.76510  0.77230  0.01380  Biso   1.000  C
  C179     1.0000 0.73490  0.27230  0.48620  Biso   1.000  C
  C180     1.0000 0.26510  0.27230  0.01380  Biso   1.000  C
  C181     1.0000 0.76510  0.22770  0.51380  Biso   1.000  C
  C182     1.0000 0.23490  0.22770  0.98620  Biso   1.000  C
  C183     1.0000 0.26510  0.72770  0.51380  Biso   1.000  C
  C184     1.0000 0.73490  0.72770  0.98620  Biso   1.000  C
  C185     1.0000 0.22450  0.77100  0.43970  Biso   1.000  C
  C186     1.0000 0.77550  0.77100  0.06030  Biso   1.000  C
  C187     1.0000 0.72450  0.27100  0.43970  Biso   1.000  C
  C188     1.0000 0.27550  0.27100  0.06030  Biso   1.000  C
  C189     1.0000 0.77550  0.22900  0.56030  Biso   1.000  C
  C190     1.0000 0.22450  0.22900  0.93970  Biso   1.000  C
  C191     1.0000 0.27550  0.72900  0.56030  Biso   1.000  C
  C192     1.0000 0.72450  0.72900  0.93970  Biso   1.000  C
  C193     1.0000 0.24900  0.72620  0.42353  Biso   1.000  C
  C194     1.0000 0.75100  0.72620  0.07647  Biso   1.000  C
  C195     1.0000 0.74900  0.22620  0.42353  Biso   1.000  C
  C196     1.0000 0.25100  0.22620  0.07647  Biso   1.000  C
  C197     1.0000 0.75100  0.27380  0.57647  Biso   1.000  C
  C198     1.0000 0.24900  0.27380  0.92353  Biso   1.000  C
  C199     1.0000 0.25100  0.77380  0.57647  Biso   1.000  C
  C200     1.0000 0.74900  0.77380  0.92353  Biso   1.000  C
  C201     1.0000 0.28110  0.68080  0.45220  Biso   1.000  C
  C202     1.0000 0.71890  0.68080  0.04780  Biso   1.000  C
  C203     1.0000 0.78110  0.18080  0.45220  Biso   1.000  C
  C204     1.0000 0.21890  0.18080  0.04780  Biso   1.000  C
  C205     1.0000 0.71890  0.31920  0.54780  Biso   1.000  C
  C206     1.0000 0.28110  0.31920  0.95220  Biso   1.000  C
  C207     1.0000 0.21890  0.81920  0.54780  Biso   1.000  C
  C208     1.0000 0.78110  0.81920  0.95220  Biso   1.000  C
  H137     1.0000 0.29730  0.65010  0.44110  Biso   1.000  H
  H138     1.0000 0.70270  0.65010  0.05890  Biso   1.000  H
  H139     1.0000 0.79730  0.15010  0.44110  Biso   1.000  H
  H140     1.0000 0.20270  0.15010  0.05890  Biso   1.000  H
  H141     1.0000 0.70270  0.34990  0.55890  Biso   1.000  H
  H142     1.0000 0.29730  0.34990  0.94110  Biso   1.000  H
  H143     1.0000 0.20270  0.84990  0.55890  Biso   1.000  H
  H144     1.0000 0.79730  0.84990  0.94110  Biso   1.000  H
  C209     1.0000 0.28960  0.67930  0.49590  Biso   1.000  C
  C210     1.0000 0.71040  0.67930  0.00410  Biso   1.000  C
  C211     1.0000 0.78960  0.17930  0.49590  Biso   1.000  C
  C212     1.0000 0.21040  0.17930  0.00410  Biso   1.000  C
  C213     1.0000 0.71040  0.32070  0.50410  Biso   1.000  C
  C214     1.0000 0.28960  0.32070  0.99590  Biso   1.000  C
  C215     1.0000 0.21040  0.82070  0.50410  Biso   1.000  C
  C216     1.0000 0.78960  0.82070  0.99590  Biso   1.000  C
  H145     1.0000 0.31100  0.64770  0.51420  Biso   1.000  H
  H146     1.0000 0.68900  0.64770  0.98580  Biso   1.000  H
  H147     1.0000 0.81100  0.14770  0.51420  Biso   1.000  H
  H148     1.0000 0.18900  0.14770  0.98580  Biso   1.000  H
  H149     1.0000 0.68900  0.35230  0.48580  Biso   1.000  H
  H150     1.0000 0.31100  0.35230  0.01420  Biso   1.000  H
  H151     1.0000 0.18900  0.85230  0.48580  Biso   1.000  H
  H152     1.0000 0.81100  0.85230  0.01420  Biso   1.000  H
  C217     1.0000 0.15060  0.78550  0.39180  Biso   1.000  C
  C218     1.0000 0.84940  0.78550  0.10820  Biso   1.000  C
  C219     1.0000 0.65060  0.28550  0.39180  Biso   1.000  C
  C220     1.0000 0.34940  0.28550  0.10820  Biso   1.000  C
  C221     1.0000 0.84940  0.21450  0.60820  Biso   1.000  C
  C222     1.0000 0.15060  0.21450  0.89180  Biso   1.000  C
  C223     1.0000 0.34940  0.71450  0.60820  Biso   1.000  C
  C224     1.0000 0.65060  0.71450  0.89180  Biso   1.000  C
  H153     1.0000 0.13050  0.82160  0.37400  Biso   1.000  H
  H154     1.0000 0.86950  0.82160  0.12600  Biso   1.000  H
  H155     1.0000 0.63050  0.32160  0.37400  Biso   1.000  H
  H156     1.0000 0.36950  0.32160  0.12600  Biso   1.000  H
  H157     1.0000 0.86950  0.17840  0.62600  Biso   1.000  H
  H158     1.0000 0.13050  0.17840  0.87400  Biso   1.000  H
  H159     1.0000 0.36950  0.67840  0.62600  Biso   1.000  H
  H160     1.0000 0.63050  0.67840  0.87400  Biso   1.000  H
  H161     1.0000 0.13940  0.76710  0.41320  Biso   1.000  H
  H162     1.0000 0.86060  0.76710  0.08680  Biso   1.000  H
  H163     1.0000 0.63940  0.26710  0.41320  Biso   1.000  H
  H164     1.0000 0.36060  0.26710  0.08680  Biso   1.000  H
  H165     1.0000 0.86060  0.23290  0.58680  Biso   1.000  H
  H166     1.0000 0.13940  0.23290  0.91320  Biso   1.000  H
  H167     1.0000 0.36060  0.73290  0.58680  Biso   1.000  H
  H168     1.0000 0.63940  0.73290  0.91320  Biso   1.000  H
  H169     1.0000 0.15320  0.74600  0.37370  Biso   1.000  H
  H170     1.0000 0.84680  0.74600  0.12630  Biso   1.000  H
  H171     1.0000 0.65320  0.24600  0.37370  Biso   1.000  H
  H172     1.0000 0.34680  0.24600  0.12630  Biso   1.000  H
  H173     1.0000 0.84680  0.25400  0.62630  Biso   1.000  H
  H174     1.0000 0.15320  0.25400  0.87370  Biso   1.000  H
  H175     1.0000 0.34680  0.75400  0.62630  Biso   1.000  H
  H176     1.0000 0.65320  0.75400  0.87370  Biso   1.000  H
  C225     1.0000 0.05420  0.02340  0.13076  Biso   1.000  C
  C226     1.0000 0.94580  0.02340  0.36924  Biso   1.000  C
  C227     1.0000 0.55420  0.52340  0.13076  Biso   1.000  C
  C228     1.0000 0.44580  0.52340  0.36924  Biso   1.000  C
  C229     1.0000 0.94580  0.97660  0.86924  Biso   1.000  C
  C230     1.0000 0.05420  0.97660  0.63076  Biso   1.000  C
  C231     1.0000 0.44580  0.47660  0.86924  Biso   1.000  C
  C232     1.0000 0.55420  0.47660  0.63076  Biso   1.000  C
  C233     1.0000 0.09794  0.99870  0.15323  Biso   1.000  C
  C234     1.0000 0.90206  0.99870  0.34677  Biso   1.000  C
  C235     1.0000 0.59794  0.49870  0.15323  Biso   1.000  C
  C236     1.0000 0.40206  0.49870  0.34677  Biso   1.000  C
  C237     1.0000 0.90206  0.00130  0.84677  Biso   1.000  C
  C238     1.0000 0.09794  0.00130  0.65323  Biso   1.000  C
  C239     1.0000 0.40206  0.50130  0.84677  Biso   1.000  C
  C240     1.0000 0.59794  0.50130  0.65323  Biso   1.000  C
  H177     1.0000 0.11170  0.96880  0.13910  Biso   1.000  H
  H178     1.0000 0.88830  0.96880  0.36090  Biso   1.000  H
  H179     1.0000 0.61170  0.46880  0.13910  Biso   1.000  H
  H180     1.0000 0.38830  0.46880  0.36090  Biso   1.000  H
  H181     1.0000 0.88830  0.03120  0.86090  Biso   1.000  H
  H182     1.0000 0.11170  0.03120  0.63910  Biso   1.000  H
  H183     1.0000 0.38830  0.53120  0.86090  Biso   1.000  H
  H184     1.0000 0.61170  0.53120  0.63910  Biso   1.000  H
  C241     1.0000 0.12019  0.01910  0.19615  Biso   1.000  C
  C242     1.0000 0.87981  0.01910  0.30385  Biso   1.000  C
  C243     1.0000 0.62019  0.51910  0.19615  Biso   1.000  C
  C244     1.0000 0.37981  0.51910  0.30385  Biso   1.000  C
  C245     1.0000 0.87981  0.98090  0.80385  Biso   1.000  C
  C246     1.0000 0.12019  0.98090  0.69615  Biso   1.000  C
  C247     1.0000 0.37981  0.48090  0.80385  Biso   1.000  C
  C248     1.0000 0.62019  0.48090  0.69615  Biso   1.000  C
  C249     1.0000 0.09987  0.06210  0.21867  Biso   1.000  C
  C250     1.0000 0.90013  0.06210  0.28133  Biso   1.000  C
  C251     1.0000 0.59987  0.56210  0.21867  Biso   1.000  C
  C252     1.0000 0.40013  0.56210  0.28133  Biso   1.000  C
  C253     1.0000 0.90013  0.93790  0.78133  Biso   1.000  C
  C254     1.0000 0.09987  0.93790  0.71867  Biso   1.000  C
  C255     1.0000 0.40013  0.43790  0.78133  Biso   1.000  C
  C256     1.0000 0.59987  0.43790  0.71867  Biso   1.000  C
  H185     1.0000 0.11500  0.07430  0.24800  Biso   1.000  H
  H186     1.0000 0.88500  0.07430  0.25200  Biso   1.000  H
  H187     1.0000 0.61500  0.57430  0.24800  Biso   1.000  H
  H188     1.0000 0.38500  0.57430  0.25200  Biso   1.000  H
  H189     1.0000 0.88500  0.92570  0.75200  Biso   1.000  H
  H190     1.0000 0.11500  0.92570  0.74800  Biso   1.000  H
  H191     1.0000 0.38500  0.42570  0.75200  Biso   1.000  H
  H192     1.0000 0.61500  0.42570  0.74800  Biso   1.000  H
  C257     1.0000 0.05636  0.08660  0.19625  Biso   1.000  C
  C258     1.0000 0.94364  0.08660  0.30375  Biso   1.000  C
  C259     1.0000 0.55636  0.58660  0.19625  Biso   1.000  C
  C260     1.0000 0.44364  0.58660  0.30375  Biso   1.000  C
  C261     1.0000 0.94364  0.91340  0.80375  Biso   1.000  C
  C262     1.0000 0.05636  0.91340  0.69625  Biso   1.000  C
  C263     1.0000 0.44364  0.41340  0.80375  Biso   1.000  C
  C264     1.0000 0.55636  0.41340  0.69625  Biso   1.000  C
  C265     1.0000 0.03386  0.06630  0.15221  Biso   1.000  C
  C266     1.0000 0.96614  0.06630  0.34779  Biso   1.000  C
  C267     1.0000 0.53386  0.56630  0.15221  Biso   1.000  C
  C268     1.0000 0.46614  0.56630  0.34779  Biso   1.000  C
  C269     1.0000 0.96614  0.93370  0.84779  Biso   1.000  C
  C270     1.0000 0.03386  0.93370  0.65221  Biso   1.000  C
  C271     1.0000 0.46614  0.43370  0.84779  Biso   1.000  C
  C272     1.0000 0.53386  0.43370  0.65221  Biso   1.000  C
  H193     1.0000 0.00480  0.08220  0.13740  Biso   1.000  H
  H194     1.0000 0.99520  0.08220  0.36260  Biso   1.000  H
  H195     1.0000 0.50480  0.58220  0.13740  Biso   1.000  H
  H196     1.0000 0.49520  0.58220  0.36260  Biso   1.000  H
  H197     1.0000 0.99520  0.91780  0.86260  Biso   1.000  H
  H198     1.0000 0.00480  0.91780  0.63740  Biso   1.000  H
  H199     1.0000 0.49520  0.41780  0.86260  Biso   1.000  H
  H200     1.0000 0.50480  0.41780  0.63740  Biso   1.000  H
  C273     1.0000 0.16924  0.00080  0.21821  Biso   1.000  C
  C274     1.0000 0.83076  0.00080  0.28179  Biso   1.000  C
  C275     1.0000 0.66924  0.50080  0.21821  Biso   1.000  C
  C276     1.0000 0.33076  0.50080  0.28179  Biso   1.000  C
  C277     1.0000 0.83076  0.99920  0.78179  Biso   1.000  C
  C278     1.0000 0.16924  0.99920  0.71821  Biso   1.000  C
  C279     1.0000 0.33076  0.49920  0.78179  Biso   1.000  C
  C280     1.0000 0.66924  0.49920  0.71821  Biso   1.000  C
  C281     1.0000 0.03550  0.13820  0.21826  Biso   1.000  C
  C282     1.0000 0.96450  0.13820  0.28174  Biso   1.000  C
  C283     1.0000 0.53550  0.63820  0.21826  Biso   1.000  C
  C284     1.0000 0.46450  0.63820  0.28174  Biso   1.000  C
  C285     1.0000 0.96450  0.86180  0.78174  Biso   1.000  C
  C286     1.0000 0.03550  0.86180  0.71826  Biso   1.000  C
  C287     1.0000 0.46450  0.36180  0.78174  Biso   1.000  C
  C288     1.0000 0.53550  0.36180  0.71826  Biso   1.000  C
  O137     1.0000 0.09320  0.02080  0.06660  Biso   1.000  O
  O138     1.0000 0.90680  0.02080  0.43340  Biso   1.000  O
  O139     1.0000 0.59320  0.52080  0.06660  Biso   1.000  O
  O140     1.0000 0.40680  0.52080  0.43340  Biso   1.000  O
  O141     1.0000 0.90680  0.97920  0.93340  Biso   1.000  O
  O142     1.0000 0.09320  0.97920  0.56660  Biso   1.000  O
  O143     1.0000 0.40680  0.47920  0.93340  Biso   1.000  O
  O144     1.0000 0.59320  0.47920  0.56660  Biso   1.000  O
  C289     1.0000 0.02620  0.01180  0.08240  Biso   1.000  C
  C290     1.0000 0.97380  0.01180  0.41760  Biso   1.000  C
  C291     1.0000 0.52620  0.51180  0.08240  Biso   1.000  C
  C292     1.0000 0.47380  0.51180  0.41760  Biso   1.000  C
  C293     1.0000 0.97380  0.98820  0.91760  Biso   1.000  C
  C294     1.0000 0.02620  0.98820  0.58240  Biso   1.000  C
  C295     1.0000 0.47380  0.48820  0.91760  Biso   1.000  C
  C296     1.0000 0.52620  0.48820  0.58240  Biso   1.000  C
  C297     1.0000 0.98050  0.00080  0.06800  Biso   1.000  C
  C298     1.0000 0.01950  0.00080  0.43200  Biso   1.000  C
  C299     1.0000 0.48050  0.50080  0.06800  Biso   1.000  C
  C300     1.0000 0.51950  0.50080  0.43200  Biso   1.000  C
  C301     1.0000 0.01950  0.99920  0.93200  Biso   1.000  C
  C302     1.0000 0.98050  0.99920  0.56800  Biso   1.000  C
  C303     1.0000 0.51950  0.49920  0.93200  Biso   1.000  C
  C304     1.0000 0.48050  0.49920  0.56800  Biso   1.000  C
  H201     1.0000 0.96630  0.00020  0.08810  Biso   1.000  H
  H202     1.0000 0.03370  0.00020  0.41190  Biso   1.000  H
  H203     1.0000 0.46630  0.50020  0.08810  Biso   1.000  H
  H204     1.0000 0.53370  0.50020  0.41190  Biso   1.000  H
  H205     1.0000 0.03370  0.99980  0.91190  Biso   1.000  H
  H206     1.0000 0.96630  0.99980  0.58810  Biso   1.000  H
  H207     1.0000 0.53370  0.49980  0.91190  Biso   1.000  H
  H208     1.0000 0.46630  0.49980  0.58810  Biso   1.000  H
  C305     1.0000 0.95590  0.99080  0.02350  Biso   1.000  C
  C306     1.0000 0.04410  0.99080  0.47650  Biso   1.000  C
  C307     1.0000 0.45590  0.49080  0.02350  Biso   1.000  C
  C308     1.0000 0.54410  0.49080  0.47650  Biso   1.000  C
  C309     1.0000 0.04410  0.00920  0.97650  Biso   1.000  C
  C310     1.0000 0.95590  0.00920  0.52350  Biso   1.000  C
  C311     1.0000 0.54410  0.50920  0.97650  Biso   1.000  C
  C312     1.0000 0.45590  0.50920  0.52350  Biso   1.000  C
  H209     1.0000 0.92430  0.98320  0.01360  Biso   1.000  H
  H210     1.0000 0.07570  0.98320  0.48640  Biso   1.000  H
  H211     1.0000 0.42430  0.48320  0.01360  Biso   1.000  H
  H212     1.0000 0.57570  0.48320  0.48640  Biso   1.000  H
  H213     1.0000 0.07570  0.01680  0.98640  Biso   1.000  H
  H214     1.0000 0.92430  0.01680  0.51360  Biso   1.000  H
  H215     1.0000 0.57570  0.51680  0.98640  Biso   1.000  H
  H216     1.0000 0.42430  0.51680  0.51360  Biso   1.000  H
  C313     1.0000 0.02270  0.00270  0.00800  Biso   1.000  C
  C314     1.0000 0.97730  0.00270  0.49200  Biso   1.000  C
  C315     1.0000 0.52270  0.50270  0.00800  Biso   1.000  C
  C316     1.0000 0.47730  0.50270  0.49200  Biso   1.000  C
  C317     1.0000 0.97730  0.99730  0.99200  Biso   1.000  C
  C318     1.0000 0.02270  0.99730  0.50800  Biso   1.000  C
  C319     1.0000 0.47730  0.49730  0.99200  Biso   1.000  C
  C320     1.0000 0.52270  0.49730  0.50800  Biso   1.000  C
  C321     1.0000 0.04730  0.01270  0.05240  Biso   1.000  C
  C322     1.0000 0.95270  0.01270  0.44760  Biso   1.000  C
  C323     1.0000 0.54730  0.51270  0.05240  Biso   1.000  C
  C324     1.0000 0.45270  0.51270  0.44760  Biso   1.000  C
  C325     1.0000 0.95270  0.98730  0.94760  Biso   1.000  C
  C326     1.0000 0.04730  0.98730  0.55240  Biso   1.000  C
  C327     1.0000 0.45270  0.48730  0.94760  Biso   1.000  C
  C328     1.0000 0.54730  0.48730  0.55240  Biso   1.000  C
  C329     1.0000 0.10600  0.09480  0.07480  Biso   1.000  C
  C330     1.0000 0.89400  0.09480  0.42520  Biso   1.000  C
  C331     1.0000 0.60600  0.59480  0.07480  Biso   1.000  C
  C332     1.0000 0.39400  0.59480  0.42520  Biso   1.000  C
  C333     1.0000 0.89400  0.90520  0.92520  Biso   1.000  C
  C334     1.0000 0.10600  0.90520  0.57480  Biso   1.000  C
  C335     1.0000 0.39400  0.40520  0.92520  Biso   1.000  C
  C336     1.0000 0.60600  0.40520  0.57480  Biso   1.000  C
  H217     1.0000 0.13770  0.09850  0.08400  Biso   1.000  H
  H218     1.0000 0.86230  0.09850  0.41600  Biso   1.000  H
  H219     1.0000 0.63770  0.59850  0.08400  Biso   1.000  H
  H220     1.0000 0.36230  0.59850  0.41600  Biso   1.000  H
  H221     1.0000 0.86230  0.90150  0.91600  Biso   1.000  H
  H222     1.0000 0.13770  0.90150  0.58400  Biso   1.000  H
  H223     1.0000 0.36230  0.40150  0.91600  Biso   1.000  H
  H224     1.0000 0.63770  0.40150  0.58400  Biso   1.000  H
  H225     1.0000 0.09670  0.11350  0.09740  Biso   1.000  H
  H226     1.0000 0.90330  0.11350  0.40260  Biso   1.000  H
  H227     1.0000 0.59670  0.61350  0.09740  Biso   1.000  H
  H228     1.0000 0.40330  0.61350  0.40260  Biso   1.000  H
  H229     1.0000 0.90330  0.88650  0.90260  Biso   1.000  H
  H230     1.0000 0.09670  0.88650  0.59740  Biso   1.000  H
  H231     1.0000 0.40330  0.38650  0.90260  Biso   1.000  H
  H232     1.0000 0.59670  0.38650  0.59740  Biso   1.000  H
  H233     1.0000 0.09220  0.12270  0.04840  Biso   1.000  H
  H234     1.0000 0.90780  0.12270  0.45160  Biso   1.000  H
  H235     1.0000 0.59220  0.62270  0.04840  Biso   1.000  H
  H236     1.0000 0.40780  0.62270  0.45160  Biso   1.000  H
  H237     1.0000 0.90780  0.87730  0.95160  Biso   1.000  H
  H238     1.0000 0.09220  0.87730  0.54840  Biso   1.000  H
  H239     1.0000 0.40780  0.37730  0.95160  Biso   1.000  H
  H240     1.0000 0.59220  0.37730  0.54840  Biso   1.000  H
  O145     1.0000 0.00430  0.11980  0.06470  Biso   1.000  O
  O146     1.0000 0.99570  0.11980  0.43530  Biso   1.000  O
  O147     1.0000 0.50430  0.61980  0.06470  Biso   1.000  O
  O148     1.0000 0.49570  0.61980  0.43530  Biso   1.000  O
  O149     1.0000 0.99570  0.88020  0.93530  Biso   1.000  O
  O150     1.0000 0.00430  0.88020  0.56470  Biso   1.000  O
  O151     1.0000 0.49570  0.38020  0.93530  Biso   1.000  O
  O152     1.0000 0.50430  0.38020  0.56470  Biso   1.000  O
  C337     1.0000 0.03470  0.00080  0.08350  Biso   1.000  C
  C338     1.0000 0.96530  0.00080  0.41650  Biso   1.000  C
  C339     1.0000 0.53470  0.50080  0.08350  Biso   1.000  C
  C340     1.0000 0.46530  0.50080  0.41650  Biso   1.000  C
  C341     1.0000 0.96530  0.99920  0.91650  Biso   1.000  C
  C342     1.0000 0.03470  0.99920  0.58350  Biso   1.000  C
  C343     1.0000 0.46530  0.49920  0.91650  Biso   1.000  C
  C344     1.0000 0.53470  0.49920  0.58350  Biso   1.000  C
  C345     1.0000 0.04410  0.93270  0.07010  Biso   1.000  C
  C346     1.0000 0.95590  0.93270  0.42990  Biso   1.000  C
  C347     1.0000 0.54410  0.43270  0.07010  Biso   1.000  C
  C348     1.0000 0.45590  0.43270  0.42990  Biso   1.000  C
  C349     1.0000 0.95590  0.06730  0.92990  Biso   1.000  C
  C350     1.0000 0.04410  0.06730  0.57010  Biso   1.000  C
  C351     1.0000 0.45590  0.56730  0.92990  Biso   1.000  C
  C352     1.0000 0.54410  0.56730  0.57010  Biso   1.000  C
  H241     1.0000 0.06040  0.89870  0.09090  Biso   1.000  H
  H242     1.0000 0.93960  0.89870  0.40910  Biso   1.000  H
  H243     1.0000 0.56040  0.39870  0.09090  Biso   1.000  H
  H244     1.0000 0.43960  0.39870  0.40910  Biso   1.000  H
  H245     1.0000 0.93960  0.10130  0.90910  Biso   1.000  H
  H246     1.0000 0.06040  0.10130  0.59090  Biso   1.000  H
  H247     1.0000 0.43960  0.60130  0.90910  Biso   1.000  H
  H248     1.0000 0.56040  0.60130  0.59090  Biso   1.000  H
  H249     1.0000 0.03560  0.86870  0.01640  Biso   1.000  H
  H250     1.0000 0.96440  0.86870  0.48360  Biso   1.000  H
  H251     1.0000 0.53560  0.36870  0.01640  Biso   1.000  H
  H252     1.0000 0.46440  0.36870  0.48360  Biso   1.000  H
  H253     1.0000 0.96440  0.13130  0.98360  Biso   1.000  H
  H254     1.0000 0.03560  0.13130  0.51640  Biso   1.000  H
  H255     1.0000 0.46440  0.63130  0.98360  Biso   1.000  H
  H256     1.0000 0.53560  0.63130  0.51640  Biso   1.000  H
  C353     1.0000 0.03580  0.16380  0.06560  Biso   1.000  C
  C354     1.0000 0.96420  0.16380  0.43440  Biso   1.000  C
  C355     1.0000 0.53580  0.66380  0.06560  Biso   1.000  C
  C356     1.0000 0.46420  0.66380  0.43440  Biso   1.000  C
  C357     1.0000 0.96420  0.83620  0.93440  Biso   1.000  C
  C358     1.0000 0.03580  0.83620  0.56560  Biso   1.000  C
  C359     1.0000 0.46420  0.33620  0.93440  Biso   1.000  C
  C360     1.0000 0.53580  0.33620  0.56560  Biso   1.000  C
  H257     1.0000 0.03000  0.21150  0.07460  Biso   1.000  H
  H258     1.0000 0.97000  0.21150  0.42540  Biso   1.000  H
  H259     1.0000 0.53000  0.71150  0.07460  Biso   1.000  H
  H260     1.0000 0.47000  0.71150  0.42540  Biso   1.000  H
  H261     1.0000 0.97000  0.78850  0.92540  Biso   1.000  H
  H262     1.0000 0.03000  0.78850  0.57460  Biso   1.000  H
  H263     1.0000 0.47000  0.28850  0.92540  Biso   1.000  H
  H264     1.0000 0.53000  0.28850  0.57460  Biso   1.000  H
  H265     1.0000 0.03700  0.16690  0.03690  Biso   1.000  H
  H266     1.0000 0.96300  0.16690  0.46310  Biso   1.000  H
  H267     1.0000 0.53700  0.66690  0.03690  Biso   1.000  H
  H268     1.0000 0.46300  0.66690  0.46310  Biso   1.000  H
  H269     1.0000 0.96300  0.83310  0.96310  Biso   1.000  H
  H270     1.0000 0.03700  0.83310  0.53690  Biso   1.000  H
  H271     1.0000 0.46300  0.33310  0.96310  Biso   1.000  H
  H272     1.0000 0.53700  0.33310  0.53690  Biso   1.000  H
  H273     1.0000 0.06370  0.14600  0.08600  Biso   1.000  H
  H274     1.0000 0.93630  0.14600  0.41400  Biso   1.000  H
  H275     1.0000 0.56370  0.64600  0.08600  Biso   1.000  H
  H276     1.0000 0.43630  0.64600  0.41400  Biso   1.000  H
  H277     1.0000 0.93630  0.85400  0.91400  Biso   1.000  H
  H278     1.0000 0.06370  0.85400  0.58600  Biso   1.000  H
  H279     1.0000 0.43630  0.35400  0.91400  Biso   1.000  H
  H280     1.0000 0.56370  0.35400  0.58600  Biso   1.000  H
  C361     1.0000 0.99530  0.03460  0.00810  Biso   1.000  C
  C362     1.0000 0.00470  0.03460  0.49190  Biso   1.000  C
  C363     1.0000 0.49530  0.53460  0.00810  Biso   1.000  C
  C364     1.0000 0.50470  0.53460  0.49190  Biso   1.000  C
  C365     1.0000 0.00470  0.96540  0.99190  Biso   1.000  C
  C366     1.0000 0.99530  0.96540  0.50810  Biso   1.000  C
  C367     1.0000 0.50470  0.46540  0.99190  Biso   1.000  C
  C368     1.0000 0.49530  0.46540  0.50810  Biso   1.000  C
  C369     1.0000 0.01030  0.05170  0.05250  Biso   1.000  C
  C370     1.0000 0.98970  0.05170  0.44750  Biso   1.000  C
  C371     1.0000 0.51030  0.55170  0.05250  Biso   1.000  C
  C372     1.0000 0.48970  0.55170  0.44750  Biso   1.000  C
  C373     1.0000 0.98970  0.94830  0.94750  Biso   1.000  C
  C374     1.0000 0.01030  0.94830  0.55250  Biso   1.000  C
  C375     1.0000 0.48970  0.44830  0.94750  Biso   1.000  C
  C376     1.0000 0.51030  0.44830  0.55250  Biso   1.000  C
  C377     1.0000 0.02910  0.91570  0.02570  Biso   1.000  C
  C378     1.0000 0.97090  0.91570  0.47430  Biso   1.000  C
  C379     1.0000 0.52910  0.41570  0.02570  Biso   1.000  C
  C380     1.0000 0.47090  0.41570  0.47430  Biso   1.000  C
  C381     1.0000 0.97090  0.08430  0.97430  Biso   1.000  C
  C382     1.0000 0.02910  0.08430  0.52570  Biso   1.000  C
  C383     1.0000 0.47090  0.58430  0.97430  Biso   1.000  C
  C384     1.0000 0.52910  0.58430  0.52570  Biso   1.000  C
  C385     1.0000 0.00470  0.96660  0.99470  Biso   1.000  C
  C386     1.0000 0.99530  0.96660  0.50530  Biso   1.000  C
  C387     1.0000 0.50470  0.46660  0.99470  Biso   1.000  C
  C388     1.0000 0.49530  0.46660  0.50530  Biso   1.000  C
  C389     1.0000 0.99530  0.03340  0.00530  Biso   1.000  C
  C390     1.0000 0.00470  0.03340  0.49470  Biso   1.000  C
  C391     1.0000 0.49530  0.53340  0.00530  Biso   1.000  C
  C392     1.0000 0.50470  0.53340  0.49470  Biso   1.000  C
  C393     1.0000 0.97700  0.99170  0.99350  Biso   1.000  C
  C394     1.0000 0.02300  0.99170  0.50650  Biso   1.000  C
  C395     1.0000 0.47700  0.49170  0.99350  Biso   1.000  C
  C396     1.0000 0.52300  0.49170  0.50650  Biso   1.000  C
  C397     1.0000 0.02300  0.00830  0.00650  Biso   1.000  C
  C398     1.0000 0.97700  0.00830  0.49350  Biso   1.000  C
  C399     1.0000 0.52300  0.50830  0.00650  Biso   1.000  C
  C400     1.0000 0.47700  0.50830  0.49350  Biso   1.000  C
