data_image0
_cell_length_a       12.412
_cell_length_b       16.372
_cell_length_c       31.497
_cell_angle_alpha    90
_cell_angle_beta     90
_cell_angle_gamma    90

_symmetry_space_group_name_H-M    "P 1"
_symmetry_int_tables_number       1

loop_
  _symmetry_equiv_pos_as_xyz
  'x, y, z'

loop_
  _atom_site_label
  _atom_site_occupancy
  _atom_site_fract_x
  _atom_site_fract_y
  _atom_site_fract_z
  _atom_site_thermal_displace_type
  _atom_site_B_iso_or_equiv
  _atom_site_type_symbol
  Cu1      1.0000 0.37500  0.37500  0.67976  Biso   1.000  Cu
  Cu2      1.0000 0.37500  0.37500  0.07024  Biso   1.000  Cu
  Cu3      1.0000 0.37500  0.87500  0.17976  Biso   1.000  Cu
  Cu4      1.0000 0.37500  0.87500  0.57024  Biso   1.000  Cu
  Cu5      1.0000 0.87500  0.37500  0.17976  Biso   1.000  Cu
  Cu6      1.0000 0.87500  0.37500  0.57024  Biso   1.000  Cu
  Cu7      1.0000 0.87500  0.87500  0.67976  Biso   1.000  Cu
  Cu8      1.0000 0.87500  0.87500  0.07024  Biso   1.000  Cu
  Cu9      1.0000 0.62500  0.62500  0.32024  Biso   1.000  Cu
  Cu10     1.0000 0.12500  0.12500  0.32024  Biso   1.000  Cu
  Cu11     1.0000 0.12500  0.62500  0.42976  Biso   1.000  Cu
  Cu12     1.0000 0.62500  0.12500  0.42976  Biso   1.000  Cu
  Cu13     1.0000 0.62500  0.12500  0.82024  Biso   1.000  Cu
  Cu14     1.0000 0.12500  0.62500  0.82024  Biso   1.000  Cu
  Cu15     1.0000 0.12500  0.12500  0.92976  Biso   1.000  Cu
  Cu16     1.0000 0.62500  0.62500  0.92976  Biso   1.000  Cu
  N1       1.0000 0.59838  0.44835  0.67987  Biso   1.000  N
  N2       1.0000 0.15162  0.30165  0.67987  Biso   1.000  N
  N3       1.0000 0.15162  0.44835  0.07013  Biso   1.000  N
  N4       1.0000 0.59838  0.30165  0.07013  Biso   1.000  N
  N5       1.0000 0.59838  0.94835  0.17987  Biso   1.000  N
  N6       1.0000 0.15162  0.80165  0.17987  Biso   1.000  N
  N7       1.0000 0.15162  0.94835  0.57013  Biso   1.000  N
  N8       1.0000 0.59838  0.80165  0.57013  Biso   1.000  N
  N9       1.0000 0.09838  0.44835  0.17987  Biso   1.000  N
  N10      1.0000 0.65162  0.30165  0.17987  Biso   1.000  N
  N11      1.0000 0.65162  0.44835  0.57013  Biso   1.000  N
  N12      1.0000 0.09838  0.30165  0.57013  Biso   1.000  N
  N13      1.0000 0.09838  0.94835  0.67987  Biso   1.000  N
  N14      1.0000 0.65162  0.80165  0.67987  Biso   1.000  N
  N15      1.0000 0.65162  0.94835  0.07013  Biso   1.000  N
  N16      1.0000 0.09838  0.80165  0.07013  Biso   1.000  N
  N17      1.0000 0.40162  0.55165  0.32013  Biso   1.000  N
  N18      1.0000 0.34838  0.19835  0.32013  Biso   1.000  N
  N19      1.0000 0.34838  0.55165  0.42987  Biso   1.000  N
  N20      1.0000 0.40162  0.19835  0.42987  Biso   1.000  N
  N21      1.0000 0.40162  0.05165  0.82013  Biso   1.000  N
  N22      1.0000 0.34838  0.69835  0.82013  Biso   1.000  N
  N23      1.0000 0.34838  0.05165  0.92987  Biso   1.000  N
  N24      1.0000 0.40162  0.69835  0.92987  Biso   1.000  N
  N25      1.0000 0.90162  0.55165  0.82013  Biso   1.000  N
  N26      1.0000 0.84838  0.19835  0.82013  Biso   1.000  N
  N27      1.0000 0.84838  0.55165  0.92987  Biso   1.000  N
  N28      1.0000 0.90162  0.19835  0.92987  Biso   1.000  N
  N29      1.0000 0.90162  0.05165  0.32013  Biso   1.000  N
  N30      1.0000 0.84838  0.69835  0.32013  Biso   1.000  N
  N31      1.0000 0.84838  0.05165  0.42987  Biso   1.000  N
  N32      1.0000 0.90162  0.69835  0.42987  Biso   1.000  N
  H1       1.0000 0.61990  0.41520  0.66050  Biso   1.000  H
  H2       1.0000 0.13010  0.33480  0.66050  Biso   1.000  H
  H3       1.0000 0.13010  0.41520  0.08950  Biso   1.000  H
  H4       1.0000 0.61990  0.33480  0.08950  Biso   1.000  H
  H5       1.0000 0.61990  0.91520  0.16050  Biso   1.000  H
  H6       1.0000 0.13010  0.83480  0.16050  Biso   1.000  H
  H7       1.0000 0.13010  0.91520  0.58950  Biso   1.000  H
  H8       1.0000 0.61990  0.83480  0.58950  Biso   1.000  H
  H9       1.0000 0.11990  0.41520  0.16050  Biso   1.000  H
  H10      1.0000 0.63010  0.33480  0.16050  Biso   1.000  H
  H11      1.0000 0.63010  0.41520  0.58950  Biso   1.000  H
  H12      1.0000 0.11990  0.33480  0.58950  Biso   1.000  H
  H13      1.0000 0.11990  0.91520  0.66050  Biso   1.000  H
  H14      1.0000 0.63010  0.83480  0.66050  Biso   1.000  H
  H15      1.0000 0.63010  0.91520  0.08950  Biso   1.000  H
  H16      1.0000 0.11990  0.83480  0.08950  Biso   1.000  H
  H17      1.0000 0.38010  0.58480  0.33950  Biso   1.000  H
  H18      1.0000 0.36990  0.16520  0.33950  Biso   1.000  H
  H19      1.0000 0.36990  0.58480  0.41050  Biso   1.000  H
  H20      1.0000 0.38010  0.16520  0.41050  Biso   1.000  H
  H21      1.0000 0.38010  0.08480  0.83950  Biso   1.000  H
  H22      1.0000 0.36990  0.66520  0.83950  Biso   1.000  H
  H23      1.0000 0.36990  0.08480  0.91050  Biso   1.000  H
  H24      1.0000 0.38010  0.66520  0.91050  Biso   1.000  H
  H25      1.0000 0.88010  0.58480  0.83950  Biso   1.000  H
  H26      1.0000 0.86990  0.16520  0.83950  Biso   1.000  H
  H27      1.0000 0.86990  0.58480  0.91050  Biso   1.000  H
  H28      1.0000 0.88010  0.16520  0.91050  Biso   1.000  H
  H29      1.0000 0.88010  0.08480  0.33950  Biso   1.000  H
  H30      1.0000 0.86990  0.66520  0.33950  Biso   1.000  H
  H31      1.0000 0.86990  0.08480  0.41050  Biso   1.000  H
  H32      1.0000 0.88010  0.66520  0.41050  Biso   1.000  H
  N33      1.0000 0.50161  0.44241  0.70001  Biso   1.000  N
  N34      1.0000 0.24839  0.30759  0.70001  Biso   1.000  N
  N35      1.0000 0.24839  0.44241  0.04999  Biso   1.000  N
  N36      1.0000 0.50161  0.30759  0.04999  Biso   1.000  N
  N37      1.0000 0.50161  0.94241  0.20001  Biso   1.000  N
  N38      1.0000 0.24839  0.80759  0.20001  Biso   1.000  N
  N39      1.0000 0.24839  0.94241  0.54999  Biso   1.000  N
  N40      1.0000 0.50161  0.80759  0.54999  Biso   1.000  N
  N41      1.0000 0.00161  0.44241  0.20001  Biso   1.000  N
  N42      1.0000 0.74839  0.30759  0.20001  Biso   1.000  N
  N43      1.0000 0.74839  0.44241  0.54999  Biso   1.000  N
  N44      1.0000 0.00161  0.30759  0.54999  Biso   1.000  N
  N45      1.0000 0.00161  0.94241  0.70001  Biso   1.000  N
  N46      1.0000 0.74839  0.80759  0.70001  Biso   1.000  N
  N47      1.0000 0.74839  0.94241  0.04999  Biso   1.000  N
  N48      1.0000 0.00161  0.80759  0.04999  Biso   1.000  N
  N49      1.0000 0.49839  0.55759  0.29999  Biso   1.000  N
  N50      1.0000 0.25161  0.19241  0.29999  Biso   1.000  N
  N51      1.0000 0.25161  0.55759  0.45001  Biso   1.000  N
  N52      1.0000 0.49839  0.19241  0.45001  Biso   1.000  N
  N53      1.0000 0.49839  0.05759  0.79999  Biso   1.000  N
  N54      1.0000 0.25161  0.69241  0.79999  Biso   1.000  N
  N55      1.0000 0.25161  0.05759  0.95001  Biso   1.000  N
  N56      1.0000 0.49839  0.69241  0.95001  Biso   1.000  N
  N57      1.0000 0.99839  0.55759  0.79999  Biso   1.000  N
  N58      1.0000 0.75161  0.19241  0.79999  Biso   1.000  N
  N59      1.0000 0.75161  0.55759  0.95001  Biso   1.000  N
  N60      1.0000 0.99839  0.19241  0.95001  Biso   1.000  N
  N61      1.0000 0.99839  0.05759  0.29999  Biso   1.000  N
  N62      1.0000 0.75161  0.69241  0.29999  Biso   1.000  N
  N63      1.0000 0.75161  0.05759  0.45001  Biso   1.000  N
  N64      1.0000 0.99839  0.69241  0.45001  Biso   1.000  N
  C1       1.0000 0.59450  0.55112  0.72485  Biso   1.000  C
  C2       1.0000 0.15550  0.19888  0.72485  Biso   1.000  C
  C3       1.0000 0.15550  0.55112  0.02515  Biso   1.000  C
  C4       1.0000 0.59450  0.19888  0.02515  Biso   1.000  C
  C5       1.0000 0.59450  0.05112  0.22485  Biso   1.000  C
  C6       1.0000 0.15550  0.69888  0.22485  Biso   1.000  C
  C7       1.0000 0.15550  0.05112  0.52515  Biso   1.000  C
  C8       1.0000 0.59450  0.69888  0.52515  Biso   1.000  C
  C9       1.0000 0.09450  0.55112  0.22485  Biso   1.000  C
  C10      1.0000 0.65550  0.19888  0.22485  Biso   1.000  C
  C11      1.0000 0.65550  0.55112  0.52515  Biso   1.000  C
  C12      1.0000 0.09450  0.19888  0.52515  Biso   1.000  C
  C13      1.0000 0.09450  0.05112  0.72485  Biso   1.000  C
  C14      1.0000 0.65550  0.69888  0.72485  Biso   1.000  C
  C15      1.0000 0.65550  0.05112  0.02515  Biso   1.000  C
  C16      1.0000 0.09450  0.69888  0.02515  Biso   1.000  C
  C17      1.0000 0.40550  0.44888  0.27515  Biso   1.000  C
  C18      1.0000 0.34450  0.30112  0.27515  Biso   1.000  C
  C19      1.0000 0.34450  0.44888  0.47485  Biso   1.000  C
  C20      1.0000 0.40550  0.30112  0.47485  Biso   1.000  C
  C21      1.0000 0.40550  0.94888  0.77515  Biso   1.000  C
  C22      1.0000 0.34450  0.80112  0.77515  Biso   1.000  C
  C23      1.0000 0.34450  0.94888  0.97485  Biso   1.000  C
  C24      1.0000 0.40550  0.80112  0.97485  Biso   1.000  C
  C25      1.0000 0.90550  0.44888  0.77515  Biso   1.000  C
  C26      1.0000 0.84450  0.30112  0.77515  Biso   1.000  C
  C27      1.0000 0.84450  0.44888  0.97485  Biso   1.000  C
  C28      1.0000 0.90550  0.30112  0.97485  Biso   1.000  C
  C29      1.0000 0.90550  0.94888  0.27515  Biso   1.000  C
  C30      1.0000 0.84450  0.80112  0.27515  Biso   1.000  C
  C31      1.0000 0.84450  0.94888  0.47485  Biso   1.000  C
  C32      1.0000 0.90550  0.80112  0.47485  Biso   1.000  C
  C33      1.0000 0.49855  0.50533  0.72747  Biso   1.000  C
  C34      1.0000 0.25145  0.24467  0.72747  Biso   1.000  C
  C35      1.0000 0.25145  0.50533  0.02253  Biso   1.000  C
  C36      1.0000 0.49855  0.24467  0.02253  Biso   1.000  C
  C37      1.0000 0.49855  0.00533  0.22747  Biso   1.000  C
  C38      1.0000 0.25145  0.74467  0.22747  Biso   1.000  C
  C39      1.0000 0.25145  0.00533  0.52253  Biso   1.000  C
  C40      1.0000 0.49855  0.74467  0.52253  Biso   1.000  C
  C41      1.0000 0.99855  0.50533  0.22747  Biso   1.000  C
  C42      1.0000 0.75145  0.24467  0.22747  Biso   1.000  C
  C43      1.0000 0.75145  0.50533  0.52253  Biso   1.000  C
  C44      1.0000 0.99855  0.24467  0.52253  Biso   1.000  C
  C45      1.0000 0.99855  0.00533  0.72747  Biso   1.000  C
  C46      1.0000 0.75145  0.74467  0.72747  Biso   1.000  C
  C47      1.0000 0.75145  0.00533  0.02253  Biso   1.000  C
  C48      1.0000 0.99855  0.74467  0.02253  Biso   1.000  C
  C49      1.0000 0.50145  0.49467  0.27253  Biso   1.000  C
  C50      1.0000 0.24855  0.25533  0.27253  Biso   1.000  C
  C51      1.0000 0.24855  0.49467  0.47747  Biso   1.000  C
  C52      1.0000 0.50145  0.25533  0.47747  Biso   1.000  C
  C53      1.0000 0.50145  0.99467  0.77253  Biso   1.000  C
  C54      1.0000 0.24855  0.75533  0.77253  Biso   1.000  C
  C55      1.0000 0.24855  0.99467  0.97747  Biso   1.000  C
  C56      1.0000 0.50145  0.75533  0.97747  Biso   1.000  C
  C57      1.0000 0.00145  0.49467  0.77253  Biso   1.000  C
  C58      1.0000 0.74855  0.25533  0.77253  Biso   1.000  C
  C59      1.0000 0.74855  0.49467  0.97747  Biso   1.000  C
  C60      1.0000 0.00145  0.25533  0.97747  Biso   1.000  C
  C61      1.0000 0.00145  0.99467  0.27253  Biso   1.000  C
  C62      1.0000 0.74855  0.75533  0.27253  Biso   1.000  C
  C63      1.0000 0.74855  0.99467  0.47747  Biso   1.000  C
  C64      1.0000 0.00145  0.75533  0.47747  Biso   1.000  C
  C65      1.0000 0.65600  0.51200  0.69391  Biso   1.000  C
  C66      1.0000 0.09400  0.23800  0.69391  Biso   1.000  C
  C67      1.0000 0.09400  0.51200  0.05609  Biso   1.000  C
  C68      1.0000 0.65600  0.23800  0.05609  Biso   1.000  C
  C69      1.0000 0.65600  0.01200  0.19391  Biso   1.000  C
  C70      1.0000 0.09400  0.73800  0.19391  Biso   1.000  C
  C71      1.0000 0.09400  0.01200  0.55609  Biso   1.000  C
  C72      1.0000 0.65600  0.73800  0.55609  Biso   1.000  C
  C73      1.0000 0.15600  0.51200  0.19391  Biso   1.000  C
  C74      1.0000 0.59400  0.23800  0.19391  Biso   1.000  C
  C75      1.0000 0.59400  0.51200  0.55609  Biso   1.000  C
  C76      1.0000 0.15600  0.23800  0.55609  Biso   1.000  C
  C77      1.0000 0.15600  0.01200  0.69391  Biso   1.000  C
  C78      1.0000 0.59400  0.73800  0.69391  Biso   1.000  C
  C79      1.0000 0.59400  0.01200  0.05609  Biso   1.000  C
  C80      1.0000 0.15600  0.73800  0.05609  Biso   1.000  C
  C81      1.0000 0.34400  0.48800  0.30609  Biso   1.000  C
  C82      1.0000 0.40600  0.26200  0.30609  Biso   1.000  C
  C83      1.0000 0.40600  0.48800  0.44391  Biso   1.000  C
  C84      1.0000 0.34400  0.26200  0.44391  Biso   1.000  C
  C85      1.0000 0.34400  0.98800  0.80609  Biso   1.000  C
  C86      1.0000 0.40600  0.76200  0.80609  Biso   1.000  C
  C87      1.0000 0.40600  0.98800  0.94391  Biso   1.000  C
  C88      1.0000 0.34400  0.76200  0.94391  Biso   1.000  C
  C89      1.0000 0.84400  0.48800  0.80609  Biso   1.000  C
  C90      1.0000 0.90600  0.26200  0.80609  Biso   1.000  C
  C91      1.0000 0.90600  0.48800  0.94391  Biso   1.000  C
  C92      1.0000 0.84400  0.26200  0.94391  Biso   1.000  C
  C93      1.0000 0.84400  0.98800  0.30609  Biso   1.000  C
  C94      1.0000 0.90600  0.76200  0.30609  Biso   1.000  C
  C95      1.0000 0.90600  0.98800  0.44391  Biso   1.000  C
  C96      1.0000 0.84400  0.76200  0.44391  Biso   1.000  C
  C97      1.0000 0.40440  0.51843  0.75564  Biso   1.000  C
  C98      1.0000 0.34560  0.23157  0.75564  Biso   1.000  C
  C99      1.0000 0.34560  0.51843  0.99436  Biso   1.000  C
  C100     1.0000 0.40440  0.23157  0.99436  Biso   1.000  C
  C101     1.0000 0.40440  0.01843  0.25564  Biso   1.000  C
  C102     1.0000 0.34560  0.73157  0.25564  Biso   1.000  C
  C103     1.0000 0.34560  0.01843  0.49436  Biso   1.000  C
  C104     1.0000 0.40440  0.73157  0.49436  Biso   1.000  C
  C105     1.0000 0.90440  0.51843  0.25564  Biso   1.000  C
  C106     1.0000 0.84560  0.23157  0.25564  Biso   1.000  C
  C107     1.0000 0.84560  0.51843  0.49436  Biso   1.000  C
  C108     1.0000 0.90440  0.23157  0.49436  Biso   1.000  C
  C109     1.0000 0.90440  0.01843  0.75564  Biso   1.000  C
  C110     1.0000 0.84560  0.73157  0.75564  Biso   1.000  C
  C111     1.0000 0.84560  0.01843  0.99436  Biso   1.000  C
  C112     1.0000 0.90440  0.73157  0.99436  Biso   1.000  C
  C113     1.0000 0.59560  0.48157  0.24436  Biso   1.000  C
  C114     1.0000 0.15440  0.26843  0.24436  Biso   1.000  C
  C115     1.0000 0.15440  0.48157  0.50564  Biso   1.000  C
  C116     1.0000 0.59560  0.26843  0.50564  Biso   1.000  C
  C117     1.0000 0.59560  0.98157  0.74436  Biso   1.000  C
  C118     1.0000 0.15440  0.76843  0.74436  Biso   1.000  C
  C119     1.0000 0.15440  0.98157  0.00564  Biso   1.000  C
  C120     1.0000 0.59560  0.76843  0.00564  Biso   1.000  C
  C121     1.0000 0.09560  0.48157  0.74436  Biso   1.000  C
  C122     1.0000 0.65440  0.26843  0.74436  Biso   1.000  C
  C123     1.0000 0.65440  0.48157  0.00564  Biso   1.000  C
  C124     1.0000 0.09560  0.26843  0.00564  Biso   1.000  C
  C125     1.0000 0.09560  0.98157  0.24436  Biso   1.000  C
  C126     1.0000 0.65440  0.76843  0.24436  Biso   1.000  C
  C127     1.0000 0.65440  0.98157  0.50564  Biso   1.000  C
  C128     1.0000 0.09560  0.76843  0.50564  Biso   1.000  C
  H33      1.0000 0.35120  0.47720  0.75020  Biso   1.000  H
  H34      1.0000 0.39880  0.27280  0.75020  Biso   1.000  H
  H35      1.0000 0.39880  0.47720  0.99980  Biso   1.000  H
  H36      1.0000 0.35120  0.27280  0.99980  Biso   1.000  H
  H37      1.0000 0.35120  0.97720  0.25020  Biso   1.000  H
  H38      1.0000 0.39880  0.77280  0.25020  Biso   1.000  H
  H39      1.0000 0.39880  0.97720  0.49980  Biso   1.000  H
  H40      1.0000 0.35120  0.77280  0.49980  Biso   1.000  H
  H41      1.0000 0.85120  0.47720  0.25020  Biso   1.000  H
  H42      1.0000 0.89880  0.27280  0.25020  Biso   1.000  H
  H43      1.0000 0.89880  0.47720  0.49980  Biso   1.000  H
  H44      1.0000 0.85120  0.27280  0.49980  Biso   1.000  H
  H45      1.0000 0.85120  0.97720  0.75020  Biso   1.000  H
  H46      1.0000 0.89880  0.77280  0.75020  Biso   1.000  H
  H47      1.0000 0.89880  0.97720  0.99980  Biso   1.000  H
  H48      1.0000 0.85120  0.77280  0.99980  Biso   1.000  H
  H49      1.0000 0.64880  0.52280  0.24980  Biso   1.000  H
  H50      1.0000 0.10120  0.22720  0.24980  Biso   1.000  H
  H51      1.0000 0.10120  0.52280  0.50020  Biso   1.000  H
  H52      1.0000 0.64880  0.22720  0.50020  Biso   1.000  H
  H53      1.0000 0.64880  0.02280  0.74980  Biso   1.000  H
  H54      1.0000 0.10120  0.72720  0.74980  Biso   1.000  H
  H55      1.0000 0.10120  0.02280  0.00020  Biso   1.000  H
  H56      1.0000 0.64880  0.72720  0.00020  Biso   1.000  H
  H57      1.0000 0.14880  0.52280  0.74980  Biso   1.000  H
  H58      1.0000 0.60120  0.22720  0.74980  Biso   1.000  H
  H59      1.0000 0.60120  0.52280  0.00020  Biso   1.000  H
  H60      1.0000 0.14880  0.22720  0.00020  Biso   1.000  H
  H61      1.0000 0.14880  0.02280  0.24980  Biso   1.000  H
  H62      1.0000 0.60120  0.72720  0.24980  Biso   1.000  H
  H63      1.0000 0.60120  0.02280  0.50020  Biso   1.000  H
  H64      1.0000 0.14880  0.72720  0.50020  Biso   1.000  H
  H65      1.0000 0.37400  0.57130  0.75020  Biso   1.000  H
  H66      1.0000 0.37600  0.17870  0.75020  Biso   1.000  H
  H67      1.0000 0.37600  0.57130  0.99980  Biso   1.000  H
  H68      1.0000 0.37400  0.17870  0.99980  Biso   1.000  H
  H69      1.0000 0.37400  0.07130  0.25020  Biso   1.000  H
  H70      1.0000 0.37600  0.67870  0.25020  Biso   1.000  H
  H71      1.0000 0.37600  0.07130  0.49980  Biso   1.000  H
  H72      1.0000 0.37400  0.67870  0.49980  Biso   1.000  H
  H73      1.0000 0.87400  0.57130  0.25020  Biso   1.000  H
  H74      1.0000 0.87600  0.17870  0.25020  Biso   1.000  H
  H75      1.0000 0.87600  0.57130  0.49980  Biso   1.000  H
  H76      1.0000 0.87400  0.17870  0.49980  Biso   1.000  H
  H77      1.0000 0.87400  0.07130  0.75020  Biso   1.000  H
  H78      1.0000 0.87600  0.67870  0.75020  Biso   1.000  H
  H79      1.0000 0.87600  0.07130  0.99980  Biso   1.000  H
  H80      1.0000 0.87400  0.67870  0.99980  Biso   1.000  H
  H81      1.0000 0.62600  0.42870  0.24980  Biso   1.000  H
  H82      1.0000 0.12400  0.32130  0.24980  Biso   1.000  H
  H83      1.0000 0.12400  0.42870  0.50020  Biso   1.000  H
  H84      1.0000 0.62600  0.32130  0.50020  Biso   1.000  H
  H85      1.0000 0.62600  0.92870  0.74980  Biso   1.000  H
  H86      1.0000 0.12400  0.82130  0.74980  Biso   1.000  H
  H87      1.0000 0.12400  0.92870  0.00020  Biso   1.000  H
  H88      1.0000 0.62600  0.82130  0.00020  Biso   1.000  H
  H89      1.0000 0.12600  0.42870  0.74980  Biso   1.000  H
  H90      1.0000 0.62400  0.32130  0.74980  Biso   1.000  H
  H91      1.0000 0.62400  0.42870  0.00020  Biso   1.000  H
  H92      1.0000 0.12600  0.32130  0.00020  Biso   1.000  H
  H93      1.0000 0.12600  0.92870  0.24980  Biso   1.000  H
  H94      1.0000 0.62400  0.82130  0.24980  Biso   1.000  H
  H95      1.0000 0.62400  0.92870  0.50020  Biso   1.000  H
  H96      1.0000 0.12600  0.82130  0.50020  Biso   1.000  H
  H97      1.0000 0.42690  0.51530  0.78470  Biso   1.000  H
  H98      1.0000 0.32310  0.23470  0.78470  Biso   1.000  H
  H99      1.0000 0.32310  0.51530  0.96530  Biso   1.000  H
  H100     1.0000 0.42690  0.23470  0.96530  Biso   1.000  H
  H101     1.0000 0.42690  0.01530  0.28470  Biso   1.000  H
  H102     1.0000 0.32310  0.73470  0.28470  Biso   1.000  H
  H103     1.0000 0.32310  0.01530  0.46530  Biso   1.000  H
  H104     1.0000 0.42690  0.73470  0.46530  Biso   1.000  H
  H105     1.0000 0.92690  0.51530  0.28470  Biso   1.000  H
  H106     1.0000 0.82310  0.23470  0.28470  Biso   1.000  H
  H107     1.0000 0.82310  0.51530  0.46530  Biso   1.000  H
  H108     1.0000 0.92690  0.23470  0.46530  Biso   1.000  H
  H109     1.0000 0.92690  0.01530  0.78470  Biso   1.000  H
  H110     1.0000 0.82310  0.73470  0.78470  Biso   1.000  H
  H111     1.0000 0.82310  0.01530  0.96530  Biso   1.000  H
  H112     1.0000 0.92690  0.73470  0.96530  Biso   1.000  H
  H113     1.0000 0.57310  0.48470  0.21530  Biso   1.000  H
  H114     1.0000 0.17690  0.26530  0.21530  Biso   1.000  H
  H115     1.0000 0.17690  0.48470  0.53470  Biso   1.000  H
  H116     1.0000 0.57310  0.26530  0.53470  Biso   1.000  H
  H117     1.0000 0.57310  0.98470  0.71530  Biso   1.000  H
  H118     1.0000 0.17690  0.76530  0.71530  Biso   1.000  H
  H119     1.0000 0.17690  0.98470  0.03470  Biso   1.000  H
  H120     1.0000 0.57310  0.76530  0.03470  Biso   1.000  H
  H121     1.0000 0.07310  0.48470  0.71530  Biso   1.000  H
  H122     1.0000 0.67690  0.26530  0.71530  Biso   1.000  H
  H123     1.0000 0.67690  0.48470  0.03470  Biso   1.000  H
  H124     1.0000 0.07310  0.26530  0.03470  Biso   1.000  H
  H125     1.0000 0.07310  0.98470  0.21530  Biso   1.000  H
  H126     1.0000 0.67690  0.76530  0.21530  Biso   1.000  H
  H127     1.0000 0.67690  0.98470  0.53470  Biso   1.000  H
  H128     1.0000 0.07310  0.76530  0.53470  Biso   1.000  H
  C129     1.0000 0.76480  0.53161  0.67625  Biso   1.000  C
  C130     1.0000 0.98520  0.21839  0.67625  Biso   1.000  C
  C131     1.0000 0.98520  0.53161  0.07375  Biso   1.000  C
  C132     1.0000 0.76480  0.21839  0.07375  Biso   1.000  C
  C133     1.0000 0.76480  0.03161  0.17625  Biso   1.000  C
  C134     1.0000 0.98520  0.71839  0.17625  Biso   1.000  C
  C135     1.0000 0.98520  0.03161  0.57375  Biso   1.000  C
  C136     1.0000 0.76480  0.71839  0.57375  Biso   1.000  C
  C137     1.0000 0.26480  0.53161  0.17625  Biso   1.000  C
  C138     1.0000 0.48520  0.21839  0.17625  Biso   1.000  C
  C139     1.0000 0.48520  0.53161  0.57375  Biso   1.000  C
  C140     1.0000 0.26480  0.21839  0.57375  Biso   1.000  C
  C141     1.0000 0.26480  0.03161  0.67625  Biso   1.000  C
  C142     1.0000 0.48520  0.71839  0.67625  Biso   1.000  C
  C143     1.0000 0.48520  0.03161  0.07375  Biso   1.000  C
  C144     1.0000 0.26480  0.71839  0.07375  Biso   1.000  C
  C145     1.0000 0.23520  0.46839  0.32375  Biso   1.000  C
  C146     1.0000 0.51480  0.28161  0.32375  Biso   1.000  C
  C147     1.0000 0.51480  0.46839  0.42625  Biso   1.000  C
  C148     1.0000 0.23520  0.28161  0.42625  Biso   1.000  C
  C149     1.0000 0.23520  0.96839  0.82375  Biso   1.000  C
  C150     1.0000 0.51480  0.78161  0.82375  Biso   1.000  C
  C151     1.0000 0.51480  0.96839  0.92625  Biso   1.000  C
  C152     1.0000 0.23520  0.78161  0.92625  Biso   1.000  C
  C153     1.0000 0.73520  0.46839  0.82375  Biso   1.000  C
  C154     1.0000 0.01480  0.28161  0.82375  Biso   1.000  C
  C155     1.0000 0.01480  0.46839  0.92625  Biso   1.000  C
  C156     1.0000 0.73520  0.28161  0.92625  Biso   1.000  C
  C157     1.0000 0.73520  0.96839  0.32375  Biso   1.000  C
  C158     1.0000 0.01480  0.78161  0.32375  Biso   1.000  C
  C159     1.0000 0.01480  0.96839  0.42625  Biso   1.000  C
  C160     1.0000 0.73520  0.78161  0.42625  Biso   1.000  C
  H129     1.0000 0.78390  0.49160  0.65530  Biso   1.000  H
  H130     1.0000 0.96610  0.25840  0.65530  Biso   1.000  H
  H131     1.0000 0.96610  0.49160  0.09470  Biso   1.000  H
  H132     1.0000 0.78390  0.25840  0.09470  Biso   1.000  H
  H133     1.0000 0.78390  0.99160  0.15530  Biso   1.000  H
  H134     1.0000 0.96610  0.75840  0.15530  Biso   1.000  H
  H135     1.0000 0.96610  0.99160  0.59470  Biso   1.000  H
  H136     1.0000 0.78390  0.75840  0.59470  Biso   1.000  H
  H137     1.0000 0.28390  0.49160  0.15530  Biso   1.000  H
  H138     1.0000 0.46610  0.25840  0.15530  Biso   1.000  H
  H139     1.0000 0.46610  0.49160  0.59470  Biso   1.000  H
  H140     1.0000 0.28390  0.25840  0.59470  Biso   1.000  H
  H141     1.0000 0.28390  0.99160  0.65530  Biso   1.000  H
  H142     1.0000 0.46610  0.75840  0.65530  Biso   1.000  H
  H143     1.0000 0.46610  0.99160  0.09470  Biso   1.000  H
  H144     1.0000 0.28390  0.75840  0.09470  Biso   1.000  H
  H145     1.0000 0.21610  0.50840  0.34470  Biso   1.000  H
  H146     1.0000 0.53390  0.24160  0.34470  Biso   1.000  H
  H147     1.0000 0.53390  0.50840  0.40530  Biso   1.000  H
  H148     1.0000 0.21610  0.24160  0.40530  Biso   1.000  H
  H149     1.0000 0.21610  0.00840  0.84470  Biso   1.000  H
  H150     1.0000 0.53390  0.74160  0.84470  Biso   1.000  H
  H151     1.0000 0.53390  0.00840  0.90530  Biso   1.000  H
  H152     1.0000 0.21610  0.74160  0.90530  Biso   1.000  H
  H153     1.0000 0.71610  0.50840  0.84470  Biso   1.000  H
  H154     1.0000 0.03390  0.24160  0.84470  Biso   1.000  H
  H155     1.0000 0.03390  0.50840  0.90530  Biso   1.000  H
  H156     1.0000 0.71610  0.24160  0.90530  Biso   1.000  H
  H157     1.0000 0.71610  0.00840  0.34470  Biso   1.000  H
  H158     1.0000 0.03390  0.74160  0.34470  Biso   1.000  H
  H159     1.0000 0.03390  0.00840  0.40530  Biso   1.000  H
  H160     1.0000 0.71610  0.74160  0.40530  Biso   1.000  H
  H161     1.0000 0.81700  0.53100  0.69870  Biso   1.000  H
  H162     1.0000 0.93300  0.21900  0.69870  Biso   1.000  H
  H163     1.0000 0.93300  0.53100  0.05130  Biso   1.000  H
  H164     1.0000 0.81700  0.21900  0.05130  Biso   1.000  H
  H165     1.0000 0.81700  0.03100  0.19870  Biso   1.000  H
  H166     1.0000 0.93300  0.71900  0.19870  Biso   1.000  H
  H167     1.0000 0.93300  0.03100  0.55130  Biso   1.000  H
  H168     1.0000 0.81700  0.71900  0.55130  Biso   1.000  H
  H169     1.0000 0.31700  0.53100  0.19870  Biso   1.000  H
  H170     1.0000 0.43300  0.21900  0.19870  Biso   1.000  H
  H171     1.0000 0.43300  0.53100  0.55130  Biso   1.000  H
  H172     1.0000 0.31700  0.21900  0.55130  Biso   1.000  H
  H173     1.0000 0.31700  0.03100  0.69870  Biso   1.000  H
  H174     1.0000 0.43300  0.71900  0.69870  Biso   1.000  H
  H175     1.0000 0.43300  0.03100  0.05130  Biso   1.000  H
  H176     1.0000 0.31700  0.71900  0.05130  Biso   1.000  H
  H177     1.0000 0.18300  0.46900  0.30130  Biso   1.000  H
  H178     1.0000 0.56700  0.28100  0.30130  Biso   1.000  H
  H179     1.0000 0.56700  0.46900  0.44870  Biso   1.000  H
  H180     1.0000 0.18300  0.28100  0.44870  Biso   1.000  H
  H181     1.0000 0.18300  0.96900  0.80130  Biso   1.000  H
  H182     1.0000 0.56700  0.78100  0.80130  Biso   1.000  H
  H183     1.0000 0.56700  0.96900  0.94870  Biso   1.000  H
  H184     1.0000 0.18300  0.78100  0.94870  Biso   1.000  H
  H185     1.0000 0.68300  0.46900  0.80130  Biso   1.000  H
  H186     1.0000 0.06700  0.28100  0.80130  Biso   1.000  H
  H187     1.0000 0.06700  0.46900  0.94870  Biso   1.000  H
  H188     1.0000 0.68300  0.28100  0.94870  Biso   1.000  H
  H189     1.0000 0.68300  0.96900  0.30130  Biso   1.000  H
  H190     1.0000 0.06700  0.78100  0.30130  Biso   1.000  H
  H191     1.0000 0.06700  0.96900  0.44870  Biso   1.000  H
  H192     1.0000 0.68300  0.78100  0.44870  Biso   1.000  H
  H193     1.0000 0.76320  0.58480  0.66340  Biso   1.000  H
  H194     1.0000 0.98680  0.16520  0.66340  Biso   1.000  H
  H195     1.0000 0.98680  0.58480  0.08660  Biso   1.000  H
  H196     1.0000 0.76320  0.16520  0.08660  Biso   1.000  H
  H197     1.0000 0.76320  0.08480  0.16340  Biso   1.000  H
  H198     1.0000 0.98680  0.66520  0.16340  Biso   1.000  H
  H199     1.0000 0.98680  0.08480  0.58660  Biso   1.000  H
  H200     1.0000 0.76320  0.66520  0.58660  Biso   1.000  H
  H201     1.0000 0.26320  0.58480  0.16340  Biso   1.000  H
  H202     1.0000 0.48680  0.16520  0.16340  Biso   1.000  H
  H203     1.0000 0.48680  0.58480  0.58660  Biso   1.000  H
  H204     1.0000 0.26320  0.16520  0.58660  Biso   1.000  H
  H205     1.0000 0.26320  0.08480  0.66340  Biso   1.000  H
  H206     1.0000 0.48680  0.66520  0.66340  Biso   1.000  H
  H207     1.0000 0.48680  0.08480  0.08660  Biso   1.000  H
  H208     1.0000 0.26320  0.66520  0.08660  Biso   1.000  H
  H209     1.0000 0.23680  0.41520  0.33660  Biso   1.000  H
  H210     1.0000 0.51320  0.33480  0.33660  Biso   1.000  H
  H211     1.0000 0.51320  0.41520  0.41340  Biso   1.000  H
  H212     1.0000 0.23680  0.33480  0.41340  Biso   1.000  H
  H213     1.0000 0.23680  0.91520  0.83660  Biso   1.000  H
  H214     1.0000 0.51320  0.83480  0.83660  Biso   1.000  H
  H215     1.0000 0.51320  0.91520  0.91340  Biso   1.000  H
  H216     1.0000 0.23680  0.83480  0.91340  Biso   1.000  H
  H217     1.0000 0.73680  0.41520  0.83660  Biso   1.000  H
  H218     1.0000 0.01320  0.33480  0.83660  Biso   1.000  H
  H219     1.0000 0.01320  0.41520  0.91340  Biso   1.000  H
  H220     1.0000 0.73680  0.33480  0.91340  Biso   1.000  H
  H221     1.0000 0.73680  0.91520  0.33660  Biso   1.000  H
  H222     1.0000 0.01320  0.83480  0.33660  Biso   1.000  H
  H223     1.0000 0.01320  0.91520  0.41340  Biso   1.000  H
  H224     1.0000 0.73680  0.83480  0.41340  Biso   1.000  H
  O1       1.0000 0.45232  0.27585  0.66817  Biso   1.000  O
  O2       1.0000 0.29768  0.47415  0.66817  Biso   1.000  O
  O3       1.0000 0.29768  0.27585  0.08183  Biso   1.000  O
  O4       1.0000 0.45232  0.47415  0.08183  Biso   1.000  O
  O5       1.0000 0.45232  0.77585  0.16817  Biso   1.000  O
  O6       1.0000 0.29768  0.97415  0.16817  Biso   1.000  O
  O7       1.0000 0.29768  0.77585  0.58183  Biso   1.000  O
  O8       1.0000 0.45232  0.97415  0.58183  Biso   1.000  O
  O9       1.0000 0.95232  0.27585  0.16817  Biso   1.000  O
  O10      1.0000 0.79768  0.47415  0.16817  Biso   1.000  O
  O11      1.0000 0.79768  0.27585  0.58183  Biso   1.000  O
  O12      1.0000 0.95232  0.47415  0.58183  Biso   1.000  O
  O13      1.0000 0.95232  0.77585  0.66817  Biso   1.000  O
  O14      1.0000 0.79768  0.97415  0.66817  Biso   1.000  O
  O15      1.0000 0.79768  0.77585  0.08183  Biso   1.000  O
  O16      1.0000 0.95232  0.97415  0.08183  Biso   1.000  O
  O17      1.0000 0.54768  0.72415  0.33183  Biso   1.000  O
  O18      1.0000 0.20232  0.02585  0.33183  Biso   1.000  O
  O19      1.0000 0.20232  0.72415  0.41817  Biso   1.000  O
  O20      1.0000 0.54768  0.02585  0.41817  Biso   1.000  O
  O21      1.0000 0.54768  0.22415  0.83183  Biso   1.000  O
  O22      1.0000 0.20232  0.52585  0.83183  Biso   1.000  O
  O23      1.0000 0.20232  0.22415  0.91817  Biso   1.000  O
  O24      1.0000 0.54768  0.52585  0.91817  Biso   1.000  O
  O25      1.0000 0.04768  0.72415  0.83183  Biso   1.000  O
  O26      1.0000 0.70232  0.02585  0.83183  Biso   1.000  O
  O27      1.0000 0.70232  0.72415  0.91817  Biso   1.000  O
  O28      1.0000 0.04768  0.02585  0.91817  Biso   1.000  O
  O29      1.0000 0.04768  0.22415  0.33183  Biso   1.000  O
  O30      1.0000 0.70232  0.52585  0.33183  Biso   1.000  O
  O31      1.0000 0.70232  0.22415  0.41817  Biso   1.000  O
  O32      1.0000 0.04768  0.52585  0.41817  Biso   1.000  O
  O33      1.0000 0.51303  0.33532  0.60955  Biso   1.000  O
  O34      1.0000 0.23697  0.41468  0.60955  Biso   1.000  O
  O35      1.0000 0.23697  0.33532  0.14045  Biso   1.000  O
  O36      1.0000 0.51303  0.41468  0.14045  Biso   1.000  O
  O37      1.0000 0.51303  0.83532  0.10955  Biso   1.000  O
  O38      1.0000 0.23697  0.91468  0.10955  Biso   1.000  O
  O39      1.0000 0.23697  0.83532  0.64045  Biso   1.000  O
  O40      1.0000 0.51303  0.91468  0.64045  Biso   1.000  O
  O41      1.0000 0.01303  0.33532  0.10955  Biso   1.000  O
  O42      1.0000 0.73697  0.41468  0.10955  Biso   1.000  O
  O43      1.0000 0.73697  0.33532  0.64045  Biso   1.000  O
  O44      1.0000 0.01303  0.41468  0.64045  Biso   1.000  O
  O45      1.0000 0.01303  0.83532  0.60955  Biso   1.000  O
  O46      1.0000 0.73697  0.91468  0.60955  Biso   1.000  O
  O47      1.0000 0.73697  0.83532  0.14045  Biso   1.000  O
  O48      1.0000 0.01303  0.91468  0.14045  Biso   1.000  O
  O49      1.0000 0.48697  0.66468  0.39045  Biso   1.000  O
  O50      1.0000 0.26303  0.08532  0.39045  Biso   1.000  O
  O51      1.0000 0.26303  0.66468  0.35955  Biso   1.000  O
  O52      1.0000 0.48697  0.08532  0.35955  Biso   1.000  O
  O53      1.0000 0.48697  0.16468  0.89045  Biso   1.000  O
  O54      1.0000 0.26303  0.58532  0.89045  Biso   1.000  O
  O55      1.0000 0.26303  0.16468  0.85955  Biso   1.000  O
  O56      1.0000 0.48697  0.58532  0.85955  Biso   1.000  O
  O57      1.0000 0.98697  0.66468  0.89045  Biso   1.000  O
  O58      1.0000 0.76303  0.08532  0.89045  Biso   1.000  O
  O59      1.0000 0.76303  0.66468  0.85955  Biso   1.000  O
  O60      1.0000 0.98697  0.08532  0.85955  Biso   1.000  O
  O61      1.0000 0.98697  0.16468  0.39045  Biso   1.000  O
  O62      1.0000 0.76303  0.58532  0.39045  Biso   1.000  O
  O63      1.0000 0.76303  0.16468  0.35955  Biso   1.000  O
  O64      1.0000 0.98697  0.58532  0.35955  Biso   1.000  O
  C161     1.0000 0.56854  0.19859  0.62673  Biso   1.000  C
  C162     1.0000 0.18146  0.55141  0.62673  Biso   1.000  C
  C163     1.0000 0.18146  0.19859  0.12327  Biso   1.000  C
  C164     1.0000 0.56854  0.55141  0.12327  Biso   1.000  C
  C165     1.0000 0.56854  0.69859  0.12673  Biso   1.000  C
  C166     1.0000 0.18146  0.05141  0.12673  Biso   1.000  C
  C167     1.0000 0.18146  0.69859  0.62327  Biso   1.000  C
  C168     1.0000 0.56854  0.05141  0.62327  Biso   1.000  C
  C169     1.0000 0.06854  0.19859  0.12673  Biso   1.000  C
  C170     1.0000 0.68146  0.55141  0.12673  Biso   1.000  C
  C171     1.0000 0.68146  0.19859  0.62327  Biso   1.000  C
  C172     1.0000 0.06854  0.55141  0.62327  Biso   1.000  C
  C173     1.0000 0.06854  0.69859  0.62673  Biso   1.000  C
  C174     1.0000 0.68146  0.05141  0.62673  Biso   1.000  C
  C175     1.0000 0.68146  0.69859  0.12327  Biso   1.000  C
  C176     1.0000 0.06854  0.05141  0.12327  Biso   1.000  C
  C177     1.0000 0.43146  0.80141  0.37327  Biso   1.000  C
  C178     1.0000 0.31854  0.94859  0.37327  Biso   1.000  C
  C179     1.0000 0.31854  0.80141  0.37673  Biso   1.000  C
  C180     1.0000 0.43146  0.94859  0.37673  Biso   1.000  C
  C181     1.0000 0.43146  0.30141  0.87327  Biso   1.000  C
  C182     1.0000 0.31854  0.44859  0.87327  Biso   1.000  C
  C183     1.0000 0.31854  0.30141  0.87673  Biso   1.000  C
  C184     1.0000 0.43146  0.44859  0.87673  Biso   1.000  C
  C185     1.0000 0.93146  0.80141  0.87327  Biso   1.000  C
  C186     1.0000 0.81854  0.94859  0.87327  Biso   1.000  C
  C187     1.0000 0.81854  0.80141  0.87673  Biso   1.000  C
  C188     1.0000 0.93146  0.94859  0.87673  Biso   1.000  C
  C189     1.0000 0.93146  0.30141  0.37327  Biso   1.000  C
  C190     1.0000 0.81854  0.44859  0.37327  Biso   1.000  C
  C191     1.0000 0.81854  0.30141  0.37673  Biso   1.000  C
  C192     1.0000 0.93146  0.44859  0.37673  Biso   1.000  C
  C193     1.0000 0.50769  0.27704  0.63415  Biso   1.000  C
  C194     1.0000 0.24231  0.47296  0.63415  Biso   1.000  C
  C195     1.0000 0.24231  0.27704  0.11585  Biso   1.000  C
  C196     1.0000 0.50769  0.47296  0.11585  Biso   1.000  C
  C197     1.0000 0.50769  0.77704  0.13415  Biso   1.000  C
  C198     1.0000 0.24231  0.97296  0.13415  Biso   1.000  C
  C199     1.0000 0.24231  0.77704  0.61585  Biso   1.000  C
  C200     1.0000 0.50769  0.97296  0.61585  Biso   1.000  C
  C201     1.0000 0.00769  0.27704  0.13415  Biso   1.000  C
  C202     1.0000 0.74231  0.47296  0.13415  Biso   1.000  C
  C203     1.0000 0.74231  0.27704  0.61585  Biso   1.000  C
  C204     1.0000 0.00769  0.47296  0.61585  Biso   1.000  C
  C205     1.0000 0.00769  0.77704  0.63415  Biso   1.000  C
  C206     1.0000 0.74231  0.97296  0.63415  Biso   1.000  C
  C207     1.0000 0.74231  0.77704  0.11585  Biso   1.000  C
  C208     1.0000 0.00769  0.97296  0.11585  Biso   1.000  C
  C209     1.0000 0.49231  0.72296  0.36585  Biso   1.000  C
  C210     1.0000 0.25769  0.02704  0.36585  Biso   1.000  C
  C211     1.0000 0.25769  0.72296  0.38415  Biso   1.000  C
  C212     1.0000 0.49231  0.02704  0.38415  Biso   1.000  C
  C213     1.0000 0.49231  0.22296  0.86585  Biso   1.000  C
  C214     1.0000 0.25769  0.52704  0.86585  Biso   1.000  C
  C215     1.0000 0.25769  0.22296  0.88415  Biso   1.000  C
  C216     1.0000 0.49231  0.52704  0.88415  Biso   1.000  C
  C217     1.0000 0.99231  0.72296  0.86585  Biso   1.000  C
  C218     1.0000 0.75769  0.02704  0.86585  Biso   1.000  C
  C219     1.0000 0.75769  0.72296  0.88415  Biso   1.000  C
  C220     1.0000 0.99231  0.02704  0.88415  Biso   1.000  C
  C221     1.0000 0.99231  0.22296  0.36585  Biso   1.000  C
  C222     1.0000 0.75769  0.52704  0.36585  Biso   1.000  C
  C223     1.0000 0.75769  0.22296  0.38415  Biso   1.000  C
  C224     1.0000 0.99231  0.52704  0.38415  Biso   1.000  C
  C225     1.0000 0.51400  0.12500  0.62500  Biso   1.000  C
  C226     1.0000 0.23600  0.62500  0.62500  Biso   1.000  C
  C227     1.0000 0.23600  0.12500  0.12500  Biso   1.000  C
  C228     1.0000 0.51400  0.62500  0.12500  Biso   1.000  C
  C229     1.0000 0.01400  0.12500  0.12500  Biso   1.000  C
  C230     1.0000 0.73600  0.62500  0.12500  Biso   1.000  C
  C231     1.0000 0.73600  0.12500  0.62500  Biso   1.000  C
  C232     1.0000 0.01400  0.62500  0.62500  Biso   1.000  C
  C233     1.0000 0.48600  0.87500  0.37500  Biso   1.000  C
  C234     1.0000 0.26400  0.87500  0.37500  Biso   1.000  C
  C235     1.0000 0.48600  0.37500  0.87500  Biso   1.000  C
  C236     1.0000 0.26400  0.37500  0.87500  Biso   1.000  C
  C237     1.0000 0.98600  0.87500  0.87500  Biso   1.000  C
  C238     1.0000 0.76400  0.87500  0.87500  Biso   1.000  C
  C239     1.0000 0.98600  0.37500  0.37500  Biso   1.000  C
  C240     1.0000 0.76400  0.37500  0.37500  Biso   1.000  C
  H225     1.0000 0.43910  0.12500  0.62500  Biso   1.000  H
  H226     1.0000 0.31090  0.62500  0.62500  Biso   1.000  H
  H227     1.0000 0.31090  0.12500  0.12500  Biso   1.000  H
  H228     1.0000 0.43910  0.62500  0.12500  Biso   1.000  H
  H229     1.0000 0.93910  0.12500  0.12500  Biso   1.000  H
  H230     1.0000 0.81090  0.62500  0.12500  Biso   1.000  H
  H231     1.0000 0.81090  0.12500  0.62500  Biso   1.000  H
  H232     1.0000 0.93910  0.62500  0.62500  Biso   1.000  H
  H233     1.0000 0.56090  0.87500  0.37500  Biso   1.000  H
  H234     1.0000 0.18910  0.87500  0.37500  Biso   1.000  H
  H235     1.0000 0.56090  0.37500  0.87500  Biso   1.000  H
  H236     1.0000 0.18910  0.37500  0.87500  Biso   1.000  H
  H237     1.0000 0.06090  0.87500  0.87500  Biso   1.000  H
  H238     1.0000 0.68910  0.87500  0.87500  Biso   1.000  H
  H239     1.0000 0.06090  0.37500  0.37500  Biso   1.000  H
  H240     1.0000 0.68910  0.37500  0.37500  Biso   1.000  H
  C241     1.0000 0.62500  0.62500  0.75043  Biso   1.000  C
  C242     1.0000 0.12500  0.12500  0.75043  Biso   1.000  C
  C243     1.0000 0.12500  0.62500  0.99957  Biso   1.000  C
  C244     1.0000 0.62500  0.12500  0.99957  Biso   1.000  C
  C245     1.0000 0.62500  0.12500  0.25043  Biso   1.000  C
  C246     1.0000 0.12500  0.62500  0.25043  Biso   1.000  C
  C247     1.0000 0.12500  0.12500  0.49957  Biso   1.000  C
  C248     1.0000 0.62500  0.62500  0.49957  Biso   1.000  C
  C249     1.0000 0.37500  0.37500  0.24957  Biso   1.000  C
  C250     1.0000 0.37500  0.37500  0.50043  Biso   1.000  C
  C251     1.0000 0.37500  0.87500  0.74957  Biso   1.000  C
  C252     1.0000 0.37500  0.87500  0.00043  Biso   1.000  C
  C253     1.0000 0.87500  0.37500  0.74957  Biso   1.000  C
  C254     1.0000 0.87500  0.37500  0.00043  Biso   1.000  C
  C255     1.0000 0.87500  0.87500  0.24957  Biso   1.000  C
  C256     1.0000 0.87500  0.87500  0.50043  Biso   1.000  C
  H241     1.0000 0.68100  0.61100  0.76920  Biso   1.000  H
  H242     1.0000 0.06900  0.13900  0.76920  Biso   1.000  H
  H243     1.0000 0.06900  0.61100  0.98080  Biso   1.000  H
  H244     1.0000 0.68100  0.13900  0.98080  Biso   1.000  H
  H245     1.0000 0.68100  0.11100  0.26920  Biso   1.000  H
  H246     1.0000 0.06900  0.63900  0.26920  Biso   1.000  H
  H247     1.0000 0.06900  0.11100  0.48080  Biso   1.000  H
  H248     1.0000 0.68100  0.63900  0.48080  Biso   1.000  H
  H249     1.0000 0.18100  0.61100  0.26920  Biso   1.000  H
  H250     1.0000 0.56900  0.13900  0.26920  Biso   1.000  H
  H251     1.0000 0.56900  0.61100  0.48080  Biso   1.000  H
  H252     1.0000 0.18100  0.13900  0.48080  Biso   1.000  H
  H253     1.0000 0.18100  0.11100  0.76920  Biso   1.000  H
  H254     1.0000 0.56900  0.63900  0.76920  Biso   1.000  H
  H255     1.0000 0.56900  0.11100  0.98080  Biso   1.000  H
  H256     1.0000 0.18100  0.63900  0.98080  Biso   1.000  H
  H257     1.0000 0.31900  0.38900  0.23080  Biso   1.000  H
  H258     1.0000 0.43100  0.36100  0.23080  Biso   1.000  H
  H259     1.0000 0.43100  0.38900  0.51920  Biso   1.000  H
  H260     1.0000 0.31900  0.36100  0.51920  Biso   1.000  H
  H261     1.0000 0.31900  0.88900  0.73080  Biso   1.000  H
  H262     1.0000 0.43100  0.86100  0.73080  Biso   1.000  H
  H263     1.0000 0.43100  0.88900  0.01920  Biso   1.000  H
  H264     1.0000 0.31900  0.86100  0.01920  Biso   1.000  H
  H265     1.0000 0.81900  0.38900  0.73080  Biso   1.000  H
  H266     1.0000 0.93100  0.36100  0.73080  Biso   1.000  H
  H267     1.0000 0.93100  0.38900  0.01920  Biso   1.000  H
  H268     1.0000 0.81900  0.36100  0.01920  Biso   1.000  H
  H269     1.0000 0.81900  0.88900  0.23080  Biso   1.000  H
  H270     1.0000 0.93100  0.86100  0.23080  Biso   1.000  H
  H271     1.0000 0.93100  0.88900  0.51920  Biso   1.000  H
  H272     1.0000 0.81900  0.86100  0.51920  Biso   1.000  H
