data_image0
_cell_length_a       30.736
_cell_length_b       30.736
_cell_length_c       8.7792
_cell_angle_alpha    90
_cell_angle_beta     90
_cell_angle_gamma    120

_symmetry_space_group_name_H-M    "P 1"
_symmetry_int_tables_number       1

loop_
  _symmetry_equiv_pos_as_xyz
  'x, y, z'

loop_
  _atom_site_label
  _atom_site_occupancy
  _atom_site_fract_x
  _atom_site_fract_y
  _atom_site_fract_z
  _atom_site_thermal_displace_type
  _atom_site_B_iso_or_equiv
  _atom_site_type_symbol
  Cu1      1.0000 0.30802  0.14896  0.50853  Biso   1.000  Cu
  Cu2      1.0000 0.85103  0.15906  0.50853  Biso   1.000  Cu
  Cu3      1.0000 0.84094  0.69198  0.50853  Biso   1.000  Cu
  Cu4      1.0000 0.97469  0.48230  0.84186  Biso   1.000  Cu
  Cu5      1.0000 0.51770  0.49239  0.84186  Biso   1.000  Cu
  Cu6      1.0000 0.50761  0.02531  0.84186  Biso   1.000  Cu
  Cu7      1.0000 0.64135  0.81563  0.17520  Biso   1.000  Cu
  Cu8      1.0000 0.18437  0.82572  0.17520  Biso   1.000  Cu
  Cu9      1.0000 0.17428  0.35865  0.17520  Biso   1.000  Cu
  Cu10     1.0000 0.69198  0.85103  0.49147  Biso   1.000  Cu
  Cu11     1.0000 0.14897  0.84094  0.49147  Biso   1.000  Cu
  Cu12     1.0000 0.15906  0.30802  0.49147  Biso   1.000  Cu
  Cu13     1.0000 0.35865  0.18437  0.82480  Biso   1.000  Cu
  Cu14     1.0000 0.81563  0.17428  0.82480  Biso   1.000  Cu
  Cu15     1.0000 0.82572  0.64135  0.82480  Biso   1.000  Cu
  Cu16     1.0000 0.02531  0.51770  0.15814  Biso   1.000  Cu
  Cu17     1.0000 0.48230  0.50761  0.15814  Biso   1.000  Cu
  Cu18     1.0000 0.49239  0.97469  0.15814  Biso   1.000  Cu
  O1       1.0000 0.29078  0.13994  0.75452  Biso   1.000  O
  O2       1.0000 0.86006  0.15084  0.75452  Biso   1.000  O
  O3       1.0000 0.84916  0.70922  0.75452  Biso   1.000  O
  O4       1.0000 0.95745  0.47327  0.08785  Biso   1.000  O
  O5       1.0000 0.52673  0.48417  0.08785  Biso   1.000  O
  O6       1.0000 0.51583  0.04255  0.08785  Biso   1.000  O
  O7       1.0000 0.62411  0.80661  0.42119  Biso   1.000  O
  O8       1.0000 0.19339  0.81751  0.42119  Biso   1.000  O
  O9       1.0000 0.18249  0.37589  0.42119  Biso   1.000  O
  O10      1.0000 0.70922  0.86006  0.24548  Biso   1.000  O
  O11      1.0000 0.13994  0.84916  0.24548  Biso   1.000  O
  O12      1.0000 0.15084  0.29078  0.24548  Biso   1.000  O
  O13      1.0000 0.37589  0.19339  0.57881  Biso   1.000  O
  O14      1.0000 0.80661  0.18249  0.57881  Biso   1.000  O
  O15      1.0000 0.81751  0.62411  0.57881  Biso   1.000  O
  O16      1.0000 0.04255  0.52673  0.91215  Biso   1.000  O
  O17      1.0000 0.47327  0.51583  0.91215  Biso   1.000  O
  O18      1.0000 0.48417  0.95745  0.91215  Biso   1.000  O
  N1       1.0000 0.23554  0.10547  0.45060  Biso   1.000  N
  N2       1.0000 0.89453  0.13007  0.45060  Biso   1.000  N
  N3       1.0000 0.86993  0.76446  0.45060  Biso   1.000  N
  N4       1.0000 0.90221  0.43880  0.78393  Biso   1.000  N
  N5       1.0000 0.56120  0.46340  0.78393  Biso   1.000  N
  N6       1.0000 0.53660  0.09779  0.78393  Biso   1.000  N
  N7       1.0000 0.56887  0.77214  0.11727  Biso   1.000  N
  N8       1.0000 0.22786  0.79674  0.11727  Biso   1.000  N
  N9       1.0000 0.20326  0.43113  0.11727  Biso   1.000  N
  N10      1.0000 0.76446  0.89453  0.54940  Biso   1.000  N
  N11      1.0000 0.10547  0.86993  0.54940  Biso   1.000  N
  N12      1.0000 0.13007  0.23554  0.54940  Biso   1.000  N
  N13      1.0000 0.43113  0.22786  0.88273  Biso   1.000  N
  N14      1.0000 0.77214  0.20326  0.88273  Biso   1.000  N
  N15      1.0000 0.79674  0.56887  0.88273  Biso   1.000  N
  N16      1.0000 0.09779  0.56120  0.21607  Biso   1.000  N
  N17      1.0000 0.43880  0.53660  0.21607  Biso   1.000  N
  N18      1.0000 0.46340  0.90221  0.21607  Biso   1.000  N
  O19      1.0000 0.30030  0.20336  0.42790  Biso   1.000  O
  O20      1.0000 0.79664  0.09694  0.42790  Biso   1.000  O
  O21      1.0000 0.90306  0.69970  0.42790  Biso   1.000  O
  O22      1.0000 0.96697  0.53669  0.76123  Biso   1.000  O
  O23      1.0000 0.46331  0.43027  0.76123  Biso   1.000  O
  O24      1.0000 0.56973  0.03303  0.76123  Biso   1.000  O
  O25      1.0000 0.63363  0.87003  0.09457  Biso   1.000  O
  O26      1.0000 0.12997  0.76361  0.09457  Biso   1.000  O
  O27      1.0000 0.23639  0.36637  0.09457  Biso   1.000  O
  O28      1.0000 0.69970  0.79664  0.57210  Biso   1.000  O
  O29      1.0000 0.20336  0.90306  0.57210  Biso   1.000  O
  O30      1.0000 0.09694  0.30030  0.57210  Biso   1.000  O
  O31      1.0000 0.36637  0.12997  0.90543  Biso   1.000  O
  O32      1.0000 0.87003  0.23639  0.90543  Biso   1.000  O
  O33      1.0000 0.76361  0.63363  0.90543  Biso   1.000  O
  O34      1.0000 0.03303  0.46331  0.23877  Biso   1.000  O
  O35      1.0000 0.53669  0.56973  0.23877  Biso   1.000  O
  O36      1.0000 0.43027  0.96697  0.23877  Biso   1.000  O
  C1       1.0000 0.24542  0.16366  0.92650  Biso   1.000  C
  C2       1.0000 0.83634  0.08176  0.92650  Biso   1.000  C
  C3       1.0000 0.91824  0.75458  0.92650  Biso   1.000  C
  C4       1.0000 0.91209  0.49699  0.25983  Biso   1.000  C
  C5       1.0000 0.50301  0.41509  0.25983  Biso   1.000  C
  C6       1.0000 0.58491  0.08791  0.25983  Biso   1.000  C
  C7       1.0000 0.57875  0.83033  0.59317  Biso   1.000  C
  C8       1.0000 0.16967  0.74843  0.59317  Biso   1.000  C
  C9       1.0000 0.25157  0.42125  0.59317  Biso   1.000  C
  C10      1.0000 0.75458  0.83634  0.07350  Biso   1.000  C
  C11      1.0000 0.16366  0.91824  0.07350  Biso   1.000  C
  C12      1.0000 0.08176  0.24542  0.07350  Biso   1.000  C
  C13      1.0000 0.42125  0.16967  0.40683  Biso   1.000  C
  C14      1.0000 0.83033  0.25157  0.40683  Biso   1.000  C
  C15      1.0000 0.74843  0.57875  0.40683  Biso   1.000  C
  C16      1.0000 0.08791  0.50301  0.74017  Biso   1.000  C
  C17      1.0000 0.49699  0.58491  0.74017  Biso   1.000  C
  C18      1.0000 0.41509  0.91209  0.74017  Biso   1.000  C
  H1       1.0000 0.27470  0.18260  0.98660  Biso   1.000  H
  H2       1.0000 0.81740  0.09210  0.98660  Biso   1.000  H
  H3       1.0000 0.90790  0.72530  0.98660  Biso   1.000  H
  H4       1.0000 0.94137  0.51593  0.31993  Biso   1.000  H
  H5       1.0000 0.48407  0.42543  0.31993  Biso   1.000  H
  H6       1.0000 0.57457  0.05863  0.31993  Biso   1.000  H
  H7       1.0000 0.60803  0.84927  0.65327  Biso   1.000  H
  H8       1.0000 0.15073  0.75877  0.65327  Biso   1.000  H
  H9       1.0000 0.24123  0.39197  0.65327  Biso   1.000  H
  H10      1.0000 0.72530  0.81740  0.01340  Biso   1.000  H
  H11      1.0000 0.18260  0.90790  0.01340  Biso   1.000  H
  H12      1.0000 0.09210  0.27470  0.01340  Biso   1.000  H
  H13      1.0000 0.39197  0.15073  0.34673  Biso   1.000  H
  H14      1.0000 0.84927  0.24123  0.34673  Biso   1.000  H
  H15      1.0000 0.75877  0.60803  0.34673  Biso   1.000  H
  H16      1.0000 0.05863  0.48407  0.68007  Biso   1.000  H
  H17      1.0000 0.51593  0.57457  0.68007  Biso   1.000  H
  H18      1.0000 0.42543  0.94137  0.68007  Biso   1.000  H
  C19      1.0000 0.20609  0.07579  0.58690  Biso   1.000  C
  C20      1.0000 0.92421  0.13030  0.58690  Biso   1.000  C
  C21      1.0000 0.86970  0.79391  0.58690  Biso   1.000  C
  C22      1.0000 0.87276  0.40912  0.92023  Biso   1.000  C
  C23      1.0000 0.59088  0.46363  0.92023  Biso   1.000  C
  C24      1.0000 0.53637  0.12724  0.92023  Biso   1.000  C
  C25      1.0000 0.53942  0.74246  0.25357  Biso   1.000  C
  C26      1.0000 0.25754  0.79697  0.25357  Biso   1.000  C
  C27      1.0000 0.20303  0.46058  0.25357  Biso   1.000  C
  C28      1.0000 0.79391  0.92421  0.41310  Biso   1.000  C
  C29      1.0000 0.07579  0.86970  0.41310  Biso   1.000  C
  C30      1.0000 0.13030  0.20609  0.41310  Biso   1.000  C
  C31      1.0000 0.46058  0.25754  0.74643  Biso   1.000  C
  C32      1.0000 0.74246  0.20303  0.74643  Biso   1.000  C
  C33      1.0000 0.79697  0.53942  0.74643  Biso   1.000  C
  C34      1.0000 0.12724  0.59088  0.07977  Biso   1.000  C
  C35      1.0000 0.40912  0.53637  0.07977  Biso   1.000  C
  C36      1.0000 0.46363  0.87276  0.07977  Biso   1.000  C
  H19      1.0000 0.17130  0.05170  0.55440  Biso   1.000  H
  H20      1.0000 0.94830  0.11960  0.55440  Biso   1.000  H
  H21      1.0000 0.88040  0.82870  0.55440  Biso   1.000  H
  H22      1.0000 0.83797  0.38503  0.88773  Biso   1.000  H
  H23      1.0000 0.61497  0.45293  0.88773  Biso   1.000  H
  H24      1.0000 0.54707  0.16203  0.88773  Biso   1.000  H
  H25      1.0000 0.50463  0.71837  0.22107  Biso   1.000  H
  H26      1.0000 0.28163  0.78627  0.22107  Biso   1.000  H
  H27      1.0000 0.21373  0.49537  0.22107  Biso   1.000  H
  H28      1.0000 0.82870  0.94830  0.44560  Biso   1.000  H
  H29      1.0000 0.05170  0.88040  0.44560  Biso   1.000  H
  H30      1.0000 0.11960  0.17130  0.44560  Biso   1.000  H
  H31      1.0000 0.49537  0.28163  0.77893  Biso   1.000  H
  H32      1.0000 0.71837  0.21373  0.77893  Biso   1.000  H
  H33      1.0000 0.78627  0.50463  0.77893  Biso   1.000  H
  H34      1.0000 0.16203  0.61497  0.11227  Biso   1.000  H
  H35      1.0000 0.38503  0.54707  0.11227  Biso   1.000  H
  H36      1.0000 0.45293  0.83797  0.11227  Biso   1.000  H
  H37      1.0000 0.22120  0.05610  0.62600  Biso   1.000  H
  H38      1.0000 0.94390  0.16510  0.62600  Biso   1.000  H
  H39      1.0000 0.83490  0.77880  0.62600  Biso   1.000  H
  H40      1.0000 0.88787  0.38943  0.95933  Biso   1.000  H
  H41      1.0000 0.61057  0.49843  0.95933  Biso   1.000  H
  H42      1.0000 0.50157  0.11213  0.95933  Biso   1.000  H
  H43      1.0000 0.55453  0.72277  0.29267  Biso   1.000  H
  H44      1.0000 0.27723  0.83177  0.29267  Biso   1.000  H
  H45      1.0000 0.16823  0.44547  0.29267  Biso   1.000  H
  H46      1.0000 0.77880  0.94390  0.37400  Biso   1.000  H
  H47      1.0000 0.05610  0.83490  0.37400  Biso   1.000  H
  H48      1.0000 0.16510  0.22120  0.37400  Biso   1.000  H
  H49      1.0000 0.44547  0.27723  0.70733  Biso   1.000  H
  H50      1.0000 0.72277  0.16823  0.70733  Biso   1.000  H
  H51      1.0000 0.83177  0.55453  0.70733  Biso   1.000  H
  H52      1.0000 0.11213  0.61057  0.04067  Biso   1.000  H
  H53      1.0000 0.38943  0.50157  0.04067  Biso   1.000  H
  H54      1.0000 0.49843  0.88787  0.04067  Biso   1.000  H
  C37      1.0000 0.15741  0.13420  0.88100  Biso   1.000  C
  C38      1.0000 0.86580  0.02321  0.88100  Biso   1.000  C
  C39      1.0000 0.97679  0.84259  0.88100  Biso   1.000  C
  C40      1.0000 0.82408  0.46753  0.21433  Biso   1.000  C
  C41      1.0000 0.53247  0.35654  0.21433  Biso   1.000  C
  C42      1.0000 0.64346  0.17592  0.21433  Biso   1.000  C
  C43      1.0000 0.49074  0.80087  0.54767  Biso   1.000  C
  C44      1.0000 0.19913  0.68988  0.54767  Biso   1.000  C
  C45      1.0000 0.31012  0.50926  0.54767  Biso   1.000  C
  C46      1.0000 0.84259  0.86580  0.11900  Biso   1.000  C
  C47      1.0000 0.13420  0.97679  0.11900  Biso   1.000  C
  C48      1.0000 0.02321  0.15741  0.11900  Biso   1.000  C
  C49      1.0000 0.50926  0.19913  0.45233  Biso   1.000  C
  C50      1.0000 0.80087  0.31012  0.45233  Biso   1.000  C
  C51      1.0000 0.68988  0.49074  0.45233  Biso   1.000  C
  C52      1.0000 0.17592  0.53247  0.78567  Biso   1.000  C
  C53      1.0000 0.46753  0.64346  0.78567  Biso   1.000  C
  C54      1.0000 0.35654  0.82408  0.78567  Biso   1.000  C
  C55      1.0000 0.06972  0.07757  0.71390  Biso   1.000  C
  C56      1.0000 0.92243  0.99215  0.71390  Biso   1.000  C
  C57      1.0000 0.00785  0.93028  0.71390  Biso   1.000  C
  C58      1.0000 0.73639  0.41090  0.04723  Biso   1.000  C
  C59      1.0000 0.58910  0.32548  0.04723  Biso   1.000  C
  C60      1.0000 0.67452  0.26361  0.04723  Biso   1.000  C
  C61      1.0000 0.40305  0.74424  0.38057  Biso   1.000  C
  C62      1.0000 0.25576  0.65882  0.38057  Biso   1.000  C
  C63      1.0000 0.34118  0.59695  0.38057  Biso   1.000  C
  C64      1.0000 0.93028  0.92243  0.28610  Biso   1.000  C
  C65      1.0000 0.07757  0.00785  0.28610  Biso   1.000  C
  C66      1.0000 0.99215  0.06972  0.28610  Biso   1.000  C
  C67      1.0000 0.59695  0.25576  0.61943  Biso   1.000  C
  C68      1.0000 0.74424  0.34118  0.61943  Biso   1.000  C
  C69      1.0000 0.65882  0.40305  0.61943  Biso   1.000  C
  C70      1.0000 0.26361  0.58910  0.95277  Biso   1.000  C
  C71      1.0000 0.41090  0.67452  0.95277  Biso   1.000  C
  C72      1.0000 0.32548  0.73639  0.95277  Biso   1.000  C
  H55      1.0000 0.03970  0.05820  0.65730  Biso   1.000  H
  H56      1.0000 0.94180  0.98150  0.65730  Biso   1.000  H
  H57      1.0000 0.01850  0.96030  0.65730  Biso   1.000  H
  H58      1.0000 0.70637  0.39153  0.99063  Biso   1.000  H
  H59      1.0000 0.60847  0.31483  0.99063  Biso   1.000  H
  H60      1.0000 0.68517  0.29363  0.99063  Biso   1.000  H
  H61      1.0000 0.37303  0.72487  0.32397  Biso   1.000  H
  H62      1.0000 0.27513  0.64817  0.32397  Biso   1.000  H
  H63      1.0000 0.35183  0.62697  0.32397  Biso   1.000  H
  H64      1.0000 0.96030  0.94180  0.34270  Biso   1.000  H
  H65      1.0000 0.05820  0.01850  0.34270  Biso   1.000  H
  H66      1.0000 0.98150  0.03970  0.34270  Biso   1.000  H
  H67      1.0000 0.62697  0.27513  0.67603  Biso   1.000  H
  H68      1.0000 0.72487  0.35183  0.67603  Biso   1.000  H
  H69      1.0000 0.64817  0.37303  0.67603  Biso   1.000  H
  H70      1.0000 0.29363  0.60847  0.00937  Biso   1.000  H
  H71      1.0000 0.39153  0.68517  0.00937  Biso   1.000  H
  H72      1.0000 0.31483  0.70637  0.00937  Biso   1.000  H
  C73      1.0000 0.11247  0.07752  0.67240  Biso   1.000  C
  C74      1.0000 0.92248  0.03495  0.67240  Biso   1.000  C
  C75      1.0000 0.96505  0.88753  0.67240  Biso   1.000  C
  C76      1.0000 0.77914  0.41085  0.00573  Biso   1.000  C
  C77      1.0000 0.58915  0.36828  0.00573  Biso   1.000  C
  C78      1.0000 0.63172  0.22086  0.00573  Biso   1.000  C
  C79      1.0000 0.44580  0.74419  0.33907  Biso   1.000  C
  C80      1.0000 0.25581  0.70162  0.33907  Biso   1.000  C
  C81      1.0000 0.29838  0.55420  0.33907  Biso   1.000  C
  C82      1.0000 0.88753  0.92248  0.32760  Biso   1.000  C
  C83      1.0000 0.07752  0.96505  0.32760  Biso   1.000  C
  C84      1.0000 0.03495  0.11247  0.32760  Biso   1.000  C
  C85      1.0000 0.55420  0.25581  0.66093  Biso   1.000  C
  C86      1.0000 0.74419  0.29838  0.66093  Biso   1.000  C
  C87      1.0000 0.70162  0.44580  0.66093  Biso   1.000  C
  C88      1.0000 0.22086  0.58915  0.99427  Biso   1.000  C
  C89      1.0000 0.41085  0.63172  0.99427  Biso   1.000  C
  C90      1.0000 0.36828  0.77914  0.99427  Biso   1.000  C
  H73      1.0000 0.11170  0.05810  0.58720  Biso   1.000  H
  H74      1.0000 0.94190  0.05360  0.58720  Biso   1.000  H
  H75      1.0000 0.94640  0.88830  0.58720  Biso   1.000  H
  H76      1.0000 0.77837  0.39143  0.92053  Biso   1.000  H
  H77      1.0000 0.60857  0.38693  0.92053  Biso   1.000  H
  H78      1.0000 0.61307  0.22163  0.92053  Biso   1.000  H
  H79      1.0000 0.44503  0.72477  0.25387  Biso   1.000  H
  H80      1.0000 0.27523  0.72027  0.25387  Biso   1.000  H
  H81      1.0000 0.27973  0.55497  0.25387  Biso   1.000  H
  H82      1.0000 0.88830  0.94190  0.41280  Biso   1.000  H
  H83      1.0000 0.05810  0.94640  0.41280  Biso   1.000  H
  H84      1.0000 0.05360  0.11170  0.41280  Biso   1.000  H
  H85      1.0000 0.55497  0.27523  0.74613  Biso   1.000  H
  H86      1.0000 0.72477  0.27973  0.74613  Biso   1.000  H
  H87      1.0000 0.72027  0.44503  0.74613  Biso   1.000  H
  H88      1.0000 0.22163  0.60857  0.07947  Biso   1.000  H
  H89      1.0000 0.39143  0.61307  0.07947  Biso   1.000  H
  H90      1.0000 0.38693  0.77837  0.07947  Biso   1.000  H
  C91      1.0000 0.24785  0.13693  0.79680  Biso   1.000  C
  C92      1.0000 0.86307  0.11092  0.79680  Biso   1.000  C
  C93      1.0000 0.88908  0.75215  0.79680  Biso   1.000  C
  C94      1.0000 0.91452  0.47026  0.13013  Biso   1.000  C
  C95      1.0000 0.52974  0.44425  0.13013  Biso   1.000  C
  C96      1.0000 0.55575  0.08548  0.13013  Biso   1.000  C
  C97      1.0000 0.58118  0.80360  0.46347  Biso   1.000  C
  C98      1.0000 0.19640  0.77759  0.46347  Biso   1.000  C
  C99      1.0000 0.22241  0.41882  0.46347  Biso   1.000  C
  C100     1.0000 0.75215  0.86307  0.20320  Biso   1.000  C
  C101     1.0000 0.13693  0.88908  0.20320  Biso   1.000  C
  C102     1.0000 0.11092  0.24785  0.20320  Biso   1.000  C
  C103     1.0000 0.41882  0.19640  0.53653  Biso   1.000  C
  C104     1.0000 0.80360  0.22241  0.53653  Biso   1.000  C
  C105     1.0000 0.77759  0.58118  0.53653  Biso   1.000  C
  C106     1.0000 0.08548  0.52974  0.86987  Biso   1.000  C
  C107     1.0000 0.47026  0.55575  0.86987  Biso   1.000  C
  C108     1.0000 0.44425  0.91452  0.86987  Biso   1.000  C
  C109     1.0000 0.20417  0.10743  0.71330  Biso   1.000  C
  C110     1.0000 0.89257  0.09674  0.71330  Biso   1.000  C
  C111     1.0000 0.90326  0.79583  0.71330  Biso   1.000  C
  C112     1.0000 0.87084  0.44076  0.04663  Biso   1.000  C
  C113     1.0000 0.55924  0.43007  0.04663  Biso   1.000  C
  C114     1.0000 0.56993  0.12916  0.04663  Biso   1.000  C
  C115     1.0000 0.53750  0.77410  0.37997  Biso   1.000  C
  C116     1.0000 0.22590  0.76341  0.37997  Biso   1.000  C
  C117     1.0000 0.23659  0.46250  0.37997  Biso   1.000  C
  C118     1.0000 0.79583  0.89257  0.28670  Biso   1.000  C
  C119     1.0000 0.10743  0.90326  0.28670  Biso   1.000  C
  C120     1.0000 0.09674  0.20417  0.28670  Biso   1.000  C
  C121     1.0000 0.46250  0.22590  0.62003  Biso   1.000  C
  C122     1.0000 0.77410  0.23659  0.62003  Biso   1.000  C
  C123     1.0000 0.76341  0.53750  0.62003  Biso   1.000  C
  C124     1.0000 0.12916  0.55924  0.95337  Biso   1.000  C
  C125     1.0000 0.44076  0.56993  0.95337  Biso   1.000  C
  C126     1.0000 0.43007  0.87084  0.95337  Biso   1.000  C
  C127     1.0000 0.15828  0.10601  0.75400  Biso   1.000  C
  C128     1.0000 0.89399  0.05227  0.75400  Biso   1.000  C
  C129     1.0000 0.94773  0.84172  0.75400  Biso   1.000  C
  C130     1.0000 0.82495  0.43934  0.08733  Biso   1.000  C
  C131     1.0000 0.56066  0.38560  0.08733  Biso   1.000  C
  C132     1.0000 0.61440  0.17505  0.08733  Biso   1.000  C
  C133     1.0000 0.49161  0.77268  0.42067  Biso   1.000  C
  C134     1.0000 0.22732  0.71894  0.42067  Biso   1.000  C
  C135     1.0000 0.28106  0.50839  0.42067  Biso   1.000  C
  C136     1.0000 0.84172  0.89399  0.24600  Biso   1.000  C
  C137     1.0000 0.10601  0.94773  0.24600  Biso   1.000  C
  C138     1.0000 0.05227  0.15828  0.24600  Biso   1.000  C
  C139     1.0000 0.50839  0.22732  0.57933  Biso   1.000  C
  C140     1.0000 0.77268  0.28106  0.57933  Biso   1.000  C
  C141     1.0000 0.71894  0.49161  0.57933  Biso   1.000  C
  C142     1.0000 0.17505  0.56066  0.91267  Biso   1.000  C
  C143     1.0000 0.43934  0.61440  0.91267  Biso   1.000  C
  C144     1.0000 0.38560  0.82495  0.91267  Biso   1.000  C
  C145     1.0000 0.21656  0.13756  0.38740  Biso   1.000  C
  C146     1.0000 0.86244  0.07900  0.38740  Biso   1.000  C
  C147     1.0000 0.92100  0.78344  0.38740  Biso   1.000  C
  C148     1.0000 0.88323  0.47089  0.72073  Biso   1.000  C
  C149     1.0000 0.52911  0.41233  0.72073  Biso   1.000  C
  C150     1.0000 0.58767  0.11677  0.72073  Biso   1.000  C
  C151     1.0000 0.54989  0.80423  0.05407  Biso   1.000  C
  C152     1.0000 0.19577  0.74567  0.05407  Biso   1.000  C
  C153     1.0000 0.25433  0.45011  0.05407  Biso   1.000  C
  C154     1.0000 0.78344  0.86244  0.61260  Biso   1.000  C
  C155     1.0000 0.13756  0.92100  0.61260  Biso   1.000  C
  C156     1.0000 0.07900  0.21656  0.61260  Biso   1.000  C
  C157     1.0000 0.45011  0.19577  0.94593  Biso   1.000  C
  C158     1.0000 0.80423  0.25433  0.94593  Biso   1.000  C
  C159     1.0000 0.74567  0.54989  0.94593  Biso   1.000  C
  C160     1.0000 0.11677  0.52911  0.27927  Biso   1.000  C
  C161     1.0000 0.47089  0.58767  0.27927  Biso   1.000  C
  C162     1.0000 0.41233  0.88323  0.27927  Biso   1.000  C
  H91      1.0000 0.18900  0.13460  0.45270  Biso   1.000  H
  H92      1.0000 0.86540  0.05440  0.45270  Biso   1.000  H
  H93      1.0000 0.94560  0.81100  0.45270  Biso   1.000  H
  H94      1.0000 0.85567  0.46793  0.78603  Biso   1.000  H
  H95      1.0000 0.53207  0.38773  0.78603  Biso   1.000  H
  H96      1.0000 0.61227  0.14433  0.78603  Biso   1.000  H
  H97      1.0000 0.52233  0.80127  0.11937  Biso   1.000  H
  H98      1.0000 0.19873  0.72107  0.11937  Biso   1.000  H
  H99      1.0000 0.27893  0.47767  0.11937  Biso   1.000  H
  H100     1.0000 0.81100  0.86540  0.54730  Biso   1.000  H
  H101     1.0000 0.13460  0.94560  0.54730  Biso   1.000  H
  H102     1.0000 0.05440  0.18900  0.54730  Biso   1.000  H
  H103     1.0000 0.47767  0.19873  0.88063  Biso   1.000  H
  H104     1.0000 0.80127  0.27893  0.88063  Biso   1.000  H
  H105     1.0000 0.72107  0.52233  0.88063  Biso   1.000  H
  H106     1.0000 0.14433  0.53207  0.21397  Biso   1.000  H
  H107     1.0000 0.46793  0.61227  0.21397  Biso   1.000  H
  H108     1.0000 0.38773  0.85567  0.21397  Biso   1.000  H
  H109     1.0000 0.20260  0.12530  0.28450  Biso   1.000  H
  H110     1.0000 0.87470  0.07730  0.28450  Biso   1.000  H
  H111     1.0000 0.92270  0.79740  0.28450  Biso   1.000  H
  H112     1.0000 0.86927  0.45863  0.61783  Biso   1.000  H
  H113     1.0000 0.54137  0.41063  0.61783  Biso   1.000  H
  H114     1.0000 0.58937  0.13073  0.61783  Biso   1.000  H
  H115     1.0000 0.53593  0.79197  0.95117  Biso   1.000  H
  H116     1.0000 0.20803  0.74397  0.95117  Biso   1.000  H
  H117     1.0000 0.25603  0.46407  0.95117  Biso   1.000  H
  H118     1.0000 0.79740  0.87470  0.71550  Biso   1.000  H
  H119     1.0000 0.12530  0.92270  0.71550  Biso   1.000  H
  H120     1.0000 0.07730  0.20260  0.71550  Biso   1.000  H
  H121     1.0000 0.46407  0.20803  0.04883  Biso   1.000  H
  H122     1.0000 0.79197  0.25603  0.04883  Biso   1.000  H
  H123     1.0000 0.74397  0.53593  0.04883  Biso   1.000  H
  H124     1.0000 0.13073  0.54137  0.38217  Biso   1.000  H
  H125     1.0000 0.45863  0.58937  0.38217  Biso   1.000  H
  H126     1.0000 0.41063  0.86927  0.38217  Biso   1.000  H
  C163     1.0000 0.25670  0.19188  0.37690  Biso   1.000  C
  C164     1.0000 0.80812  0.06482  0.37690  Biso   1.000  C
  C165     1.0000 0.93518  0.74330  0.37690  Biso   1.000  C
  C166     1.0000 0.92337  0.52521  0.71023  Biso   1.000  C
  C167     1.0000 0.47479  0.39815  0.71023  Biso   1.000  C
  C168     1.0000 0.60185  0.07663  0.71023  Biso   1.000  C
  C169     1.0000 0.59003  0.85855  0.04357  Biso   1.000  C
  C170     1.0000 0.14145  0.73149  0.04357  Biso   1.000  C
  C171     1.0000 0.26851  0.40997  0.04357  Biso   1.000  C
  C172     1.0000 0.74330  0.80812  0.62310  Biso   1.000  C
  C173     1.0000 0.19188  0.93518  0.62310  Biso   1.000  C
  C174     1.0000 0.06482  0.25670  0.62310  Biso   1.000  C
  C175     1.0000 0.40997  0.14145  0.95643  Biso   1.000  C
  C176     1.0000 0.85855  0.26851  0.95643  Biso   1.000  C
  C177     1.0000 0.73149  0.59003  0.95643  Biso   1.000  C
  C178     1.0000 0.07663  0.47479  0.28977  Biso   1.000  C
  C179     1.0000 0.52521  0.60185  0.28977  Biso   1.000  C
  C180     1.0000 0.39815  0.92337  0.28977  Biso   1.000  C
  C181     1.0000 0.06943  0.10588  0.83950  Biso   1.000  C
  C182     1.0000 0.89412  0.96355  0.83950  Biso   1.000  C
  C183     1.0000 0.03645  0.93057  0.83950  Biso   1.000  C
  C184     1.0000 0.73610  0.43921  0.17283  Biso   1.000  C
  C185     1.0000 0.56079  0.29688  0.17283  Biso   1.000  C
  C186     1.0000 0.70312  0.26390  0.17283  Biso   1.000  C
  C187     1.0000 0.40276  0.77255  0.50617  Biso   1.000  C
  C188     1.0000 0.22745  0.63022  0.50617  Biso   1.000  C
  C189     1.0000 0.36978  0.59724  0.50617  Biso   1.000  C
  C190     1.0000 0.93057  0.89412  0.16050  Biso   1.000  C
  C191     1.0000 0.10588  0.03645  0.16050  Biso   1.000  C
  C192     1.0000 0.96355  0.06943  0.16050  Biso   1.000  C
  C193     1.0000 0.59724  0.22745  0.49383  Biso   1.000  C
  C194     1.0000 0.77255  0.36978  0.49383  Biso   1.000  C
  C195     1.0000 0.63022  0.40276  0.49383  Biso   1.000  C
  C196     1.0000 0.26390  0.56079  0.82717  Biso   1.000  C
  C197     1.0000 0.43921  0.70312  0.82717  Biso   1.000  C
  C198     1.0000 0.29688  0.73610  0.82717  Biso   1.000  C
  H127     1.0000 0.03940  0.10550  0.86780  Biso   1.000  H
  H128     1.0000 0.89450  0.93390  0.86780  Biso   1.000  H
  H129     1.0000 0.06610  0.96060  0.86780  Biso   1.000  H
  H130     1.0000 0.70607  0.43883  0.20113  Biso   1.000  H
  H131     1.0000 0.56117  0.26723  0.20113  Biso   1.000  H
  H132     1.0000 0.73277  0.29393  0.20113  Biso   1.000  H
  H133     1.0000 0.37273  0.77217  0.53447  Biso   1.000  H
  H134     1.0000 0.22783  0.60057  0.53447  Biso   1.000  H
  H135     1.0000 0.39943  0.62727  0.53447  Biso   1.000  H
  H136     1.0000 0.96060  0.89450  0.13220  Biso   1.000  H
  H137     1.0000 0.10550  0.06610  0.13220  Biso   1.000  H
  H138     1.0000 0.93390  0.03940  0.13220  Biso   1.000  H
  H139     1.0000 0.62727  0.22783  0.46553  Biso   1.000  H
  H140     1.0000 0.77217  0.39943  0.46553  Biso   1.000  H
  H141     1.0000 0.60057  0.37273  0.46553  Biso   1.000  H
  H142     1.0000 0.29393  0.56117  0.79887  Biso   1.000  H
  H143     1.0000 0.43883  0.73277  0.79887  Biso   1.000  H
  H144     1.0000 0.26723  0.70607  0.79887  Biso   1.000  H
  C199     1.0000 0.20221  0.16258  0.96570  Biso   1.000  C
  C200     1.0000 0.83742  0.03963  0.96570  Biso   1.000  C
  C201     1.0000 0.96037  0.79779  0.96570  Biso   1.000  C
  C202     1.0000 0.86888  0.49591  0.29903  Biso   1.000  C
  C203     1.0000 0.50409  0.37296  0.29903  Biso   1.000  C
  C204     1.0000 0.62704  0.13112  0.29903  Biso   1.000  C
  C205     1.0000 0.53554  0.82925  0.63237  Biso   1.000  C
  C206     1.0000 0.17075  0.70630  0.63237  Biso   1.000  C
  C207     1.0000 0.29370  0.46446  0.63237  Biso   1.000  C
  C208     1.0000 0.79779  0.83742  0.03430  Biso   1.000  C
  C209     1.0000 0.16258  0.96037  0.03430  Biso   1.000  C
  C210     1.0000 0.03963  0.20221  0.03430  Biso   1.000  C
  C211     1.0000 0.46446  0.17075  0.36763  Biso   1.000  C
  C212     1.0000 0.82925  0.29370  0.36763  Biso   1.000  C
  C213     1.0000 0.70630  0.53554  0.36763  Biso   1.000  C
  C214     1.0000 0.13112  0.50409  0.70097  Biso   1.000  C
  C215     1.0000 0.49591  0.62704  0.70097  Biso   1.000  C
  C216     1.0000 0.37296  0.86888  0.70097  Biso   1.000  C
  H145     1.0000 0.20200  0.18120  0.05170  Biso   1.000  H
  H146     1.0000 0.81880  0.02080  0.05170  Biso   1.000  H
  H147     1.0000 0.97920  0.79800  0.05170  Biso   1.000  H
  H148     1.0000 0.86867  0.51453  0.38503  Biso   1.000  H
  H149     1.0000 0.48547  0.35413  0.38503  Biso   1.000  H
  H150     1.0000 0.64587  0.13133  0.38503  Biso   1.000  H
  H151     1.0000 0.53533  0.84787  0.71837  Biso   1.000  H
  H152     1.0000 0.15213  0.68747  0.71837  Biso   1.000  H
  H153     1.0000 0.31253  0.46467  0.71837  Biso   1.000  H
  H154     1.0000 0.79800  0.81880  0.94830  Biso   1.000  H
  H155     1.0000 0.18120  0.97920  0.94830  Biso   1.000  H
  H156     1.0000 0.02080  0.20200  0.94830  Biso   1.000  H
  H157     1.0000 0.46467  0.15213  0.28163  Biso   1.000  H
  H158     1.0000 0.84787  0.31253  0.28163  Biso   1.000  H
  H159     1.0000 0.68747  0.53533  0.28163  Biso   1.000  H
  H160     1.0000 0.13133  0.48547  0.61497  Biso   1.000  H
  H161     1.0000 0.51453  0.64587  0.61497  Biso   1.000  H
  H162     1.0000 0.35413  0.86867  0.61497  Biso   1.000  H
  C217     1.0000 0.23653  0.07043  0.33810  Biso   1.000  C
  C218     1.0000 0.92957  0.16610  0.33810  Biso   1.000  C
  C219     1.0000 0.83390  0.76347  0.33810  Biso   1.000  C
  C220     1.0000 0.90320  0.40376  0.67143  Biso   1.000  C
  C221     1.0000 0.59624  0.49943  0.67143  Biso   1.000  C
  C222     1.0000 0.50057  0.09680  0.67143  Biso   1.000  C
  C223     1.0000 0.56986  0.73710  0.00477  Biso   1.000  C
  C224     1.0000 0.26290  0.83277  0.00477  Biso   1.000  C
  C225     1.0000 0.16723  0.43014  0.00477  Biso   1.000  C
  C226     1.0000 0.76347  0.92957  0.66190  Biso   1.000  C
  C227     1.0000 0.07043  0.83390  0.66190  Biso   1.000  C
  C228     1.0000 0.16610  0.23653  0.66190  Biso   1.000  C
  C229     1.0000 0.43014  0.26290  0.99523  Biso   1.000  C
  C230     1.0000 0.73710  0.16723  0.99523  Biso   1.000  C
  C231     1.0000 0.83277  0.56986  0.99523  Biso   1.000  C
  C232     1.0000 0.09680  0.59624  0.32857  Biso   1.000  C
  C233     1.0000 0.40376  0.50057  0.32857  Biso   1.000  C
  C234     1.0000 0.49943  0.90320  0.32857  Biso   1.000  C
  H163     1.0000 0.24560  0.08670  0.23680  Biso   1.000  H
  H164     1.0000 0.91330  0.15890  0.23680  Biso   1.000  H
  H165     1.0000 0.84110  0.75440  0.23680  Biso   1.000  H
  H166     1.0000 0.91227  0.42003  0.57013  Biso   1.000  H
  H167     1.0000 0.57997  0.49223  0.57013  Biso   1.000  H
  H168     1.0000 0.50777  0.08773  0.57013  Biso   1.000  H
  H169     1.0000 0.57893  0.75337  0.90347  Biso   1.000  H
  H170     1.0000 0.24663  0.82557  0.90347  Biso   1.000  H
  H171     1.0000 0.17443  0.42107  0.90347  Biso   1.000  H
  H172     1.0000 0.75440  0.91330  0.76320  Biso   1.000  H
  H173     1.0000 0.08670  0.84110  0.76320  Biso   1.000  H
  H174     1.0000 0.15890  0.24560  0.76320  Biso   1.000  H
  H175     1.0000 0.42107  0.24663  0.09653  Biso   1.000  H
  H176     1.0000 0.75337  0.17443  0.09653  Biso   1.000  H
  H177     1.0000 0.82557  0.57893  0.09653  Biso   1.000  H
  H178     1.0000 0.08773  0.57997  0.42987  Biso   1.000  H
  H179     1.0000 0.42003  0.50777  0.42987  Biso   1.000  H
  H180     1.0000 0.49223  0.91227  0.42987  Biso   1.000  H
  H181     1.0000 0.20280  0.04020  0.33040  Biso   1.000  H
  H182     1.0000 0.95980  0.16260  0.33040  Biso   1.000  H
  H183     1.0000 0.83740  0.79720  0.33040  Biso   1.000  H
  H184     1.0000 0.86947  0.37353  0.66373  Biso   1.000  H
  H185     1.0000 0.62647  0.49593  0.66373  Biso   1.000  H
  H186     1.0000 0.50407  0.13053  0.66373  Biso   1.000  H
  H187     1.0000 0.53613  0.70687  0.99707  Biso   1.000  H
  H188     1.0000 0.29313  0.82927  0.99707  Biso   1.000  H
  H189     1.0000 0.17073  0.46387  0.99707  Biso   1.000  H
  H190     1.0000 0.79720  0.95980  0.66960  Biso   1.000  H
  H191     1.0000 0.04020  0.83740  0.66960  Biso   1.000  H
  H192     1.0000 0.16260  0.20280  0.66960  Biso   1.000  H
  H193     1.0000 0.46387  0.29313  0.00293  Biso   1.000  H
  H194     1.0000 0.70687  0.17073  0.00293  Biso   1.000  H
  H195     1.0000 0.82927  0.53613  0.00293  Biso   1.000  H
  H196     1.0000 0.13053  0.62647  0.33627  Biso   1.000  H
  H197     1.0000 0.37353  0.50407  0.33627  Biso   1.000  H
  H198     1.0000 0.49593  0.86947  0.33627  Biso   1.000  H
  C235     1.0000 0.11227  0.13358  0.91950  Biso   1.000  C
  C236     1.0000 0.86642  0.97869  0.91950  Biso   1.000  C
  C237     1.0000 0.02131  0.88773  0.91950  Biso   1.000  C
  C238     1.0000 0.77894  0.46691  0.25283  Biso   1.000  C
  C239     1.0000 0.53309  0.31202  0.25283  Biso   1.000  C
  C240     1.0000 0.68798  0.22106  0.25283  Biso   1.000  C
  C241     1.0000 0.44560  0.80025  0.58617  Biso   1.000  C
  C242     1.0000 0.19975  0.64536  0.58617  Biso   1.000  C
  C243     1.0000 0.35464  0.55440  0.58617  Biso   1.000  C
  C244     1.0000 0.88773  0.86642  0.08050  Biso   1.000  C
  C245     1.0000 0.13358  0.02131  0.08050  Biso   1.000  C
  C246     1.0000 0.97869  0.11227  0.08050  Biso   1.000  C
  C247     1.0000 0.55440  0.19975  0.41383  Biso   1.000  C
  C248     1.0000 0.80025  0.35464  0.41383  Biso   1.000  C
  C249     1.0000 0.64536  0.44560  0.41383  Biso   1.000  C
  C250     1.0000 0.22106  0.53309  0.74717  Biso   1.000  C
  C251     1.0000 0.46691  0.68798  0.74717  Biso   1.000  C
  C252     1.0000 0.31202  0.77894  0.74717  Biso   1.000  C
  H199     1.0000 0.11210  0.15300  0.00340  Biso   1.000  H
  H200     1.0000 0.84700  0.95910  0.00340  Biso   1.000  H
  H201     1.0000 0.04090  0.88790  0.00340  Biso   1.000  H
  H202     1.0000 0.77877  0.48633  0.33673  Biso   1.000  H
  H203     1.0000 0.51367  0.29243  0.33673  Biso   1.000  H
  H204     1.0000 0.70757  0.22123  0.33673  Biso   1.000  H
  H205     1.0000 0.44543  0.81967  0.67007  Biso   1.000  H
  H206     1.0000 0.18033  0.62577  0.67007  Biso   1.000  H
  H207     1.0000 0.37423  0.55457  0.67007  Biso   1.000  H
  H208     1.0000 0.88790  0.84700  0.99660  Biso   1.000  H
  H209     1.0000 0.15300  0.04090  0.99660  Biso   1.000  H
  H210     1.0000 0.95910  0.11210  0.99660  Biso   1.000  H
  H211     1.0000 0.55457  0.18033  0.32993  Biso   1.000  H
  H212     1.0000 0.81967  0.37423  0.32993  Biso   1.000  H
  H213     1.0000 0.62577  0.44543  0.32993  Biso   1.000  H
  H214     1.0000 0.22123  0.51367  0.66327  Biso   1.000  H
  H215     1.0000 0.48633  0.70757  0.66327  Biso   1.000  H
  H216     1.0000 0.29243  0.77877  0.66327  Biso   1.000  H
  O37      1.0000 0.30986  0.08551  0.47379  Biso   1.000  O
  O38      1.0000 0.91449  0.22435  0.47379  Biso   1.000  O
  O39      1.0000 0.77565  0.69014  0.47379  Biso   1.000  O
  O40      1.0000 0.97653  0.41884  0.80712  Biso   1.000  O
  O41      1.0000 0.58116  0.55768  0.80712  Biso   1.000  O
  O42      1.0000 0.44232  0.02347  0.80712  Biso   1.000  O
  O43      1.0000 0.64319  0.75218  0.14046  Biso   1.000  O
  O44      1.0000 0.24782  0.89102  0.14046  Biso   1.000  O
  O45      1.0000 0.10898  0.35681  0.14046  Biso   1.000  O
  O46      1.0000 0.69014  0.91449  0.52621  Biso   1.000  O
  O47      1.0000 0.08551  0.77565  0.52621  Biso   1.000  O
  O48      1.0000 0.22435  0.30986  0.52621  Biso   1.000  O
  O49      1.0000 0.35681  0.24782  0.85954  Biso   1.000  O
  O50      1.0000 0.75218  0.10898  0.85954  Biso   1.000  O
  O51      1.0000 0.89102  0.64319  0.85954  Biso   1.000  O
  O52      1.0000 0.02347  0.58116  0.19288  Biso   1.000  O
  O53      1.0000 0.41884  0.44232  0.19288  Biso   1.000  O
  O54      1.0000 0.55768  0.97653  0.19288  Biso   1.000  O
  O55      1.0000 0.27060  0.01609  0.33400  Biso   1.000  O
  O56      1.0000 0.98391  0.25451  0.33400  Biso   1.000  O
  O57      1.0000 0.74549  0.72940  0.33400  Biso   1.000  O
  O58      1.0000 0.93727  0.34942  0.66733  Biso   1.000  O
  O59      1.0000 0.65058  0.58784  0.66733  Biso   1.000  O
  O60      1.0000 0.41216  0.06273  0.66733  Biso   1.000  O
  O61      1.0000 0.60393  0.68276  0.00067  Biso   1.000  O
  O62      1.0000 0.31724  0.92118  0.00067  Biso   1.000  O
  O63      1.0000 0.07882  0.39607  0.00067  Biso   1.000  O
  O64      1.0000 0.72940  0.98391  0.66600  Biso   1.000  O
  O65      1.0000 0.01609  0.74549  0.66600  Biso   1.000  O
  O66      1.0000 0.25451  0.27060  0.66600  Biso   1.000  O
  O67      1.0000 0.39607  0.31724  0.99933  Biso   1.000  O
  O68      1.0000 0.68276  0.07882  0.99933  Biso   1.000  O
  O69      1.0000 0.92118  0.60393  0.99933  Biso   1.000  O
  O70      1.0000 0.06273  0.65058  0.33267  Biso   1.000  O
  O71      1.0000 0.34942  0.41216  0.33267  Biso   1.000  O
  O72      1.0000 0.58784  0.93727  0.33267  Biso   1.000  O
  O73      1.0000 0.24541  0.22155  0.32200  Biso   1.000  O
  O74      1.0000 0.77845  0.02386  0.32200  Biso   1.000  O
  O75      1.0000 0.97614  0.75459  0.32200  Biso   1.000  O
  O76      1.0000 0.91208  0.55488  0.65533  Biso   1.000  O
  O77      1.0000 0.44512  0.35719  0.65533  Biso   1.000  O
  O78      1.0000 0.64281  0.08792  0.65533  Biso   1.000  O
  O79      1.0000 0.57874  0.88822  0.98867  Biso   1.000  O
  O80      1.0000 0.11178  0.69053  0.98867  Biso   1.000  O
  O81      1.0000 0.30947  0.42126  0.98867  Biso   1.000  O
  O82      1.0000 0.75459  0.77845  0.67800  Biso   1.000  O
  O83      1.0000 0.22155  0.97614  0.67800  Biso   1.000  O
  O84      1.0000 0.02386  0.24541  0.67800  Biso   1.000  O
  O85      1.0000 0.42126  0.11178  0.01133  Biso   1.000  O
  O86      1.0000 0.88822  0.30947  0.01133  Biso   1.000  O
  O87      1.0000 0.69053  0.57874  0.01133  Biso   1.000  O
  O88      1.0000 0.08792  0.44512  0.34467  Biso   1.000  O
  O89      1.0000 0.55488  0.64281  0.34467  Biso   1.000  O
  O90      1.0000 0.35719  0.91208  0.34467  Biso   1.000  O
  C253     1.0000 0.27447  0.05526  0.38550  Biso   1.000  C
  C254     1.0000 0.94474  0.21921  0.38550  Biso   1.000  C
  C255     1.0000 0.78079  0.72553  0.38550  Biso   1.000  C
  C256     1.0000 0.94114  0.38859  0.71883  Biso   1.000  C
  C257     1.0000 0.61141  0.55254  0.71883  Biso   1.000  C
  C258     1.0000 0.44746  0.05886  0.71883  Biso   1.000  C
  C259     1.0000 0.60780  0.72193  0.05217  Biso   1.000  C
  C260     1.0000 0.27807  0.88588  0.05217  Biso   1.000  C
  C261     1.0000 0.11412  0.39220  0.05217  Biso   1.000  C
  C262     1.0000 0.72553  0.94474  0.61450  Biso   1.000  C
  C263     1.0000 0.05526  0.78079  0.61450  Biso   1.000  C
  C264     1.0000 0.21921  0.27447  0.61450  Biso   1.000  C
  C265     1.0000 0.39220  0.27807  0.94783  Biso   1.000  C
  C266     1.0000 0.72193  0.11412  0.94783  Biso   1.000  C
  C267     1.0000 0.88588  0.60780  0.94783  Biso   1.000  C
  C268     1.0000 0.05886  0.61141  0.28117  Biso   1.000  C
  C269     1.0000 0.38859  0.44746  0.28117  Biso   1.000  C
  C270     1.0000 0.55254  0.94114  0.28117  Biso   1.000  C
  K1       1.0000 0.35119  0.28991  0.58033  Biso   1.000  K
  K2       1.0000 0.71009  0.06128  0.58033  Biso   1.000  K
  K3       1.0000 0.93872  0.64881  0.58033  Biso   1.000  K
  K4       1.0000 0.01786  0.62324  0.91366  Biso   1.000  K
  K5       1.0000 0.37676  0.39461  0.91366  Biso   1.000  K
  K6       1.0000 0.60539  0.98214  0.91366  Biso   1.000  K
  K7       1.0000 0.68452  0.95658  0.24700  Biso   1.000  K
  K8       1.0000 0.04342  0.72795  0.24700  Biso   1.000  K
  K9       1.0000 0.27205  0.31548  0.24700  Biso   1.000  K
  K10      1.0000 0.64881  0.71009  0.41967  Biso   1.000  K
  K11      1.0000 0.28991  0.93872  0.41967  Biso   1.000  K
  K12      1.0000 0.06128  0.35119  0.41967  Biso   1.000  K
  K13      1.0000 0.31548  0.04342  0.75300  Biso   1.000  K
  K14      1.0000 0.95658  0.27205  0.75300  Biso   1.000  K
  K15      1.0000 0.72795  0.68452  0.75300  Biso   1.000  K
  K16      1.0000 0.98214  0.37676  0.08634  Biso   1.000  K
  K17      1.0000 0.62324  0.60539  0.08634  Biso   1.000  K
  K18      1.0000 0.39461  0.01786  0.08634  Biso   1.000  K
  O91      1.0000 0.37080  0.32975  0.29860  Biso   1.000  O
  O92      1.0000 0.67025  0.04105  0.29860  Biso   1.000  O
  O93      1.0000 0.95895  0.62920  0.29860  Biso   1.000  O
  O94      1.0000 0.03747  0.66308  0.63193  Biso   1.000  O
  O95      1.0000 0.33692  0.37438  0.63193  Biso   1.000  O
  O96      1.0000 0.62562  0.96253  0.63193  Biso   1.000  O
  O97      1.0000 0.70413  0.99642  0.96527  Biso   1.000  O
  O98      1.0000 0.00358  0.70772  0.96527  Biso   1.000  O
  O99      1.0000 0.29228  0.29587  0.96527  Biso   1.000  O
  O100     1.0000 0.62920  0.67025  0.70140  Biso   1.000  O
  O101     1.0000 0.32975  0.95895  0.70140  Biso   1.000  O
  O102     1.0000 0.04105  0.37080  0.70140  Biso   1.000  O
  O103     1.0000 0.29587  0.00358  0.03473  Biso   1.000  O
  O104     1.0000 0.99642  0.29228  0.03473  Biso   1.000  O
  O105     1.0000 0.70772  0.70413  0.03473  Biso   1.000  O
  O106     1.0000 0.96253  0.33692  0.36807  Biso   1.000  O
  O107     1.0000 0.66308  0.62562  0.36807  Biso   1.000  O
  O108     1.0000 0.37438  0.03747  0.36807  Biso   1.000  O
  H217     1.0000 0.38130  0.32130  0.21900  Biso   1.000  H
  H218     1.0000 0.67870  0.06000  0.21900  Biso   1.000  H
  H219     1.0000 0.94000  0.61870  0.21900  Biso   1.000  H
  H220     1.0000 0.04797  0.65463  0.55233  Biso   1.000  H
  H221     1.0000 0.34537  0.39333  0.55233  Biso   1.000  H
  H222     1.0000 0.60667  0.95203  0.55233  Biso   1.000  H
  H223     1.0000 0.71463  0.98797  0.88567  Biso   1.000  H
  H224     1.0000 0.01203  0.72667  0.88567  Biso   1.000  H
  H225     1.0000 0.27333  0.28537  0.88567  Biso   1.000  H
  H226     1.0000 0.61870  0.67870  0.78100  Biso   1.000  H
  H227     1.0000 0.32130  0.94000  0.78100  Biso   1.000  H
  H228     1.0000 0.06000  0.38130  0.78100  Biso   1.000  H
  H229     1.0000 0.28537  0.01203  0.11433  Biso   1.000  H
  H230     1.0000 0.98797  0.27333  0.11433  Biso   1.000  H
  H231     1.0000 0.72667  0.71463  0.11433  Biso   1.000  H
  H232     1.0000 0.95203  0.34537  0.44767  Biso   1.000  H
  H233     1.0000 0.65463  0.60667  0.44767  Biso   1.000  H
  H234     1.0000 0.39333  0.04797  0.44767  Biso   1.000  H
  H235     1.0000 0.38150  0.35740  0.29100  Biso   1.000  H
  H236     1.0000 0.64260  0.02410  0.29100  Biso   1.000  H
  H237     1.0000 0.97590  0.61850  0.29100  Biso   1.000  H
  H238     1.0000 0.04817  0.69073  0.62433  Biso   1.000  H
  H239     1.0000 0.30927  0.35743  0.62433  Biso   1.000  H
  H240     1.0000 0.64257  0.95183  0.62433  Biso   1.000  H
  H241     1.0000 0.71483  0.02407  0.95767  Biso   1.000  H
  H242     1.0000 0.97593  0.69077  0.95767  Biso   1.000  H
  H243     1.0000 0.30923  0.28517  0.95767  Biso   1.000  H
  H244     1.0000 0.61850  0.64260  0.70900  Biso   1.000  H
  H245     1.0000 0.35740  0.97590  0.70900  Biso   1.000  H
  H246     1.0000 0.02410  0.38150  0.70900  Biso   1.000  H
  H247     1.0000 0.28517  0.97593  0.04233  Biso   1.000  H
  H248     1.0000 0.02407  0.30923  0.04233  Biso   1.000  H
  H249     1.0000 0.69077  0.71483  0.04233  Biso   1.000  H
  H250     1.0000 0.95183  0.30927  0.37567  Biso   1.000  H
  H251     1.0000 0.69073  0.64257  0.37567  Biso   1.000  H
  H252     1.0000 0.35743  0.04817  0.37567  Biso   1.000  H
