data_image0
_cell_length_a       22.3534
_cell_length_b       22.3534
_cell_length_c       41.1462
_cell_angle_alpha    90
_cell_angle_beta     90
_cell_angle_gamma    120

_symmetry_space_group_name_H-M    "P 1"
_symmetry_int_tables_number       1

loop_
  _symmetry_equiv_pos_as_xyz
  'x, y, z'

loop_
  _atom_site_label
  _atom_site_occupancy
  _atom_site_fract_x
  _atom_site_fract_y
  _atom_site_fract_z
  _atom_site_thermal_displace_type
  _atom_site_B_iso_or_equiv
  _atom_site_type_symbol
  Cu1      1.0000 0.43100  0.00655  0.15618  Biso   1.000  Cu
  Cu2      1.0000 0.99345  0.42445  0.15618  Biso   1.000  Cu
  Cu3      1.0000 0.57555  0.56900  0.15618  Biso   1.000  Cu
  Cu4      1.0000 0.00655  0.43100  0.34381  Biso   1.000  Cu
  Cu5      1.0000 0.09767  0.33988  0.48952  Biso   1.000  Cu
  Cu6      1.0000 0.66012  0.75778  0.48952  Biso   1.000  Cu
  Cu7      1.0000 0.24222  0.90233  0.48952  Biso   1.000  Cu
  Cu8      1.0000 0.67322  0.76433  0.67715  Biso   1.000  Cu
  Cu9      1.0000 0.76433  0.67322  0.82285  Biso   1.000  Cu
  Cu10     1.0000 0.33988  0.09767  0.01048  Biso   1.000  Cu
  Cu11     1.0000 0.42445  0.99345  0.34381  Biso   1.000  Cu
  Cu12     1.0000 0.56900  0.57555  0.34381  Biso   1.000  Cu
  Cu13     1.0000 0.32678  0.09112  0.82285  Biso   1.000  Cu
  Cu14     1.0000 0.90888  0.23567  0.82285  Biso   1.000  Cu
  Cu15     1.0000 0.75778  0.66012  0.01048  Biso   1.000  Cu
  Cu16     1.0000 0.90233  0.24222  0.01048  Biso   1.000  Cu
  Cu17     1.0000 0.09112  0.32678  0.67715  Biso   1.000  Cu
  Cu18     1.0000 0.23567  0.90888  0.67715  Biso   1.000  Cu
  Cu19     1.0000 0.56900  0.99345  0.84381  Biso   1.000  Cu
  Cu20     1.0000 0.00655  0.57555  0.84381  Biso   1.000  Cu
  Cu21     1.0000 0.42445  0.43100  0.84381  Biso   1.000  Cu
  Cu22     1.0000 0.99345  0.56900  0.65619  Biso   1.000  Cu
  Cu23     1.0000 0.23567  0.32678  0.17715  Biso   1.000  Cu
  Cu24     1.0000 0.67322  0.90888  0.17715  Biso   1.000  Cu
  Cu25     1.0000 0.09112  0.76433  0.17715  Biso   1.000  Cu
  Cu26     1.0000 0.66012  0.90233  0.98952  Biso   1.000  Cu
  Cu27     1.0000 0.90233  0.66012  0.51048  Biso   1.000  Cu
  Cu28     1.0000 0.32678  0.23567  0.32285  Biso   1.000  Cu
  Cu29     1.0000 0.57555  0.00655  0.65619  Biso   1.000  Cu
  Cu30     1.0000 0.43100  0.42445  0.65619  Biso   1.000  Cu
  Cu31     1.0000 0.33988  0.24222  0.51048  Biso   1.000  Cu
  Cu32     1.0000 0.75778  0.09767  0.51048  Biso   1.000  Cu
  Cu33     1.0000 0.90888  0.67322  0.32285  Biso   1.000  Cu
  Cu34     1.0000 0.76433  0.09112  0.32285  Biso   1.000  Cu
  Cu35     1.0000 0.24222  0.33988  0.98952  Biso   1.000  Cu
  Cu36     1.0000 0.09767  0.75778  0.98952  Biso   1.000  Cu
  N1       1.0000 0.51590  0.06780  0.13039  Biso   1.000  N
  N2       1.0000 0.93220  0.44810  0.13039  Biso   1.000  N
  N3       1.0000 0.55190  0.48410  0.13039  Biso   1.000  N
  N4       1.0000 0.06780  0.51590  0.36961  Biso   1.000  N
  N5       1.0000 0.18257  0.40113  0.46372  Biso   1.000  N
  N6       1.0000 0.59887  0.78143  0.46372  Biso   1.000  N
  N7       1.0000 0.21857  0.81743  0.46372  Biso   1.000  N
  N8       1.0000 0.73447  0.84923  0.70294  Biso   1.000  N
  N9       1.0000 0.84923  0.73447  0.79706  Biso   1.000  N
  N10      1.0000 0.40113  0.18257  0.03628  Biso   1.000  N
  N11      1.0000 0.44810  0.93220  0.36961  Biso   1.000  N
  N12      1.0000 0.48410  0.55190  0.36961  Biso   1.000  N
  N13      1.0000 0.26553  0.11477  0.79706  Biso   1.000  N
  N14      1.0000 0.88523  0.15077  0.79706  Biso   1.000  N
  N15      1.0000 0.78143  0.59887  0.03628  Biso   1.000  N
  N16      1.0000 0.81743  0.21857  0.03628  Biso   1.000  N
  N17      1.0000 0.11477  0.26553  0.70294  Biso   1.000  N
  N18      1.0000 0.15077  0.88523  0.70294  Biso   1.000  N
  N19      1.0000 0.48410  0.93220  0.86961  Biso   1.000  N
  N20      1.0000 0.06780  0.55190  0.86961  Biso   1.000  N
  N21      1.0000 0.44810  0.51590  0.86961  Biso   1.000  N
  N22      1.0000 0.93220  0.48410  0.63039  Biso   1.000  N
  N23      1.0000 0.15077  0.26553  0.20294  Biso   1.000  N
  N24      1.0000 0.73447  0.88523  0.20294  Biso   1.000  N
  N25      1.0000 0.11477  0.84923  0.20294  Biso   1.000  N
  N26      1.0000 0.59887  0.81743  0.96372  Biso   1.000  N
  N27      1.0000 0.81743  0.59887  0.53628  Biso   1.000  N
  N28      1.0000 0.26553  0.15077  0.29706  Biso   1.000  N
  N29      1.0000 0.55190  0.06780  0.63039  Biso   1.000  N
  N30      1.0000 0.51590  0.44810  0.63039  Biso   1.000  N
  N31      1.0000 0.40113  0.21857  0.53628  Biso   1.000  N
  N32      1.0000 0.78143  0.18257  0.53628  Biso   1.000  N
  N33      1.0000 0.88523  0.73447  0.29706  Biso   1.000  N
  N34      1.0000 0.84923  0.11477  0.29706  Biso   1.000  N
  N35      1.0000 0.21857  0.40113  0.96372  Biso   1.000  N
  N36      1.0000 0.18257  0.78143  0.96372  Biso   1.000  N
  O1       1.0000 0.46180  0.07510  0.19073  Biso   1.000  O
  O2       1.0000 0.92490  0.38670  0.19073  Biso   1.000  O
  O3       1.0000 0.61330  0.53820  0.19073  Biso   1.000  O
  O4       1.0000 0.07510  0.46180  0.30927  Biso   1.000  O
  O5       1.0000 0.12847  0.40843  0.52406  Biso   1.000  O
  O6       1.0000 0.59157  0.72003  0.52406  Biso   1.000  O
  O7       1.0000 0.27997  0.87153  0.52406  Biso   1.000  O
  O8       1.0000 0.74177  0.79513  0.64260  Biso   1.000  O
  O9       1.0000 0.79513  0.74177  0.85740  Biso   1.000  O
  O10      1.0000 0.40843  0.12847  0.97594  Biso   1.000  O
  O11      1.0000 0.38670  0.92490  0.30927  Biso   1.000  O
  O12      1.0000 0.53820  0.61330  0.30927  Biso   1.000  O
  O13      1.0000 0.25823  0.05337  0.85740  Biso   1.000  O
  O14      1.0000 0.94663  0.20487  0.85740  Biso   1.000  O
  O15      1.0000 0.72003  0.59157  0.97594  Biso   1.000  O
  O16      1.0000 0.87153  0.27997  0.97594  Biso   1.000  O
  O17      1.0000 0.05337  0.25823  0.64260  Biso   1.000  O
  O18      1.0000 0.20487  0.94663  0.64260  Biso   1.000  O
  O19      1.0000 0.53820  0.92490  0.80927  Biso   1.000  O
  O20      1.0000 0.07510  0.61330  0.80927  Biso   1.000  O
  O21      1.0000 0.38670  0.46180  0.80927  Biso   1.000  O
  O22      1.0000 0.92490  0.53820  0.69073  Biso   1.000  O
  O23      1.0000 0.20487  0.25823  0.14260  Biso   1.000  O
  O24      1.0000 0.74177  0.94663  0.14260  Biso   1.000  O
  O25      1.0000 0.05337  0.79513  0.14260  Biso   1.000  O
  O26      1.0000 0.59157  0.87153  0.02406  Biso   1.000  O
  O27      1.0000 0.87153  0.59157  0.47594  Biso   1.000  O
  O28      1.0000 0.25823  0.20487  0.35740  Biso   1.000  O
  O29      1.0000 0.61330  0.07510  0.69073  Biso   1.000  O
  O30      1.0000 0.46180  0.38670  0.69073  Biso   1.000  O
  O31      1.0000 0.40843  0.27997  0.47594  Biso   1.000  O
  O32      1.0000 0.72003  0.12847  0.47594  Biso   1.000  O
  O33      1.0000 0.94663  0.74177  0.35740  Biso   1.000  O
  O34      1.0000 0.79513  0.05337  0.35740  Biso   1.000  O
  O35      1.0000 0.27997  0.40843  0.02406  Biso   1.000  O
  O36      1.0000 0.12847  0.72003  0.02406  Biso   1.000  O
  O37      1.0000 0.40139  0.25568  0.29222  Biso   1.000  O
  O38      1.0000 0.74432  0.14571  0.29222  Biso   1.000  O
  O39      1.0000 0.85429  0.59861  0.29222  Biso   1.000  O
  O40      1.0000 0.25568  0.40139  0.20778  Biso   1.000  O
  O41      1.0000 0.06806  0.58901  0.62555  Biso   1.000  O
  O42      1.0000 0.41099  0.47904  0.62555  Biso   1.000  O
  O43      1.0000 0.52096  0.93194  0.62555  Biso   1.000  O
  O44      1.0000 0.92235  0.73472  0.54111  Biso   1.000  O
  O45      1.0000 0.73472  0.92235  0.95889  Biso   1.000  O
  O46      1.0000 0.58901  0.06806  0.87445  Biso   1.000  O
  O47      1.0000 0.14571  0.74432  0.20778  Biso   1.000  O
  O48      1.0000 0.59861  0.85429  0.20778  Biso   1.000  O
  O49      1.0000 0.07765  0.81238  0.95889  Biso   1.000  O
  O50      1.0000 0.18762  0.26528  0.95889  Biso   1.000  O
  O51      1.0000 0.47904  0.41099  0.87445  Biso   1.000  O
  O52      1.0000 0.93194  0.52096  0.87445  Biso   1.000  O
  O53      1.0000 0.81238  0.07765  0.54111  Biso   1.000  O
  O54      1.0000 0.26528  0.18762  0.54111  Biso   1.000  O
  O55      1.0000 0.59861  0.74432  0.70778  Biso   1.000  O
  O56      1.0000 0.25568  0.85429  0.70778  Biso   1.000  O
  O57      1.0000 0.14571  0.40139  0.70778  Biso   1.000  O
  O58      1.0000 0.74432  0.59861  0.79222  Biso   1.000  O
  O59      1.0000 0.26528  0.07765  0.04111  Biso   1.000  O
  O60      1.0000 0.92235  0.18762  0.04111  Biso   1.000  O
  O61      1.0000 0.81238  0.73472  0.04111  Biso   1.000  O
  O62      1.0000 0.41099  0.93194  0.12555  Biso   1.000  O
  O63      1.0000 0.93194  0.41099  0.37445  Biso   1.000  O
  O64      1.0000 0.07765  0.26528  0.45889  Biso   1.000  O
  O65      1.0000 0.85429  0.25568  0.79222  Biso   1.000  O
  O66      1.0000 0.40139  0.14571  0.79222  Biso   1.000  O
  O67      1.0000 0.58901  0.52096  0.37445  Biso   1.000  O
  O68      1.0000 0.47904  0.06806  0.37445  Biso   1.000  O
  O69      1.0000 0.18762  0.92235  0.45889  Biso   1.000  O
  O70      1.0000 0.73472  0.81238  0.45889  Biso   1.000  O
  O71      1.0000 0.52096  0.58901  0.12555  Biso   1.000  O
  O72      1.0000 0.06806  0.47904  0.12555  Biso   1.000  O
  O73      1.0000 0.41530  0.17640  0.31822  Biso   1.000  O
  O74      1.0000 0.82360  0.23890  0.31822  Biso   1.000  O
  O75      1.0000 0.76110  0.58470  0.31822  Biso   1.000  O
  O76      1.0000 0.17640  0.41530  0.18178  Biso   1.000  O
  O77      1.0000 0.08197  0.50973  0.65155  Biso   1.000  O
  O78      1.0000 0.49027  0.57223  0.65155  Biso   1.000  O
  O79      1.0000 0.42777  0.91803  0.65155  Biso   1.000  O
  O80      1.0000 0.84307  0.74863  0.51511  Biso   1.000  O
  O81      1.0000 0.74863  0.84307  0.98489  Biso   1.000  O
  O82      1.0000 0.50973  0.08197  0.84845  Biso   1.000  O
  O83      1.0000 0.23890  0.82360  0.18178  Biso   1.000  O
  O84      1.0000 0.58470  0.76110  0.18178  Biso   1.000  O
  O85      1.0000 0.15693  0.90557  0.98489  Biso   1.000  O
  O86      1.0000 0.09443  0.25137  0.98489  Biso   1.000  O
  O87      1.0000 0.57223  0.49027  0.84845  Biso   1.000  O
  O88      1.0000 0.91803  0.42777  0.84845  Biso   1.000  O
  O89      1.0000 0.90557  0.15693  0.51511  Biso   1.000  O
  O90      1.0000 0.25137  0.09443  0.51511  Biso   1.000  O
  O91      1.0000 0.58470  0.82360  0.68178  Biso   1.000  O
  O92      1.0000 0.17640  0.76110  0.68178  Biso   1.000  O
  O93      1.0000 0.23890  0.41530  0.68178  Biso   1.000  O
  O94      1.0000 0.82360  0.58470  0.81822  Biso   1.000  O
  O95      1.0000 0.25137  0.15693  0.01511  Biso   1.000  O
  O96      1.0000 0.84307  0.09443  0.01511  Biso   1.000  O
  O97      1.0000 0.90557  0.74863  0.01511  Biso   1.000  O
  O98      1.0000 0.49027  0.91803  0.15155  Biso   1.000  O
  O99      1.0000 0.91803  0.49027  0.34845  Biso   1.000  O
  O100     1.0000 0.15693  0.25137  0.48489  Biso   1.000  O
  O101     1.0000 0.76110  0.17640  0.81822  Biso   1.000  O
  O102     1.0000 0.41530  0.23890  0.81822  Biso   1.000  O
  O103     1.0000 0.50973  0.42777  0.34845  Biso   1.000  O
  O104     1.0000 0.57223  0.08197  0.34845  Biso   1.000  O
  O105     1.0000 0.09443  0.84307  0.48489  Biso   1.000  O
  O106     1.0000 0.74863  0.90557  0.48489  Biso   1.000  O
  O107     1.0000 0.42777  0.50973  0.15155  Biso   1.000  O
  O108     1.0000 0.08197  0.57223  0.15155  Biso   1.000  O
  O109     1.0000 0.36000  0.94310  0.18703  Biso   1.000  O
  O110     1.0000 0.05690  0.41690  0.18703  Biso   1.000  O
  O111     1.0000 0.58310  0.64000  0.18703  Biso   1.000  O
  O112     1.0000 0.94310  0.36000  0.31297  Biso   1.000  O
  O113     1.0000 0.02667  0.27643  0.52036  Biso   1.000  O
  O114     1.0000 0.72357  0.75023  0.52036  Biso   1.000  O
  O115     1.0000 0.24977  0.97333  0.52036  Biso   1.000  O
  O116     1.0000 0.60977  0.69333  0.64630  Biso   1.000  O
  O117     1.0000 0.69333  0.60977  0.85370  Biso   1.000  O
  O118     1.0000 0.27643  0.02667  0.97964  Biso   1.000  O
  O119     1.0000 0.41690  0.05690  0.31297  Biso   1.000  O
  O120     1.0000 0.64000  0.58310  0.31297  Biso   1.000  O
  O121     1.0000 0.39023  0.08357  0.85370  Biso   1.000  O
  O122     1.0000 0.91643  0.30667  0.85370  Biso   1.000  O
  O123     1.0000 0.75023  0.72357  0.97964  Biso   1.000  O
  O124     1.0000 0.97333  0.24977  0.97964  Biso   1.000  O
  O125     1.0000 0.08357  0.39023  0.64630  Biso   1.000  O
  O126     1.0000 0.30667  0.91643  0.64630  Biso   1.000  O
  O127     1.0000 0.64000  0.05690  0.81297  Biso   1.000  O
  O128     1.0000 0.94310  0.58310  0.81297  Biso   1.000  O
  O129     1.0000 0.41690  0.36000  0.81297  Biso   1.000  O
  O130     1.0000 0.05690  0.64000  0.68703  Biso   1.000  O
  O131     1.0000 0.30667  0.39023  0.14630  Biso   1.000  O
  O132     1.0000 0.60977  0.91643  0.14630  Biso   1.000  O
  O133     1.0000 0.08357  0.69333  0.14630  Biso   1.000  O
  O134     1.0000 0.72357  0.97333  0.02036  Biso   1.000  O
  O135     1.0000 0.97333  0.72357  0.47964  Biso   1.000  O
  O136     1.0000 0.39023  0.30667  0.35370  Biso   1.000  O
  O137     1.0000 0.58310  0.94310  0.68703  Biso   1.000  O
  O138     1.0000 0.36000  0.41690  0.68703  Biso   1.000  O
  O139     1.0000 0.27643  0.24977  0.47964  Biso   1.000  O
  O140     1.0000 0.75023  0.02667  0.47964  Biso   1.000  O
  O141     1.0000 0.91643  0.60977  0.35370  Biso   1.000  O
  O142     1.0000 0.69333  0.08357  0.35370  Biso   1.000  O
  O143     1.0000 0.24977  0.27643  0.02036  Biso   1.000  O
  O144     1.0000 0.02667  0.75023  0.02036  Biso   1.000  O
  O145     1.0000 0.35980  0.03390  0.12812  Biso   1.000  O
  O146     1.0000 0.96610  0.32590  0.12812  Biso   1.000  O
  O147     1.0000 0.67410  0.64020  0.12812  Biso   1.000  O
  O148     1.0000 0.03390  0.35980  0.37188  Biso   1.000  O
  O149     1.0000 0.02647  0.36723  0.46145  Biso   1.000  O
  O150     1.0000 0.63277  0.65923  0.46145  Biso   1.000  O
  O151     1.0000 0.34077  0.97353  0.46145  Biso   1.000  O
  O152     1.0000 0.70057  0.69313  0.70521  Biso   1.000  O
  O153     1.0000 0.69313  0.70057  0.79479  Biso   1.000  O
  O154     1.0000 0.36723  0.02647  0.03855  Biso   1.000  O
  O155     1.0000 0.32590  0.96610  0.37188  Biso   1.000  O
  O156     1.0000 0.64020  0.67410  0.37188  Biso   1.000  O
  O157     1.0000 0.29943  0.99257  0.79479  Biso   1.000  O
  O158     1.0000 0.00743  0.30687  0.79479  Biso   1.000  O
  O159     1.0000 0.65923  0.63277  0.03855  Biso   1.000  O
  O160     1.0000 0.97353  0.34077  0.03855  Biso   1.000  O
  O161     1.0000 0.99257  0.29943  0.70521  Biso   1.000  O
  O162     1.0000 0.30687  0.00743  0.70521  Biso   1.000  O
  O163     1.0000 0.64020  0.96610  0.87188  Biso   1.000  O
  O164     1.0000 0.03390  0.67410  0.87188  Biso   1.000  O
  O165     1.0000 0.32590  0.35980  0.87188  Biso   1.000  O
  O166     1.0000 0.96610  0.64020  0.62812  Biso   1.000  O
  O167     1.0000 0.30687  0.29943  0.20521  Biso   1.000  O
  O168     1.0000 0.70057  0.00743  0.20521  Biso   1.000  O
  O169     1.0000 0.99257  0.69313  0.20521  Biso   1.000  O
  O170     1.0000 0.63277  0.97353  0.96145  Biso   1.000  O
  O171     1.0000 0.97353  0.63277  0.53855  Biso   1.000  O
  O172     1.0000 0.29943  0.30687  0.29479  Biso   1.000  O
  O173     1.0000 0.67410  0.03390  0.62812  Biso   1.000  O
  O174     1.0000 0.35980  0.32590  0.62812  Biso   1.000  O
  O175     1.0000 0.36723  0.34077  0.53855  Biso   1.000  O
  O176     1.0000 0.65923  0.02647  0.53855  Biso   1.000  O
  O177     1.0000 0.00743  0.70057  0.29479  Biso   1.000  O
  O178     1.0000 0.69313  0.99257  0.29479  Biso   1.000  O
  O179     1.0000 0.34077  0.36723  0.96145  Biso   1.000  O
  O180     1.0000 0.02647  0.65923  0.96145  Biso   1.000  O
  C1       1.0000 0.42740  0.21780  0.29569  Biso   1.000  C
  C2       1.0000 0.78220  0.20960  0.29569  Biso   1.000  C
  C3       1.0000 0.79040  0.57260  0.29569  Biso   1.000  C
  C4       1.0000 0.21780  0.42740  0.20431  Biso   1.000  C
  C5       1.0000 0.09407  0.55113  0.62902  Biso   1.000  C
  C6       1.0000 0.44887  0.54293  0.62902  Biso   1.000  C
  C7       1.0000 0.45707  0.90593  0.62902  Biso   1.000  C
  C8       1.0000 0.88447  0.76073  0.53764  Biso   1.000  C
  C9       1.0000 0.76073  0.88447  0.96236  Biso   1.000  C
  C10      1.0000 0.55113  0.09407  0.87098  Biso   1.000  C
  C11      1.0000 0.20960  0.78220  0.20431  Biso   1.000  C
  C12      1.0000 0.57260  0.79040  0.20431  Biso   1.000  C
  C13      1.0000 0.11553  0.87627  0.96236  Biso   1.000  C
  C14      1.0000 0.12373  0.23927  0.96236  Biso   1.000  C
  C15      1.0000 0.54293  0.44887  0.87098  Biso   1.000  C
  C16      1.0000 0.90593  0.45707  0.87098  Biso   1.000  C
  C17      1.0000 0.87627  0.11553  0.53764  Biso   1.000  C
  C18      1.0000 0.23927  0.12373  0.53764  Biso   1.000  C
  C19      1.0000 0.57260  0.78220  0.70431  Biso   1.000  C
  C20      1.0000 0.21780  0.79040  0.70431  Biso   1.000  C
  C21      1.0000 0.20960  0.42740  0.70431  Biso   1.000  C
  C22      1.0000 0.78220  0.57260  0.79569  Biso   1.000  C
  C23      1.0000 0.23927  0.11553  0.03764  Biso   1.000  C
  C24      1.0000 0.88447  0.12373  0.03764  Biso   1.000  C
  C25      1.0000 0.87627  0.76073  0.03764  Biso   1.000  C
  C26      1.0000 0.44887  0.90593  0.12902  Biso   1.000  C
  C27      1.0000 0.90593  0.44887  0.37098  Biso   1.000  C
  C28      1.0000 0.11553  0.23927  0.46236  Biso   1.000  C
  C29      1.0000 0.79040  0.21780  0.79569  Biso   1.000  C
  C30      1.0000 0.42740  0.20960  0.79569  Biso   1.000  C
  C31      1.0000 0.55113  0.45707  0.37098  Biso   1.000  C
  C32      1.0000 0.54293  0.09407  0.37098  Biso   1.000  C
  C33      1.0000 0.12373  0.88447  0.46236  Biso   1.000  C
  C34      1.0000 0.76073  0.87627  0.46236  Biso   1.000  C
  C35      1.0000 0.45707  0.55113  0.12902  Biso   1.000  C
  C36      1.0000 0.09407  0.54293  0.12902  Biso   1.000  C
  C37      1.0000 0.66670  0.33330  0.24680  Biso   1.000  C
  C38      1.0000 0.33330  0.66670  0.25320  Biso   1.000  C
  C39      1.0000 0.33337  0.66663  0.58013  Biso   1.000  C
  C40      1.0000 0.99997  0.00003  0.58653  Biso   1.000  C
  C41      1.0000 0.00003  0.99997  0.91347  Biso   1.000  C
  C42      1.0000 0.66663  0.33337  0.91987  Biso   1.000  C
  C43      1.0000 0.33330  0.66670  0.75320  Biso   1.000  C
  C44      1.0000 0.66670  0.33330  0.74680  Biso   1.000  C
  C45      1.0000 0.99997  0.00003  0.08653  Biso   1.000  C
  C46      1.0000 0.33337  0.66663  0.08013  Biso   1.000  C
  C47      1.0000 0.66663  0.33337  0.41987  Biso   1.000  C
  C48      1.0000 0.00003  0.99997  0.41347  Biso   1.000  C
  C49      1.0000 0.47680  0.22300  0.26900  Biso   1.000  C
  C50      1.0000 0.77700  0.25380  0.26900  Biso   1.000  C
  C51      1.0000 0.74620  0.52320  0.26900  Biso   1.000  C
  C52      1.0000 0.22300  0.47680  0.23100  Biso   1.000  C
  C53      1.0000 0.14347  0.55633  0.60233  Biso   1.000  C
  C54      1.0000 0.44367  0.58713  0.60233  Biso   1.000  C
  C55      1.0000 0.41287  0.85653  0.60233  Biso   1.000  C
  C56      1.0000 0.88967  0.81013  0.56433  Biso   1.000  C
  C57      1.0000 0.81013  0.88967  0.93567  Biso   1.000  C
  C58      1.0000 0.55633  0.14347  0.89767  Biso   1.000  C
  C59      1.0000 0.25380  0.77700  0.23100  Biso   1.000  C
  C60      1.0000 0.52320  0.74620  0.23100  Biso   1.000  C
  C61      1.0000 0.11033  0.92047  0.93567  Biso   1.000  C
  C62      1.0000 0.07953  0.18987  0.93567  Biso   1.000  C
  C63      1.0000 0.58713  0.44367  0.89767  Biso   1.000  C
  C64      1.0000 0.85653  0.41287  0.89767  Biso   1.000  C
  C65      1.0000 0.92047  0.11033  0.56433  Biso   1.000  C
  C66      1.0000 0.18987  0.07953  0.56433  Biso   1.000  C
  C67      1.0000 0.52320  0.77700  0.73100  Biso   1.000  C
  C68      1.0000 0.22300  0.74620  0.73100  Biso   1.000  C
  C69      1.0000 0.25380  0.47680  0.73100  Biso   1.000  C
  C70      1.0000 0.77700  0.52320  0.76900  Biso   1.000  C
  C71      1.0000 0.18987  0.11033  0.06433  Biso   1.000  C
  C72      1.0000 0.88967  0.07953  0.06433  Biso   1.000  C
  C73      1.0000 0.92047  0.81013  0.06433  Biso   1.000  C
  C74      1.0000 0.44367  0.85653  0.10233  Biso   1.000  C
  C75      1.0000 0.85653  0.44367  0.39767  Biso   1.000  C
  C76      1.0000 0.11033  0.18987  0.43567  Biso   1.000  C
  C77      1.0000 0.74620  0.22300  0.76900  Biso   1.000  C
  C78      1.0000 0.47680  0.25380  0.76900  Biso   1.000  C
  C79      1.0000 0.55633  0.41287  0.39767  Biso   1.000  C
  C80      1.0000 0.58713  0.14347  0.39767  Biso   1.000  C
  C81      1.0000 0.07953  0.88967  0.43567  Biso   1.000  C
  C82      1.0000 0.81013  0.92047  0.43567  Biso   1.000  C
  C83      1.0000 0.41287  0.55633  0.10233  Biso   1.000  C
  C84      1.0000 0.14347  0.58713  0.10233  Biso   1.000  C
  C85      1.0000 0.54560  0.27560  0.26854  Biso   1.000  C
  C86      1.0000 0.72440  0.27000  0.26854  Biso   1.000  C
  C87      1.0000 0.73000  0.45440  0.26854  Biso   1.000  C
  C88      1.0000 0.27560  0.54560  0.23146  Biso   1.000  C
  C89      1.0000 0.21227  0.60893  0.60187  Biso   1.000  C
  C90      1.0000 0.39107  0.60333  0.60187  Biso   1.000  C
  C91      1.0000 0.39667  0.78773  0.60187  Biso   1.000  C
  C92      1.0000 0.94227  0.87893  0.56479  Biso   1.000  C
  C93      1.0000 0.87893  0.94227  0.93521  Biso   1.000  C
  C94      1.0000 0.60893  0.21227  0.89813  Biso   1.000  C
  C95      1.0000 0.27000  0.72440  0.23146  Biso   1.000  C
  C96      1.0000 0.45440  0.73000  0.23146  Biso   1.000  C
  C97      1.0000 0.05773  0.93667  0.93521  Biso   1.000  C
  C98      1.0000 0.06333  0.12107  0.93521  Biso   1.000  C
  C99      1.0000 0.60333  0.39107  0.89813  Biso   1.000  C
  C100     1.0000 0.78773  0.39667  0.89813  Biso   1.000  C
  C101     1.0000 0.93667  0.05773  0.56479  Biso   1.000  C
  C102     1.0000 0.12107  0.06333  0.56479  Biso   1.000  C
  C103     1.0000 0.45440  0.72440  0.73146  Biso   1.000  C
  C104     1.0000 0.27560  0.73000  0.73146  Biso   1.000  C
  C105     1.0000 0.27000  0.54560  0.73146  Biso   1.000  C
  C106     1.0000 0.72440  0.45440  0.76854  Biso   1.000  C
  C107     1.0000 0.12107  0.05773  0.06479  Biso   1.000  C
  C108     1.0000 0.94227  0.06333  0.06479  Biso   1.000  C
  C109     1.0000 0.93667  0.87893  0.06479  Biso   1.000  C
  C110     1.0000 0.39107  0.78773  0.10187  Biso   1.000  C
  C111     1.0000 0.78773  0.39107  0.39813  Biso   1.000  C
  C112     1.0000 0.05773  0.12107  0.43521  Biso   1.000  C
  C113     1.0000 0.73000  0.27560  0.76854  Biso   1.000  C
  C114     1.0000 0.54560  0.27000  0.76854  Biso   1.000  C
  C115     1.0000 0.60893  0.39667  0.39813  Biso   1.000  C
  C116     1.0000 0.60333  0.21227  0.39813  Biso   1.000  C
  C117     1.0000 0.06333  0.94227  0.43521  Biso   1.000  C
  C118     1.0000 0.87893  0.93667  0.43521  Biso   1.000  C
  C119     1.0000 0.39667  0.60893  0.10187  Biso   1.000  C
  C120     1.0000 0.21227  0.60333  0.10187  Biso   1.000  C
  C121     1.0000 0.59320  0.27870  0.24550  Biso   1.000  C
  C122     1.0000 0.72130  0.31450  0.24550  Biso   1.000  C
  C123     1.0000 0.68550  0.40680  0.24550  Biso   1.000  C
  C124     1.0000 0.27870  0.59320  0.25450  Biso   1.000  C
  C125     1.0000 0.25987  0.61203  0.57883  Biso   1.000  C
  C126     1.0000 0.38797  0.64783  0.57883  Biso   1.000  C
  C127     1.0000 0.35217  0.74013  0.57883  Biso   1.000  C
  C128     1.0000 0.94537  0.92653  0.58783  Biso   1.000  C
  C129     1.0000 0.92653  0.94537  0.91217  Biso   1.000  C
  C130     1.0000 0.61203  0.25987  0.92117  Biso   1.000  C
  C131     1.0000 0.31450  0.72130  0.25450  Biso   1.000  C
  C132     1.0000 0.40680  0.68550  0.25450  Biso   1.000  C
  C133     1.0000 0.05463  0.98117  0.91217  Biso   1.000  C
  C134     1.0000 0.01883  0.07347  0.91217  Biso   1.000  C
  C135     1.0000 0.64783  0.38797  0.92117  Biso   1.000  C
  C136     1.0000 0.74013  0.35217  0.92117  Biso   1.000  C
  C137     1.0000 0.98117  0.05463  0.58783  Biso   1.000  C
  C138     1.0000 0.07347  0.01883  0.58783  Biso   1.000  C
  C139     1.0000 0.40680  0.72130  0.75450  Biso   1.000  C
  C140     1.0000 0.27870  0.68550  0.75450  Biso   1.000  C
  C141     1.0000 0.31450  0.59320  0.75450  Biso   1.000  C
  C142     1.0000 0.72130  0.40680  0.74550  Biso   1.000  C
  C143     1.0000 0.07347  0.05463  0.08783  Biso   1.000  C
  C144     1.0000 0.94537  0.01883  0.08783  Biso   1.000  C
  C145     1.0000 0.98117  0.92653  0.08783  Biso   1.000  C
  C146     1.0000 0.38797  0.74013  0.07883  Biso   1.000  C
  C147     1.0000 0.74013  0.38797  0.42117  Biso   1.000  C
  C148     1.0000 0.05463  0.07347  0.41217  Biso   1.000  C
  C149     1.0000 0.68550  0.27870  0.74550  Biso   1.000  C
  C150     1.0000 0.59320  0.31450  0.74550  Biso   1.000  C
  C151     1.0000 0.61203  0.35217  0.42117  Biso   1.000  C
  C152     1.0000 0.64783  0.25987  0.42117  Biso   1.000  C
  C153     1.0000 0.01883  0.94537  0.41217  Biso   1.000  C
  C154     1.0000 0.92653  0.98117  0.41217  Biso   1.000  C
  C155     1.0000 0.35217  0.61203  0.07883  Biso   1.000  C
  C156     1.0000 0.25987  0.64783  0.07883  Biso   1.000  C
  C157     1.0000 0.51260  0.08510  0.10001  Biso   1.000  C
  C158     1.0000 0.91490  0.42750  0.10001  Biso   1.000  C
  C159     1.0000 0.57250  0.48740  0.10001  Biso   1.000  C
  C160     1.0000 0.08510  0.51260  0.39999  Biso   1.000  C
  C161     1.0000 0.17927  0.41843  0.43334  Biso   1.000  C
  C162     1.0000 0.58157  0.76083  0.43334  Biso   1.000  C
  C163     1.0000 0.23917  0.82073  0.43334  Biso   1.000  C
  C164     1.0000 0.75177  0.84593  0.73332  Biso   1.000  C
  C165     1.0000 0.84593  0.75177  0.76668  Biso   1.000  C
  C166     1.0000 0.41843  0.17927  0.06666  Biso   1.000  C
  C167     1.0000 0.42750  0.91490  0.39999  Biso   1.000  C
  C168     1.0000 0.48740  0.57250  0.39999  Biso   1.000  C
  C169     1.0000 0.24823  0.09417  0.76668  Biso   1.000  C
  C170     1.0000 0.90583  0.15407  0.76668  Biso   1.000  C
  C171     1.0000 0.76083  0.58157  0.06666  Biso   1.000  C
  C172     1.0000 0.82073  0.23917  0.06666  Biso   1.000  C
  C173     1.0000 0.09417  0.24823  0.73332  Biso   1.000  C
  C174     1.0000 0.15407  0.90583  0.73332  Biso   1.000  C
  C175     1.0000 0.48740  0.91490  0.89999  Biso   1.000  C
  C176     1.0000 0.08510  0.57250  0.89999  Biso   1.000  C
  C177     1.0000 0.42750  0.51260  0.89999  Biso   1.000  C
  C178     1.0000 0.91490  0.48740  0.60001  Biso   1.000  C
  C179     1.0000 0.15407  0.24823  0.23332  Biso   1.000  C
  C180     1.0000 0.75177  0.90583  0.23332  Biso   1.000  C
  C181     1.0000 0.09417  0.84593  0.23332  Biso   1.000  C
  C182     1.0000 0.58157  0.82073  0.93334  Biso   1.000  C
  C183     1.0000 0.82073  0.58157  0.56666  Biso   1.000  C
  C184     1.0000 0.24823  0.15407  0.26668  Biso   1.000  C
  C185     1.0000 0.57250  0.08510  0.60001  Biso   1.000  C
  C186     1.0000 0.51260  0.42750  0.60001  Biso   1.000  C
  C187     1.0000 0.41843  0.23917  0.56666  Biso   1.000  C
  C188     1.0000 0.76083  0.17927  0.56666  Biso   1.000  C
  C189     1.0000 0.90583  0.75177  0.26668  Biso   1.000  C
  C190     1.0000 0.84593  0.09417  0.26668  Biso   1.000  C
  C191     1.0000 0.23917  0.41843  0.93334  Biso   1.000  C
  C192     1.0000 0.17927  0.76083  0.93334  Biso   1.000  C
  H1       1.0000 0.46920  0.07300  0.09120  Biso   1.000  H
  H2       1.0000 0.92700  0.39620  0.09120  Biso   1.000  H
  H3       1.0000 0.60380  0.53080  0.09120  Biso   1.000  H
  H4       1.0000 0.07300  0.46920  0.40880  Biso   1.000  H
  H5       1.0000 0.13587  0.40633  0.42453  Biso   1.000  H
  H6       1.0000 0.59367  0.72953  0.42453  Biso   1.000  H
  H7       1.0000 0.27047  0.86413  0.42453  Biso   1.000  H
  H8       1.0000 0.73967  0.80253  0.74213  Biso   1.000  H
  H9       1.0000 0.80253  0.73967  0.75787  Biso   1.000  H
  H10      1.0000 0.40633  0.13587  0.07547  Biso   1.000  H
  H11      1.0000 0.39620  0.92700  0.40880  Biso   1.000  H
  H12      1.0000 0.53080  0.60380  0.40880  Biso   1.000  H
  H13      1.0000 0.26033  0.06287  0.75787  Biso   1.000  H
  H14      1.0000 0.93713  0.19747  0.75787  Biso   1.000  H
  H15      1.0000 0.72953  0.59367  0.07547  Biso   1.000  H
  H16      1.0000 0.86413  0.27047  0.07547  Biso   1.000  H
  H17      1.0000 0.06287  0.26033  0.74213  Biso   1.000  H
  H18      1.0000 0.19747  0.93713  0.74213  Biso   1.000  H
  H19      1.0000 0.53080  0.92700  0.90880  Biso   1.000  H
  H20      1.0000 0.07300  0.60380  0.90880  Biso   1.000  H
  H21      1.0000 0.39620  0.46920  0.90880  Biso   1.000  H
  H22      1.0000 0.92700  0.53080  0.59120  Biso   1.000  H
  H23      1.0000 0.19747  0.26033  0.24213  Biso   1.000  H
  H24      1.0000 0.73967  0.93713  0.24213  Biso   1.000  H
  H25      1.0000 0.06287  0.80253  0.24213  Biso   1.000  H
  H26      1.0000 0.59367  0.86413  0.92453  Biso   1.000  H
  H27      1.0000 0.86413  0.59367  0.57547  Biso   1.000  H
  H28      1.0000 0.26033  0.19747  0.25787  Biso   1.000  H
  H29      1.0000 0.60380  0.07300  0.59120  Biso   1.000  H
  H30      1.0000 0.46920  0.39620  0.59120  Biso   1.000  H
  H31      1.0000 0.40633  0.27047  0.57547  Biso   1.000  H
  H32      1.0000 0.72953  0.13587  0.57547  Biso   1.000  H
  H33      1.0000 0.93713  0.73967  0.25787  Biso   1.000  H
  H34      1.0000 0.80253  0.06287  0.25787  Biso   1.000  H
  H35      1.0000 0.27047  0.40633  0.92453  Biso   1.000  H
  H36      1.0000 0.13587  0.72953  0.92453  Biso   1.000  H
  C193     1.0000 0.57140  0.12090  0.08056  Biso   1.000  C
  C194     1.0000 0.87910  0.45050  0.08056  Biso   1.000  C
  C195     1.0000 0.54950  0.42860  0.08056  Biso   1.000  C
  C196     1.0000 0.12090  0.57140  0.41944  Biso   1.000  C
  C197     1.0000 0.23807  0.45423  0.41389  Biso   1.000  C
  C198     1.0000 0.54577  0.78383  0.41389  Biso   1.000  C
  C199     1.0000 0.21617  0.76193  0.41389  Biso   1.000  C
  C200     1.0000 0.78757  0.90473  0.75277  Biso   1.000  C
  C201     1.0000 0.90473  0.78757  0.74723  Biso   1.000  C
  C202     1.0000 0.45423  0.23807  0.08611  Biso   1.000  C
  C203     1.0000 0.45050  0.87910  0.41944  Biso   1.000  C
  C204     1.0000 0.42860  0.54950  0.41944  Biso   1.000  C
  C205     1.0000 0.21243  0.11717  0.74723  Biso   1.000  C
  C206     1.0000 0.88283  0.09527  0.74723  Biso   1.000  C
  C207     1.0000 0.78383  0.54577  0.08611  Biso   1.000  C
  C208     1.0000 0.76193  0.21617  0.08611  Biso   1.000  C
  C209     1.0000 0.11717  0.21243  0.75277  Biso   1.000  C
  C210     1.0000 0.09527  0.88283  0.75277  Biso   1.000  C
  C211     1.0000 0.42860  0.87910  0.91944  Biso   1.000  C
  C212     1.0000 0.12090  0.54950  0.91944  Biso   1.000  C
  C213     1.0000 0.45050  0.57140  0.91944  Biso   1.000  C
  C214     1.0000 0.87910  0.42860  0.58056  Biso   1.000  C
  C215     1.0000 0.09527  0.21243  0.25277  Biso   1.000  C
  C216     1.0000 0.78757  0.88283  0.25277  Biso   1.000  C
  C217     1.0000 0.11717  0.90473  0.25277  Biso   1.000  C
  C218     1.0000 0.54577  0.76193  0.91389  Biso   1.000  C
  C219     1.0000 0.76193  0.54577  0.58611  Biso   1.000  C
  C220     1.0000 0.21243  0.09527  0.24723  Biso   1.000  C
  C221     1.0000 0.54950  0.12090  0.58056  Biso   1.000  C
  C222     1.0000 0.57140  0.45050  0.58056  Biso   1.000  C
  C223     1.0000 0.45423  0.21617  0.58611  Biso   1.000  C
  C224     1.0000 0.78383  0.23807  0.58611  Biso   1.000  C
  C225     1.0000 0.88283  0.78757  0.24723  Biso   1.000  C
  C226     1.0000 0.90473  0.11717  0.24723  Biso   1.000  C
  C227     1.0000 0.21617  0.45423  0.91389  Biso   1.000  C
  C228     1.0000 0.23807  0.78383  0.91389  Biso   1.000  C
  H37      1.0000 0.56760  0.13330  0.05920  Biso   1.000  H
  H38      1.0000 0.86670  0.43430  0.05920  Biso   1.000  H
  H39      1.0000 0.56570  0.43240  0.05920  Biso   1.000  H
  H40      1.0000 0.13330  0.56760  0.44080  Biso   1.000  H
  H41      1.0000 0.23427  0.46663  0.39253  Biso   1.000  H
  H42      1.0000 0.53337  0.76763  0.39253  Biso   1.000  H
  H43      1.0000 0.23237  0.76573  0.39253  Biso   1.000  H
  H44      1.0000 0.79997  0.90093  0.77413  Biso   1.000  H
  H45      1.0000 0.90093  0.79997  0.72587  Biso   1.000  H
  H46      1.0000 0.46663  0.23427  0.10747  Biso   1.000  H
  H47      1.0000 0.43430  0.86670  0.44080  Biso   1.000  H
  H48      1.0000 0.43240  0.56570  0.44080  Biso   1.000  H
  H49      1.0000 0.20003  0.10097  0.72587  Biso   1.000  H
  H50      1.0000 0.89903  0.09907  0.72587  Biso   1.000  H
  H51      1.0000 0.76763  0.53337  0.10747  Biso   1.000  H
  H52      1.0000 0.76573  0.23237  0.10747  Biso   1.000  H
  H53      1.0000 0.10097  0.20003  0.77413  Biso   1.000  H
  H54      1.0000 0.09907  0.89903  0.77413  Biso   1.000  H
  H55      1.0000 0.43240  0.86670  0.94080  Biso   1.000  H
  H56      1.0000 0.13330  0.56570  0.94080  Biso   1.000  H
  H57      1.0000 0.43430  0.56760  0.94080  Biso   1.000  H
  H58      1.0000 0.86670  0.43240  0.55920  Biso   1.000  H
  H59      1.0000 0.09907  0.20003  0.27413  Biso   1.000  H
  H60      1.0000 0.79997  0.89903  0.27413  Biso   1.000  H
  H61      1.0000 0.10097  0.90093  0.27413  Biso   1.000  H
  H62      1.0000 0.53337  0.76573  0.89253  Biso   1.000  H
  H63      1.0000 0.76573  0.53337  0.60747  Biso   1.000  H
  H64      1.0000 0.20003  0.09907  0.22587  Biso   1.000  H
  H65      1.0000 0.56570  0.13330  0.55920  Biso   1.000  H
  H66      1.0000 0.56760  0.43430  0.55920  Biso   1.000  H
  H67      1.0000 0.46663  0.23237  0.60747  Biso   1.000  H
  H68      1.0000 0.76763  0.23427  0.60747  Biso   1.000  H
  H69      1.0000 0.89903  0.79997  0.22587  Biso   1.000  H
  H70      1.0000 0.90093  0.10097  0.22587  Biso   1.000  H
  H71      1.0000 0.23237  0.46663  0.89253  Biso   1.000  H
  H72      1.0000 0.23427  0.76763  0.89253  Biso   1.000  H
  C229     1.0000 0.63520  0.13760  0.09329  Biso   1.000  C
  C230     1.0000 0.86240  0.49760  0.09329  Biso   1.000  C
  C231     1.0000 0.50240  0.36480  0.09329  Biso   1.000  C
  C232     1.0000 0.13760  0.63520  0.40671  Biso   1.000  C
  C233     1.0000 0.30187  0.47093  0.42662  Biso   1.000  C
  C234     1.0000 0.52907  0.83093  0.42662  Biso   1.000  C
  C235     1.0000 0.16907  0.69813  0.42662  Biso   1.000  C
  C236     1.0000 0.80427  0.96853  0.74004  Biso   1.000  C
  C237     1.0000 0.96853  0.80427  0.75996  Biso   1.000  C
  C238     1.0000 0.47093  0.30187  0.07338  Biso   1.000  C
  C239     1.0000 0.49760  0.86240  0.40671  Biso   1.000  C
  C240     1.0000 0.36480  0.50240  0.40671  Biso   1.000  C
  C241     1.0000 0.19573  0.16427  0.75996  Biso   1.000  C
  C242     1.0000 0.83573  0.03147  0.75996  Biso   1.000  C
  C243     1.0000 0.83093  0.52907  0.07338  Biso   1.000  C
  C244     1.0000 0.69813  0.16907  0.07338  Biso   1.000  C
  C245     1.0000 0.16427  0.19573  0.74004  Biso   1.000  C
  C246     1.0000 0.03147  0.83573  0.74004  Biso   1.000  C
  C247     1.0000 0.36480  0.86240  0.90671  Biso   1.000  C
  C248     1.0000 0.13760  0.50240  0.90671  Biso   1.000  C
  C249     1.0000 0.49760  0.63520  0.90671  Biso   1.000  C
  C250     1.0000 0.86240  0.36480  0.59329  Biso   1.000  C
  C251     1.0000 0.03147  0.19573  0.24004  Biso   1.000  C
  C252     1.0000 0.80427  0.83573  0.24004  Biso   1.000  C
  C253     1.0000 0.16427  0.96853  0.24004  Biso   1.000  C
  C254     1.0000 0.52907  0.69813  0.92662  Biso   1.000  C
  C255     1.0000 0.69813  0.52907  0.57338  Biso   1.000  C
  C256     1.0000 0.19573  0.03147  0.25996  Biso   1.000  C
  C257     1.0000 0.50240  0.13760  0.59329  Biso   1.000  C
  C258     1.0000 0.63520  0.49760  0.59329  Biso   1.000  C
  C259     1.0000 0.47093  0.16907  0.57338  Biso   1.000  C
  C260     1.0000 0.83093  0.30187  0.57338  Biso   1.000  C
  C261     1.0000 0.83573  0.80427  0.25996  Biso   1.000  C
  C262     1.0000 0.96853  0.16427  0.25996  Biso   1.000  C
  C263     1.0000 0.16907  0.47093  0.92662  Biso   1.000  C
  C264     1.0000 0.30187  0.83093  0.92662  Biso   1.000  C
  C265     1.0000 0.63770  0.11960  0.12552  Biso   1.000  C
  C266     1.0000 0.88040  0.51810  0.12552  Biso   1.000  C
  C267     1.0000 0.48190  0.36230  0.12552  Biso   1.000  C
  C268     1.0000 0.11960  0.63770  0.37448  Biso   1.000  C
  C269     1.0000 0.30437  0.45293  0.45885  Biso   1.000  C
  C270     1.0000 0.54707  0.85143  0.45885  Biso   1.000  C
  C271     1.0000 0.14857  0.69563  0.45885  Biso   1.000  C
  C272     1.0000 0.78627  0.97103  0.70781  Biso   1.000  C
  C273     1.0000 0.97103  0.78627  0.79219  Biso   1.000  C
  C274     1.0000 0.45293  0.30437  0.04115  Biso   1.000  C
  C275     1.0000 0.51810  0.88040  0.37448  Biso   1.000  C
  C276     1.0000 0.36230  0.48190  0.37448  Biso   1.000  C
  C277     1.0000 0.21373  0.18477  0.79219  Biso   1.000  C
  C278     1.0000 0.81523  0.02897  0.79219  Biso   1.000  C
  C279     1.0000 0.85143  0.54707  0.04115  Biso   1.000  C
  C280     1.0000 0.69563  0.14857  0.04115  Biso   1.000  C
  C281     1.0000 0.18477  0.21373  0.70781  Biso   1.000  C
  C282     1.0000 0.02897  0.81523  0.70781  Biso   1.000  C
  C283     1.0000 0.36230  0.88040  0.87448  Biso   1.000  C
  C284     1.0000 0.11960  0.48190  0.87448  Biso   1.000  C
  C285     1.0000 0.51810  0.63770  0.87448  Biso   1.000  C
  C286     1.0000 0.88040  0.36230  0.62552  Biso   1.000  C
  C287     1.0000 0.02897  0.21373  0.20781  Biso   1.000  C
  C288     1.0000 0.78627  0.81523  0.20781  Biso   1.000  C
  C289     1.0000 0.18477  0.97103  0.20781  Biso   1.000  C
  C290     1.0000 0.54707  0.69563  0.95885  Biso   1.000  C
  C291     1.0000 0.69563  0.54707  0.54115  Biso   1.000  C
  C292     1.0000 0.21373  0.02897  0.29219  Biso   1.000  C
  C293     1.0000 0.48190  0.11960  0.62552  Biso   1.000  C
  C294     1.0000 0.63770  0.51810  0.62552  Biso   1.000  C
  C295     1.0000 0.45293  0.14857  0.54115  Biso   1.000  C
  C296     1.0000 0.85143  0.30437  0.54115  Biso   1.000  C
  C297     1.0000 0.81523  0.78627  0.29219  Biso   1.000  C
  C298     1.0000 0.97103  0.18477  0.29219  Biso   1.000  C
  C299     1.0000 0.14857  0.45293  0.95885  Biso   1.000  C
  C300     1.0000 0.30437  0.85143  0.95885  Biso   1.000  C
  H73      1.0000 0.68020  0.13110  0.13520  Biso   1.000  H
  H74      1.0000 0.86890  0.54910  0.13520  Biso   1.000  H
  H75      1.0000 0.45090  0.31980  0.13520  Biso   1.000  H
  H76      1.0000 0.13110  0.68020  0.36480  Biso   1.000  H
  H77      1.0000 0.34687  0.46443  0.46853  Biso   1.000  H
  H78      1.0000 0.53557  0.88243  0.46853  Biso   1.000  H
  H79      1.0000 0.11757  0.65313  0.46853  Biso   1.000  H
  H80      1.0000 0.79777  0.01353  0.69813  Biso   1.000  H
  H81      1.0000 0.01353  0.79777  0.80187  Biso   1.000  H
  H82      1.0000 0.46443  0.34687  0.03147  Biso   1.000  H
  H83      1.0000 0.54910  0.86890  0.36480  Biso   1.000  H
  H84      1.0000 0.31980  0.45090  0.36480  Biso   1.000  H
  H85      1.0000 0.20223  0.21577  0.80187  Biso   1.000  H
  H86      1.0000 0.78423  0.98647  0.80187  Biso   1.000  H
  H87      1.0000 0.88243  0.53557  0.03147  Biso   1.000  H
  H88      1.0000 0.65313  0.11757  0.03147  Biso   1.000  H
  H89      1.0000 0.21577  0.20223  0.69813  Biso   1.000  H
  H90      1.0000 0.98647  0.78423  0.69813  Biso   1.000  H
  H91      1.0000 0.31980  0.86890  0.86480  Biso   1.000  H
  H92      1.0000 0.13110  0.45090  0.86480  Biso   1.000  H
  H93      1.0000 0.54910  0.68020  0.86480  Biso   1.000  H
  H94      1.0000 0.86890  0.31980  0.63520  Biso   1.000  H
  H95      1.0000 0.98647  0.20223  0.19813  Biso   1.000  H
  H96      1.0000 0.79777  0.78423  0.19813  Biso   1.000  H
  H97      1.0000 0.21577  0.01353  0.19813  Biso   1.000  H
  H98      1.0000 0.53557  0.65313  0.96853  Biso   1.000  H
  H99      1.0000 0.65313  0.53557  0.53147  Biso   1.000  H
  H100     1.0000 0.20223  0.98647  0.30187  Biso   1.000  H
  H101     1.0000 0.45090  0.13110  0.63520  Biso   1.000  H
  H102     1.0000 0.68020  0.54910  0.63520  Biso   1.000  H
  H103     1.0000 0.46443  0.11757  0.53147  Biso   1.000  H
  H104     1.0000 0.88243  0.34687  0.53147  Biso   1.000  H
  H105     1.0000 0.78423  0.79777  0.30187  Biso   1.000  H
  H106     1.0000 0.01353  0.21577  0.30187  Biso   1.000  H
  H107     1.0000 0.11757  0.46443  0.96853  Biso   1.000  H
  H108     1.0000 0.34687  0.88243  0.96853  Biso   1.000  H
  C301     1.0000 0.57730  0.08480  0.14306  Biso   1.000  C
  C302     1.0000 0.91520  0.49250  0.14306  Biso   1.000  C
  C303     1.0000 0.50750  0.42270  0.14306  Biso   1.000  C
  C304     1.0000 0.08480  0.57730  0.35694  Biso   1.000  C
  C305     1.0000 0.24397  0.41813  0.47639  Biso   1.000  C
  C306     1.0000 0.58187  0.82583  0.47639  Biso   1.000  C
  C307     1.0000 0.17417  0.75603  0.47639  Biso   1.000  C
  C308     1.0000 0.75147  0.91063  0.69027  Biso   1.000  C
  C309     1.0000 0.91063  0.75147  0.80973  Biso   1.000  C
  C310     1.0000 0.41813  0.24397  0.02361  Biso   1.000  C
  C311     1.0000 0.49250  0.91520  0.35694  Biso   1.000  C
  C312     1.0000 0.42270  0.50750  0.35694  Biso   1.000  C
  C313     1.0000 0.24853  0.15917  0.80973  Biso   1.000  C
  C314     1.0000 0.84083  0.08937  0.80973  Biso   1.000  C
  C315     1.0000 0.82583  0.58187  0.02361  Biso   1.000  C
  C316     1.0000 0.75603  0.17417  0.02361  Biso   1.000  C
  C317     1.0000 0.15917  0.24853  0.69027  Biso   1.000  C
  C318     1.0000 0.08937  0.84083  0.69027  Biso   1.000  C
  C319     1.0000 0.42270  0.91520  0.85694  Biso   1.000  C
  C320     1.0000 0.08480  0.50750  0.85694  Biso   1.000  C
  C321     1.0000 0.49250  0.57730  0.85694  Biso   1.000  C
  C322     1.0000 0.91520  0.42270  0.64306  Biso   1.000  C
  C323     1.0000 0.08937  0.24853  0.19027  Biso   1.000  C
  C324     1.0000 0.75147  0.84083  0.19027  Biso   1.000  C
  C325     1.0000 0.15917  0.91063  0.19027  Biso   1.000  C
  C326     1.0000 0.58187  0.75603  0.97639  Biso   1.000  C
  C327     1.0000 0.75603  0.58187  0.52361  Biso   1.000  C
  C328     1.0000 0.24853  0.08937  0.30973  Biso   1.000  C
  C329     1.0000 0.50750  0.08480  0.64306  Biso   1.000  C
  C330     1.0000 0.57730  0.49250  0.64306  Biso   1.000  C
  C331     1.0000 0.41813  0.17417  0.52361  Biso   1.000  C
  C332     1.0000 0.82583  0.24397  0.52361  Biso   1.000  C
  C333     1.0000 0.84083  0.75147  0.30973  Biso   1.000  C
  C334     1.0000 0.91063  0.15917  0.30973  Biso   1.000  C
  C335     1.0000 0.17417  0.41813  0.97639  Biso   1.000  C
  C336     1.0000 0.24397  0.82583  0.97639  Biso   1.000  C
  H109     1.0000 0.57940  0.07270  0.16470  Biso   1.000  H
  H110     1.0000 0.92730  0.50670  0.16470  Biso   1.000  H
  H111     1.0000 0.49330  0.42060  0.16470  Biso   1.000  H
  H112     1.0000 0.07270  0.57940  0.33530  Biso   1.000  H
  H113     1.0000 0.24607  0.40603  0.49803  Biso   1.000  H
  H114     1.0000 0.59397  0.84003  0.49803  Biso   1.000  H
  H115     1.0000 0.15997  0.75393  0.49803  Biso   1.000  H
  H116     1.0000 0.73937  0.91273  0.66863  Biso   1.000  H
  H117     1.0000 0.91273  0.73937  0.83137  Biso   1.000  H
  H118     1.0000 0.40603  0.24607  0.00197  Biso   1.000  H
  H119     1.0000 0.50670  0.92730  0.33530  Biso   1.000  H
  H120     1.0000 0.42060  0.49330  0.33530  Biso   1.000  H
  H121     1.0000 0.26063  0.17337  0.83137  Biso   1.000  H
  H122     1.0000 0.82663  0.08727  0.83137  Biso   1.000  H
  H123     1.0000 0.84003  0.59397  0.00197  Biso   1.000  H
  H124     1.0000 0.75393  0.15997  0.00197  Biso   1.000  H
  H125     1.0000 0.17337  0.26063  0.66863  Biso   1.000  H
  H126     1.0000 0.08727  0.82663  0.66863  Biso   1.000  H
  H127     1.0000 0.42060  0.92730  0.83530  Biso   1.000  H
  H128     1.0000 0.07270  0.49330  0.83530  Biso   1.000  H
  H129     1.0000 0.50670  0.57940  0.83530  Biso   1.000  H
  H130     1.0000 0.92730  0.42060  0.66470  Biso   1.000  H
  H131     1.0000 0.08727  0.26063  0.16863  Biso   1.000  H
  H132     1.0000 0.73937  0.82663  0.16863  Biso   1.000  H
  H133     1.0000 0.17337  0.91273  0.16863  Biso   1.000  H
  H134     1.0000 0.59397  0.75393  0.99803  Biso   1.000  H
  H135     1.0000 0.75393  0.59397  0.50197  Biso   1.000  H
  H136     1.0000 0.26063  0.08727  0.33137  Biso   1.000  H
  H137     1.0000 0.49330  0.07270  0.66470  Biso   1.000  H
  H138     1.0000 0.57940  0.50670  0.66470  Biso   1.000  H
  H139     1.0000 0.40603  0.15997  0.50197  Biso   1.000  H
  H140     1.0000 0.84003  0.24607  0.50197  Biso   1.000  H
  H141     1.0000 0.82663  0.73937  0.33137  Biso   1.000  H
  H142     1.0000 0.91273  0.17337  0.33137  Biso   1.000  H
  H143     1.0000 0.15997  0.40603  0.99803  Biso   1.000  H
  H144     1.0000 0.24607  0.84003  0.99803  Biso   1.000  H
  Cl1      1.0000 0.36809  0.10936  0.24300  Biso   1.000  Cl
  Cl2      1.0000 0.89064  0.25873  0.24300  Biso   1.000  Cl
  Cl3      1.0000 0.74127  0.63191  0.24300  Biso   1.000  Cl
  Cl4      1.0000 0.10936  0.36809  0.25700  Biso   1.000  Cl
  Cl5      1.0000 0.03476  0.44269  0.57633  Biso   1.000  Cl
  Cl6      1.0000 0.55731  0.59206  0.57633  Biso   1.000  Cl
  Cl7      1.0000 0.40794  0.96524  0.57633  Biso   1.000  Cl
  Cl8      1.0000 0.77603  0.70142  0.59033  Biso   1.000  Cl
  Cl9      1.0000 0.70142  0.77603  0.90967  Biso   1.000  Cl
  Cl10     1.0000 0.44269  0.03476  0.92367  Biso   1.000  Cl
  Cl11     1.0000 0.25873  0.89064  0.25700  Biso   1.000  Cl
  Cl12     1.0000 0.63191  0.74127  0.25700  Biso   1.000  Cl
  Cl13     1.0000 0.22397  0.92540  0.90967  Biso   1.000  Cl
  Cl14     1.0000 0.07460  0.29858  0.90967  Biso   1.000  Cl
  Cl15     1.0000 0.59206  0.55731  0.92367  Biso   1.000  Cl
  Cl16     1.0000 0.96524  0.40794  0.92367  Biso   1.000  Cl
  Cl17     1.0000 0.92540  0.22397  0.59033  Biso   1.000  Cl
  Cl18     1.0000 0.29858  0.07460  0.59033  Biso   1.000  Cl
  Cl19     1.0000 0.63191  0.89064  0.75700  Biso   1.000  Cl
  Cl20     1.0000 0.10936  0.74127  0.75700  Biso   1.000  Cl
  Cl21     1.0000 0.25873  0.36809  0.75700  Biso   1.000  Cl
  Cl22     1.0000 0.89064  0.63191  0.74300  Biso   1.000  Cl
  Cl23     1.0000 0.29858  0.22397  0.09033  Biso   1.000  Cl
  Cl24     1.0000 0.77603  0.07460  0.09033  Biso   1.000  Cl
  Cl25     1.0000 0.92540  0.70142  0.09033  Biso   1.000  Cl
  Cl26     1.0000 0.55731  0.96524  0.07633  Biso   1.000  Cl
  Cl27     1.0000 0.96524  0.55731  0.42367  Biso   1.000  Cl
  Cl28     1.0000 0.22397  0.29858  0.40967  Biso   1.000  Cl
  Cl29     1.0000 0.74127  0.10936  0.74300  Biso   1.000  Cl
  Cl30     1.0000 0.36809  0.25873  0.74300  Biso   1.000  Cl
  Cl31     1.0000 0.44269  0.40794  0.42367  Biso   1.000  Cl
  Cl32     1.0000 0.59206  0.03476  0.42367  Biso   1.000  Cl
  Cl33     1.0000 0.07460  0.77603  0.40967  Biso   1.000  Cl
  Cl34     1.0000 0.70142  0.92540  0.40967  Biso   1.000  Cl
  Cl35     1.0000 0.40794  0.44269  0.07633  Biso   1.000  Cl
  Cl36     1.0000 0.03476  0.59206  0.07633  Biso   1.000  Cl
  Cl37     1.0000 0.57193  0.33393  0.30034  Biso   1.000  Cl
  Cl38     1.0000 0.66607  0.23800  0.30034  Biso   1.000  Cl
  Cl39     1.0000 0.76200  0.42807  0.30034  Biso   1.000  Cl
  Cl40     1.0000 0.33393  0.57193  0.19966  Biso   1.000  Cl
  Cl41     1.0000 0.23860  0.66726  0.63367  Biso   1.000  Cl
  Cl42     1.0000 0.33274  0.57133  0.63367  Biso   1.000  Cl
  Cl43     1.0000 0.42867  0.76140  0.63367  Biso   1.000  Cl
  Cl44     1.0000 0.00060  0.90526  0.53299  Biso   1.000  Cl
  Cl45     1.0000 0.90526  0.00060  0.96701  Biso   1.000  Cl
  Cl46     1.0000 0.66726  0.23860  0.86633  Biso   1.000  Cl
  Cl47     1.0000 0.23800  0.66607  0.19966  Biso   1.000  Cl
  Cl48     1.0000 0.42807  0.76200  0.19966  Biso   1.000  Cl
  Cl49     1.0000 0.99940  0.90467  0.96701  Biso   1.000  Cl
  Cl50     1.0000 0.09533  0.09474  0.96701  Biso   1.000  Cl
  Cl51     1.0000 0.57133  0.33274  0.86633  Biso   1.000  Cl
  Cl52     1.0000 0.76140  0.42867  0.86633  Biso   1.000  Cl
  Cl53     1.0000 0.90467  0.99940  0.53299  Biso   1.000  Cl
  Cl54     1.0000 0.09474  0.09533  0.53299  Biso   1.000  Cl
  Cl55     1.0000 0.42807  0.66607  0.69966  Biso   1.000  Cl
  Cl56     1.0000 0.33393  0.76200  0.69966  Biso   1.000  Cl
  Cl57     1.0000 0.23800  0.57193  0.69966  Biso   1.000  Cl
  Cl58     1.0000 0.66607  0.42807  0.80034  Biso   1.000  Cl
  Cl59     1.0000 0.09474  0.99940  0.03299  Biso   1.000  Cl
  Cl60     1.0000 0.00060  0.09533  0.03299  Biso   1.000  Cl
  Cl61     1.0000 0.90467  0.90526  0.03299  Biso   1.000  Cl
  Cl62     1.0000 0.33274  0.76140  0.13367  Biso   1.000  Cl
  Cl63     1.0000 0.76140  0.33274  0.36633  Biso   1.000  Cl
  Cl64     1.0000 0.99940  0.09474  0.46701  Biso   1.000  Cl
  Cl65     1.0000 0.76200  0.33393  0.80034  Biso   1.000  Cl
  Cl66     1.0000 0.57193  0.23800  0.80034  Biso   1.000  Cl
  Cl67     1.0000 0.66726  0.42867  0.36633  Biso   1.000  Cl
  Cl68     1.0000 0.57133  0.23860  0.36633  Biso   1.000  Cl
  Cl69     1.0000 0.09533  0.00060  0.46701  Biso   1.000  Cl
  Cl70     1.0000 0.90526  0.90467  0.46701  Biso   1.000  Cl
  Cl71     1.0000 0.42867  0.66726  0.13367  Biso   1.000  Cl
  Cl72     1.0000 0.23860  0.57133  0.13367  Biso   1.000  Cl
  Cl73     1.0000 0.61900  0.22965  0.18930  Biso   1.000  Cl
  Cl74     1.0000 0.77035  0.38935  0.18930  Biso   1.000  Cl
  Cl75     1.0000 0.61065  0.38100  0.18930  Biso   1.000  Cl
  Cl76     1.0000 0.22965  0.61900  0.31070  Biso   1.000  Cl
  Cl77     1.0000 0.28567  0.56298  0.52263  Biso   1.000  Cl
  Cl78     1.0000 0.43702  0.72268  0.52263  Biso   1.000  Cl
  Cl79     1.0000 0.27732  0.71433  0.52263  Biso   1.000  Cl
  Cl80     1.0000 0.89632  0.95233  0.64403  Biso   1.000  Cl
  Cl81     1.0000 0.95233  0.89632  0.85597  Biso   1.000  Cl
  Cl82     1.0000 0.56298  0.28567  0.97737  Biso   1.000  Cl
  Cl83     1.0000 0.38935  0.77035  0.31070  Biso   1.000  Cl
  Cl84     1.0000 0.38100  0.61065  0.31070  Biso   1.000  Cl
  Cl85     1.0000 0.10368  0.05602  0.85597  Biso   1.000  Cl
  Cl86     1.0000 0.94398  0.04767  0.85597  Biso   1.000  Cl
  Cl87     1.0000 0.72268  0.43702  0.97737  Biso   1.000  Cl
  Cl88     1.0000 0.71433  0.27732  0.97737  Biso   1.000  Cl
  Cl89     1.0000 0.05602  0.10368  0.64403  Biso   1.000  Cl
  Cl90     1.0000 0.04767  0.94398  0.64403  Biso   1.000  Cl
  Cl91     1.0000 0.38100  0.77035  0.81070  Biso   1.000  Cl
  Cl92     1.0000 0.22965  0.61065  0.81070  Biso   1.000  Cl
  Cl93     1.0000 0.38935  0.61900  0.81070  Biso   1.000  Cl
  Cl94     1.0000 0.77035  0.38100  0.68930  Biso   1.000  Cl
  Cl95     1.0000 0.04767  0.10368  0.14403  Biso   1.000  Cl
  Cl96     1.0000 0.89632  0.94398  0.14403  Biso   1.000  Cl
  Cl97     1.0000 0.05602  0.95233  0.14403  Biso   1.000  Cl
  Cl98     1.0000 0.43702  0.71433  0.02263  Biso   1.000  Cl
  Cl99     1.0000 0.71433  0.43702  0.47737  Biso   1.000  Cl
  Cl100    1.0000 0.10368  0.04767  0.35597  Biso   1.000  Cl
  Cl101    1.0000 0.61065  0.22965  0.68930  Biso   1.000  Cl
  Cl102    1.0000 0.61900  0.38935  0.68930  Biso   1.000  Cl
  Cl103    1.0000 0.56298  0.27732  0.47737  Biso   1.000  Cl
  Cl104    1.0000 0.72268  0.28567  0.47737  Biso   1.000  Cl
  Cl105    1.0000 0.94398  0.89632  0.35597  Biso   1.000  Cl
  Cl106    1.0000 0.95233  0.05602  0.35597  Biso   1.000  Cl
  Cl107    1.0000 0.27732  0.56298  0.02263  Biso   1.000  Cl
  Cl108    1.0000 0.28567  0.72268  0.02263  Biso   1.000  Cl
  O181     1.0000 0.44930  0.15430  0.16591  Biso   1.000  O
  O182     1.0000 0.84570  0.29500  0.16591  Biso   1.000  O
  O183     1.0000 0.70500  0.55070  0.16591  Biso   1.000  O
  O184     1.0000 0.15430  0.44930  0.33409  Biso   1.000  O
  O185     1.0000 0.11597  0.48763  0.49924  Biso   1.000  O
  O186     1.0000 0.51237  0.62833  0.49924  Biso   1.000  O
  O187     1.0000 0.37167  0.88403  0.49924  Biso   1.000  O
  O188     1.0000 0.82097  0.78263  0.66742  Biso   1.000  O
  O189     1.0000 0.78263  0.82097  0.83258  Biso   1.000  O
  O190     1.0000 0.48763  0.11597  0.00076  Biso   1.000  O
  O191     1.0000 0.29500  0.84570  0.33409  Biso   1.000  O
  O192     1.0000 0.55070  0.70500  0.33409  Biso   1.000  O
  O193     1.0000 0.17903  0.96167  0.83258  Biso   1.000  O
  O194     1.0000 0.03833  0.21737  0.83258  Biso   1.000  O
  O195     1.0000 0.62833  0.51237  0.00076  Biso   1.000  O
  O196     1.0000 0.88403  0.37167  0.00076  Biso   1.000  O
  O197     1.0000 0.96167  0.17903  0.66742  Biso   1.000  O
  O198     1.0000 0.21737  0.03833  0.66742  Biso   1.000  O
  O199     1.0000 0.55070  0.84570  0.83409  Biso   1.000  O
  O200     1.0000 0.15430  0.70500  0.83409  Biso   1.000  O
  O201     1.0000 0.29500  0.44930  0.83409  Biso   1.000  O
  O202     1.0000 0.84570  0.55070  0.66591  Biso   1.000  O
  O203     1.0000 0.21737  0.17903  0.16742  Biso   1.000  O
  O204     1.0000 0.82097  0.03833  0.16742  Biso   1.000  O
  O205     1.0000 0.96167  0.78263  0.16742  Biso   1.000  O
  O206     1.0000 0.51237  0.88403  0.99924  Biso   1.000  O
  O207     1.0000 0.88403  0.51237  0.50076  Biso   1.000  O
  O208     1.0000 0.17903  0.21737  0.33258  Biso   1.000  O
  O209     1.0000 0.70500  0.15430  0.66591  Biso   1.000  O
  O210     1.0000 0.44930  0.29500  0.66591  Biso   1.000  O
  O211     1.0000 0.48763  0.37167  0.50076  Biso   1.000  O
  O212     1.0000 0.62833  0.11597  0.50076  Biso   1.000  O
  O213     1.0000 0.03833  0.82097  0.33258  Biso   1.000  O
  O214     1.0000 0.78263  0.96167  0.33258  Biso   1.000  O
  O215     1.0000 0.37167  0.48763  0.99924  Biso   1.000  O
  O216     1.0000 0.11597  0.62833  0.99924  Biso   1.000  O
  C337     1.0000 0.46710  0.13080  0.18922  Biso   1.000  C
  C338     1.0000 0.86920  0.33630  0.18922  Biso   1.000  C
  C339     1.0000 0.66370  0.53290  0.18922  Biso   1.000  C
  C340     1.0000 0.13080  0.46710  0.31078  Biso   1.000  C
  C341     1.0000 0.13377  0.46413  0.52255  Biso   1.000  C
  C342     1.0000 0.53587  0.66963  0.52255  Biso   1.000  C
  C343     1.0000 0.33037  0.86623  0.52255  Biso   1.000  C
  C344     1.0000 0.79747  0.80043  0.64411  Biso   1.000  C
  C345     1.0000 0.80043  0.79747  0.85589  Biso   1.000  C
  C346     1.0000 0.46413  0.13377  0.97745  Biso   1.000  C
  C347     1.0000 0.33630  0.86920  0.31078  Biso   1.000  C
  C348     1.0000 0.53290  0.66370  0.31078  Biso   1.000  C
  C349     1.0000 0.20253  0.00297  0.85589  Biso   1.000  C
  C350     1.0000 0.99703  0.19957  0.85589  Biso   1.000  C
  C351     1.0000 0.66963  0.53587  0.97745  Biso   1.000  C
  C352     1.0000 0.86623  0.33037  0.97745  Biso   1.000  C
  C353     1.0000 0.00297  0.20253  0.64411  Biso   1.000  C
  C354     1.0000 0.19957  0.99703  0.64411  Biso   1.000  C
  C355     1.0000 0.53290  0.86920  0.81078  Biso   1.000  C
  C356     1.0000 0.13080  0.66370  0.81078  Biso   1.000  C
  C357     1.0000 0.33630  0.46710  0.81078  Biso   1.000  C
  C358     1.0000 0.86920  0.53290  0.68922  Biso   1.000  C
  C359     1.0000 0.19957  0.20253  0.14411  Biso   1.000  C
  C360     1.0000 0.79747  0.99703  0.14411  Biso   1.000  C
  C361     1.0000 0.00297  0.80043  0.14411  Biso   1.000  C
  C362     1.0000 0.53587  0.86623  0.02255  Biso   1.000  C
  C363     1.0000 0.86623  0.53587  0.47745  Biso   1.000  C
  C364     1.0000 0.20253  0.19957  0.35589  Biso   1.000  C
  C365     1.0000 0.66370  0.13080  0.68922  Biso   1.000  C
  C366     1.0000 0.46710  0.33630  0.68922  Biso   1.000  C
  C367     1.0000 0.46413  0.33037  0.47745  Biso   1.000  C
  C368     1.0000 0.66963  0.13377  0.47745  Biso   1.000  C
  C369     1.0000 0.99703  0.79747  0.35589  Biso   1.000  C
  C370     1.0000 0.80043  0.00297  0.35589  Biso   1.000  C
  C371     1.0000 0.33037  0.46413  0.02255  Biso   1.000  C
  C372     1.0000 0.13377  0.66963  0.02255  Biso   1.000  C
  C373     1.0000 0.49660  0.17770  0.21847  Biso   1.000  C
  C374     1.0000 0.82230  0.31890  0.21847  Biso   1.000  C
  C375     1.0000 0.68110  0.50340  0.21847  Biso   1.000  C
  C376     1.0000 0.17770  0.49660  0.28153  Biso   1.000  C
  C377     1.0000 0.16327  0.51103  0.55180  Biso   1.000  C
  C378     1.0000 0.48897  0.65223  0.55180  Biso   1.000  C
  C379     1.0000 0.34777  0.83673  0.55180  Biso   1.000  C
  C380     1.0000 0.84437  0.82993  0.61486  Biso   1.000  C
  C381     1.0000 0.82993  0.84437  0.88514  Biso   1.000  C
  C382     1.0000 0.51103  0.16327  0.94820  Biso   1.000  C
  C383     1.0000 0.31890  0.82230  0.28153  Biso   1.000  C
  C384     1.0000 0.50340  0.68110  0.28153  Biso   1.000  C
  C385     1.0000 0.15563  0.98557  0.88514  Biso   1.000  C
  C386     1.0000 0.01443  0.17007  0.88514  Biso   1.000  C
  C387     1.0000 0.65223  0.48897  0.94820  Biso   1.000  C
  C388     1.0000 0.83673  0.34777  0.94820  Biso   1.000  C
  C389     1.0000 0.98557  0.15563  0.61486  Biso   1.000  C
  C390     1.0000 0.17007  0.01443  0.61486  Biso   1.000  C
  C391     1.0000 0.50340  0.82230  0.78153  Biso   1.000  C
  C392     1.0000 0.17770  0.68110  0.78153  Biso   1.000  C
  C393     1.0000 0.31890  0.49660  0.78153  Biso   1.000  C
  C394     1.0000 0.82230  0.50340  0.71847  Biso   1.000  C
  C395     1.0000 0.17007  0.15563  0.11486  Biso   1.000  C
  C396     1.0000 0.84437  0.01443  0.11486  Biso   1.000  C
  C397     1.0000 0.98557  0.82993  0.11486  Biso   1.000  C
  C398     1.0000 0.48897  0.83673  0.05180  Biso   1.000  C
  C399     1.0000 0.83673  0.48897  0.44820  Biso   1.000  C
  C400     1.0000 0.15563  0.17007  0.38514  Biso   1.000  C
  C401     1.0000 0.68110  0.17770  0.71847  Biso   1.000  C
  C402     1.0000 0.49660  0.31890  0.71847  Biso   1.000  C
  C403     1.0000 0.51103  0.34777  0.44820  Biso   1.000  C
  C404     1.0000 0.65223  0.16327  0.44820  Biso   1.000  C
  C405     1.0000 0.01443  0.84437  0.38514  Biso   1.000  C
  C406     1.0000 0.82993  0.98557  0.38514  Biso   1.000  C
  C407     1.0000 0.34777  0.51103  0.05180  Biso   1.000  C
  C408     1.0000 0.16327  0.65223  0.05180  Biso   1.000  C
  C409     1.0000 0.45310  0.17530  0.24330  Biso   1.000  C
  C410     1.0000 0.82470  0.27780  0.24330  Biso   1.000  C
  C411     1.0000 0.72220  0.54690  0.24330  Biso   1.000  C
  C412     1.0000 0.17530  0.45310  0.25670  Biso   1.000  C
  C413     1.0000 0.11977  0.50863  0.57663  Biso   1.000  C
  C414     1.0000 0.49137  0.61113  0.57663  Biso   1.000  C
  C415     1.0000 0.38887  0.88023  0.57663  Biso   1.000  C
  C416     1.0000 0.84197  0.78643  0.59003  Biso   1.000  C
  C417     1.0000 0.78643  0.84197  0.90997  Biso   1.000  C
  C418     1.0000 0.50863  0.11977  0.92337  Biso   1.000  C
  C419     1.0000 0.27780  0.82470  0.25670  Biso   1.000  C
  C420     1.0000 0.54690  0.72220  0.25670  Biso   1.000  C
  C421     1.0000 0.15803  0.94447  0.90997  Biso   1.000  C
  C422     1.0000 0.05553  0.21357  0.90997  Biso   1.000  C
  C423     1.0000 0.61113  0.49137  0.92337  Biso   1.000  C
  C424     1.0000 0.88023  0.38887  0.92337  Biso   1.000  C
  C425     1.0000 0.94447  0.15803  0.59003  Biso   1.000  C
  C426     1.0000 0.21357  0.05553  0.59003  Biso   1.000  C
  C427     1.0000 0.54690  0.82470  0.75670  Biso   1.000  C
  C428     1.0000 0.17530  0.72220  0.75670  Biso   1.000  C
  C429     1.0000 0.27780  0.45310  0.75670  Biso   1.000  C
  C430     1.0000 0.82470  0.54690  0.74330  Biso   1.000  C
  C431     1.0000 0.21357  0.15803  0.09003  Biso   1.000  C
  C432     1.0000 0.84197  0.05553  0.09003  Biso   1.000  C
  C433     1.0000 0.94447  0.78643  0.09003  Biso   1.000  C
  C434     1.0000 0.49137  0.88023  0.07663  Biso   1.000  C
  C435     1.0000 0.88023  0.49137  0.42337  Biso   1.000  C
  C436     1.0000 0.15803  0.21357  0.40997  Biso   1.000  C
  C437     1.0000 0.72220  0.17530  0.74330  Biso   1.000  C
  C438     1.0000 0.45310  0.27780  0.74330  Biso   1.000  C
  C439     1.0000 0.50863  0.38887  0.42337  Biso   1.000  C
  C440     1.0000 0.61113  0.11977  0.42337  Biso   1.000  C
  C441     1.0000 0.05553  0.84197  0.40997  Biso   1.000  C
  C442     1.0000 0.78643  0.94447  0.40997  Biso   1.000  C
  C443     1.0000 0.38887  0.50863  0.07663  Biso   1.000  C
  C444     1.0000 0.11977  0.61113  0.07663  Biso   1.000  C
  C445     1.0000 0.56580  0.22940  0.22003  Biso   1.000  C
  C446     1.0000 0.77060  0.33640  0.22003  Biso   1.000  C
  C447     1.0000 0.66360  0.43420  0.22003  Biso   1.000  C
  C448     1.0000 0.22940  0.56580  0.27997  Biso   1.000  C
  C449     1.0000 0.23247  0.56273  0.55336  Biso   1.000  C
  C450     1.0000 0.43727  0.66973  0.55336  Biso   1.000  C
  C451     1.0000 0.33027  0.76753  0.55336  Biso   1.000  C
  C452     1.0000 0.89607  0.89913  0.61330  Biso   1.000  C
  C453     1.0000 0.89913  0.89607  0.88670  Biso   1.000  C
  C454     1.0000 0.56273  0.23247  0.94664  Biso   1.000  C
  C455     1.0000 0.33640  0.77060  0.27997  Biso   1.000  C
  C456     1.0000 0.43420  0.66360  0.27997  Biso   1.000  C
  C457     1.0000 0.10393  0.00307  0.88670  Biso   1.000  C
  C458     1.0000 0.99693  0.10087  0.88670  Biso   1.000  C
  C459     1.0000 0.66973  0.43727  0.94664  Biso   1.000  C
  C460     1.0000 0.76753  0.33027  0.94664  Biso   1.000  C
  C461     1.0000 0.00307  0.10393  0.61330  Biso   1.000  C
  C462     1.0000 0.10087  0.99693  0.61330  Biso   1.000  C
  C463     1.0000 0.43420  0.77060  0.77997  Biso   1.000  C
  C464     1.0000 0.22940  0.66360  0.77997  Biso   1.000  C
  C465     1.0000 0.33640  0.56580  0.77997  Biso   1.000  C
  C466     1.0000 0.77060  0.43420  0.72003  Biso   1.000  C
  C467     1.0000 0.10087  0.10393  0.11330  Biso   1.000  C
  C468     1.0000 0.89607  0.99693  0.11330  Biso   1.000  C
  C469     1.0000 0.00307  0.89913  0.11330  Biso   1.000  C
  C470     1.0000 0.43727  0.76753  0.05336  Biso   1.000  C
  C471     1.0000 0.76753  0.43727  0.44664  Biso   1.000  C
  C472     1.0000 0.10393  0.10087  0.38670  Biso   1.000  C
  C473     1.0000 0.66360  0.22940  0.72003  Biso   1.000  C
  C474     1.0000 0.56580  0.33640  0.72003  Biso   1.000  C
  C475     1.0000 0.56273  0.33027  0.44664  Biso   1.000  C
  C476     1.0000 0.66973  0.23247  0.44664  Biso   1.000  C
  C477     1.0000 0.99693  0.89607  0.38670  Biso   1.000  C
  C478     1.0000 0.89913  0.00307  0.38670  Biso   1.000  C
  C479     1.0000 0.33027  0.56273  0.05336  Biso   1.000  C
  C480     1.0000 0.23247  0.66973  0.05336  Biso   1.000  C
  O217     1.0000 0.29990  0.10660  0.15750  Biso   1.000  O
  O218     1.0000 0.89340  0.19330  0.15750  Biso   1.000  O
  O219     1.0000 0.80670  0.70010  0.15750  Biso   1.000  O
  O220     1.0000 0.10660  0.29990  0.34250  Biso   1.000  O
  O221     1.0000 0.96657  0.43993  0.49083  Biso   1.000  O
  O222     1.0000 0.56007  0.52663  0.49083  Biso   1.000  O
  O223     1.0000 0.47337  0.03343  0.49083  Biso   1.000  O
  O224     1.0000 0.77327  0.63323  0.67583  Biso   1.000  O
  O225     1.0000 0.63323  0.77327  0.82417  Biso   1.000  O
  O226     1.0000 0.43993  0.96657  0.00917  Biso   1.000  O
  O227     1.0000 0.19330  0.89340  0.34250  Biso   1.000  O
  O228     1.0000 0.70010  0.80670  0.34250  Biso   1.000  O
  O229     1.0000 0.22673  0.85997  0.82417  Biso   1.000  O
  O230     1.0000 0.14003  0.36677  0.82417  Biso   1.000  O
  O231     1.0000 0.52663  0.56007  0.00917  Biso   1.000  O
  O232     1.0000 0.03343  0.47337  0.00917  Biso   1.000  O
  O233     1.0000 0.85997  0.22673  0.67583  Biso   1.000  O
  O234     1.0000 0.36677  0.14003  0.67583  Biso   1.000  O
  O235     1.0000 0.70010  0.89340  0.84250  Biso   1.000  O
  O236     1.0000 0.10660  0.80670  0.84250  Biso   1.000  O
  O237     1.0000 0.19330  0.29990  0.84250  Biso   1.000  O
  O238     1.0000 0.89340  0.70010  0.65750  Biso   1.000  O
  O239     1.0000 0.36677  0.22673  0.17583  Biso   1.000  O
  O240     1.0000 0.77327  0.14003  0.17583  Biso   1.000  O
  O241     1.0000 0.85997  0.63323  0.17583  Biso   1.000  O
  O242     1.0000 0.56007  0.03343  0.99083  Biso   1.000  O
  O243     1.0000 0.03343  0.56007  0.50917  Biso   1.000  O
  O244     1.0000 0.22673  0.36677  0.32417  Biso   1.000  O
  O245     1.0000 0.80670  0.10660  0.65750  Biso   1.000  O
  O246     1.0000 0.29990  0.19330  0.65750  Biso   1.000  O
  O247     1.0000 0.43993  0.47337  0.50917  Biso   1.000  O
  O248     1.0000 0.52663  0.96657  0.50917  Biso   1.000  O
  O249     1.0000 0.14003  0.77327  0.32417  Biso   1.000  O
  O250     1.0000 0.63323  0.85997  0.32417  Biso   1.000  O
  O251     1.0000 0.47337  0.43993  0.99083  Biso   1.000  O
  O252     1.0000 0.96657  0.52663  0.99083  Biso   1.000  O
  O253     1.0000 0.24140  0.93100  0.10770  Biso   1.000  O
  O254     1.0000 0.06900  0.31040  0.10770  Biso   1.000  O
  O255     1.0000 0.68960  0.75860  0.10770  Biso   1.000  O
  O256     1.0000 0.93100  0.24140  0.39230  Biso   1.000  O
  O257     1.0000 0.90807  0.26433  0.44103  Biso   1.000  O
  O258     1.0000 0.73567  0.64373  0.44103  Biso   1.000  O
  O259     1.0000 0.35627  0.09193  0.44103  Biso   1.000  O
  O260     1.0000 0.59767  0.57473  0.72563  Biso   1.000  O
  O261     1.0000 0.57473  0.59767  0.77437  Biso   1.000  O
  O262     1.0000 0.26433  0.90807  0.05897  Biso   1.000  O
  O263     1.0000 0.31040  0.06900  0.39230  Biso   1.000  O
  O264     1.0000 0.75860  0.68960  0.39230  Biso   1.000  O
  O265     1.0000 0.40233  0.97707  0.77437  Biso   1.000  O
  O266     1.0000 0.02293  0.42527  0.77437  Biso   1.000  O
  O267     1.0000 0.64373  0.73567  0.05897  Biso   1.000  O
  O268     1.0000 0.09193  0.35627  0.05897  Biso   1.000  O
  O269     1.0000 0.97707  0.40233  0.72563  Biso   1.000  O
  O270     1.0000 0.42527  0.02293  0.72563  Biso   1.000  O
  O271     1.0000 0.75860  0.06900  0.89230  Biso   1.000  O
  O272     1.0000 0.93100  0.68960  0.89230  Biso   1.000  O
  O273     1.0000 0.31040  0.24140  0.89230  Biso   1.000  O
  O274     1.0000 0.06900  0.75860  0.60770  Biso   1.000  O
  O275     1.0000 0.42527  0.40233  0.22563  Biso   1.000  O
  O276     1.0000 0.59767  0.02293  0.22563  Biso   1.000  O
  O277     1.0000 0.97707  0.57473  0.22563  Biso   1.000  O
  O278     1.0000 0.73567  0.09193  0.94103  Biso   1.000  O
  O279     1.0000 0.09193  0.73567  0.55897  Biso   1.000  O
  O280     1.0000 0.40233  0.42527  0.27437  Biso   1.000  O
  O281     1.0000 0.68960  0.93100  0.60770  Biso   1.000  O
  O282     1.0000 0.24140  0.31040  0.60770  Biso   1.000  O
  O283     1.0000 0.26433  0.35627  0.55897  Biso   1.000  O
  O284     1.0000 0.64373  0.90807  0.55897  Biso   1.000  O
  O285     1.0000 0.02293  0.59767  0.27437  Biso   1.000  O
  O286     1.0000 0.57473  0.97707  0.27437  Biso   1.000  O
  O287     1.0000 0.35627  0.26433  0.94103  Biso   1.000  O
  O288     1.0000 0.90807  0.64373  0.94103  Biso   1.000  O
  C481     1.0000 0.15080  0.85570  0.07650  Biso   1.000  C
  C482     1.0000 0.14430  0.29510  0.07650  Biso   1.000  C
  C483     1.0000 0.70490  0.84920  0.07650  Biso   1.000  C
  C484     1.0000 0.85570  0.15080  0.42350  Biso   1.000  C
  C485     1.0000 0.81747  0.18903  0.40983  Biso   1.000  C
  C486     1.0000 0.81097  0.62843  0.40983  Biso   1.000  C
  C487     1.0000 0.37157  0.18253  0.40983  Biso   1.000  C
  C488     1.0000 0.52237  0.48413  0.75683  Biso   1.000  C
  C489     1.0000 0.48413  0.52237  0.74317  Biso   1.000  C
  C490     1.0000 0.18903  0.81747  0.09017  Biso   1.000  C
  C491     1.0000 0.29510  0.14430  0.42350  Biso   1.000  C
  C492     1.0000 0.84920  0.70490  0.42350  Biso   1.000  C
  C493     1.0000 0.47763  0.96177  0.74317  Biso   1.000  C
  C494     1.0000 0.03823  0.51587  0.74317  Biso   1.000  C
  C495     1.0000 0.62843  0.81097  0.09017  Biso   1.000  C
  C496     1.0000 0.18253  0.37157  0.09017  Biso   1.000  C
  C497     1.0000 0.96177  0.47763  0.75683  Biso   1.000  C
  C498     1.0000 0.51587  0.03823  0.75683  Biso   1.000  C
  C499     1.0000 0.84920  0.14430  0.92350  Biso   1.000  C
  C500     1.0000 0.85570  0.70490  0.92350  Biso   1.000  C
  C501     1.0000 0.29510  0.15080  0.92350  Biso   1.000  C
  C502     1.0000 0.14430  0.84920  0.57650  Biso   1.000  C
  C503     1.0000 0.51587  0.47763  0.25683  Biso   1.000  C
  C504     1.0000 0.52237  0.03823  0.25683  Biso   1.000  C
  C505     1.0000 0.96177  0.48413  0.25683  Biso   1.000  C
  C506     1.0000 0.81097  0.18253  0.90983  Biso   1.000  C
  C507     1.0000 0.18253  0.81097  0.59017  Biso   1.000  C
  C508     1.0000 0.47763  0.51587  0.24317  Biso   1.000  C
  C509     1.0000 0.70490  0.85570  0.57650  Biso   1.000  C
  C510     1.0000 0.15080  0.29510  0.57650  Biso   1.000  C
  C511     1.0000 0.18903  0.37157  0.59017  Biso   1.000  C
  C512     1.0000 0.62843  0.81747  0.59017  Biso   1.000  C
  C513     1.0000 0.03823  0.52237  0.24317  Biso   1.000  C
  C514     1.0000 0.48413  0.96177  0.24317  Biso   1.000  C
  C515     1.0000 0.37157  0.18903  0.90983  Biso   1.000  C
  C516     1.0000 0.81747  0.62843  0.90983  Biso   1.000  C
  C517     1.0000 0.19420  0.92840  0.08730  Biso   1.000  C
  C518     1.0000 0.07160  0.26580  0.08730  Biso   1.000  C
  C519     1.0000 0.73420  0.80580  0.08730  Biso   1.000  C
  C520     1.0000 0.92840  0.19420  0.41270  Biso   1.000  C
  C521     1.0000 0.86087  0.26173  0.42063  Biso   1.000  C
  C522     1.0000 0.73827  0.59913  0.42063  Biso   1.000  C
  C523     1.0000 0.40087  0.13913  0.42063  Biso   1.000  C
  C524     1.0000 0.59507  0.52753  0.74603  Biso   1.000  C
  C525     1.0000 0.52753  0.59507  0.75397  Biso   1.000  C
  C526     1.0000 0.26173  0.86087  0.07937  Biso   1.000  C
  C527     1.0000 0.26580  0.07160  0.41270  Biso   1.000  C
  C528     1.0000 0.80580  0.73420  0.41270  Biso   1.000  C
  C529     1.0000 0.40493  0.93247  0.75397  Biso   1.000  C
  C530     1.0000 0.06753  0.47247  0.75397  Biso   1.000  C
  C531     1.0000 0.59913  0.73827  0.07937  Biso   1.000  C
  C532     1.0000 0.13913  0.40087  0.07937  Biso   1.000  C
  C533     1.0000 0.93247  0.40493  0.74603  Biso   1.000  C
  C534     1.0000 0.47247  0.06753  0.74603  Biso   1.000  C
  C535     1.0000 0.80580  0.07160  0.91270  Biso   1.000  C
  C536     1.0000 0.92840  0.73420  0.91270  Biso   1.000  C
  C537     1.0000 0.26580  0.19420  0.91270  Biso   1.000  C
  C538     1.0000 0.07160  0.80580  0.58730  Biso   1.000  C
  C539     1.0000 0.47247  0.40493  0.24603  Biso   1.000  C
  C540     1.0000 0.59507  0.06753  0.24603  Biso   1.000  C
  C541     1.0000 0.93247  0.52753  0.24603  Biso   1.000  C
  C542     1.0000 0.73827  0.13913  0.92063  Biso   1.000  C
  C543     1.0000 0.13913  0.73827  0.57937  Biso   1.000  C
  C544     1.0000 0.40493  0.47247  0.25397  Biso   1.000  C
  C545     1.0000 0.73420  0.92840  0.58730  Biso   1.000  C
  C546     1.0000 0.19420  0.26580  0.58730  Biso   1.000  C
  C547     1.0000 0.26173  0.40087  0.57937  Biso   1.000  C
  C548     1.0000 0.59913  0.86087  0.57937  Biso   1.000  C
  C549     1.0000 0.06753  0.59507  0.25397  Biso   1.000  C
  C550     1.0000 0.52753  0.93247  0.25397  Biso   1.000  C
  C551     1.0000 0.40087  0.26173  0.92063  Biso   1.000  C
  C552     1.0000 0.86087  0.59913  0.92063  Biso   1.000  C
  C553     1.0000 0.23800  0.86890  0.10700  Biso   1.000  C
  C554     1.0000 0.13110  0.36910  0.10700  Biso   1.000  C
  C555     1.0000 0.63090  0.76200  0.10700  Biso   1.000  C
  C556     1.0000 0.86890  0.23800  0.39300  Biso   1.000  C
  C557     1.0000 0.90467  0.20223  0.44033  Biso   1.000  C
  C558     1.0000 0.79777  0.70243  0.44033  Biso   1.000  C
  C559     1.0000 0.29757  0.09533  0.44033  Biso   1.000  C
  C560     1.0000 0.53557  0.57133  0.72633  Biso   1.000  C
  C561     1.0000 0.57133  0.53557  0.77367  Biso   1.000  C
  C562     1.0000 0.20223  0.90467  0.05967  Biso   1.000  C
  C563     1.0000 0.36910  0.13110  0.39300  Biso   1.000  C
  C564     1.0000 0.76200  0.63090  0.39300  Biso   1.000  C
  C565     1.0000 0.46443  0.03577  0.77367  Biso   1.000  C
  C566     1.0000 0.96423  0.42867  0.77367  Biso   1.000  C
  C567     1.0000 0.70243  0.79777  0.05967  Biso   1.000  C
  C568     1.0000 0.09533  0.29757  0.05967  Biso   1.000  C
  C569     1.0000 0.03577  0.46443  0.72633  Biso   1.000  C
  C570     1.0000 0.42867  0.96423  0.72633  Biso   1.000  C
  C571     1.0000 0.76200  0.13110  0.89300  Biso   1.000  C
  C572     1.0000 0.86890  0.63090  0.89300  Biso   1.000  C
  C573     1.0000 0.36910  0.23800  0.89300  Biso   1.000  C
  C574     1.0000 0.13110  0.76200  0.60700  Biso   1.000  C
  C575     1.0000 0.42867  0.46443  0.22633  Biso   1.000  C
  C576     1.0000 0.53557  0.96423  0.22633  Biso   1.000  C
  C577     1.0000 0.03577  0.57133  0.22633  Biso   1.000  C
  C578     1.0000 0.79777  0.09533  0.94033  Biso   1.000  C
  C579     1.0000 0.09533  0.79777  0.55967  Biso   1.000  C
  C580     1.0000 0.46443  0.42867  0.27367  Biso   1.000  C
  C581     1.0000 0.63090  0.86890  0.60700  Biso   1.000  C
  C582     1.0000 0.23800  0.36910  0.60700  Biso   1.000  C
  C583     1.0000 0.20223  0.29757  0.55967  Biso   1.000  C
  C584     1.0000 0.70243  0.90467  0.55967  Biso   1.000  C
  C585     1.0000 0.96423  0.53557  0.27367  Biso   1.000  C
  C586     1.0000 0.57133  0.03577  0.27367  Biso   1.000  C
  C587     1.0000 0.29757  0.20223  0.94033  Biso   1.000  C
  C588     1.0000 0.90467  0.70243  0.94033  Biso   1.000  C
  Cl109    1.0000 0.37800  0.09480  0.25530  Biso   1.000  Cl
  Cl110    1.0000 0.90520  0.28320  0.25530  Biso   1.000  Cl
  Cl111    1.0000 0.71680  0.62200  0.25530  Biso   1.000  Cl
  Cl112    1.0000 0.09480  0.37800  0.24470  Biso   1.000  Cl
  Cl113    1.0000 0.04467  0.42813  0.58863  Biso   1.000  Cl
  Cl114    1.0000 0.57187  0.61653  0.58863  Biso   1.000  Cl
  Cl115    1.0000 0.38347  0.95533  0.58863  Biso   1.000  Cl
  Cl116    1.0000 0.76147  0.71133  0.57803  Biso   1.000  Cl
  Cl117    1.0000 0.71133  0.76147  0.92197  Biso   1.000  Cl
  Cl118    1.0000 0.42813  0.04467  0.91137  Biso   1.000  Cl
  Cl119    1.0000 0.28320  0.90520  0.24470  Biso   1.000  Cl
  Cl120    1.0000 0.62200  0.71680  0.24470  Biso   1.000  Cl
  Cl121    1.0000 0.23853  0.94987  0.92197  Biso   1.000  Cl
  Cl122    1.0000 0.05013  0.28867  0.92197  Biso   1.000  Cl
  Cl123    1.0000 0.61653  0.57187  0.91137  Biso   1.000  Cl
  Cl124    1.0000 0.95533  0.38347  0.91137  Biso   1.000  Cl
  Cl125    1.0000 0.94987  0.23853  0.57803  Biso   1.000  Cl
  Cl126    1.0000 0.28867  0.05013  0.57803  Biso   1.000  Cl
  Cl127    1.0000 0.62200  0.90520  0.74470  Biso   1.000  Cl
  Cl128    1.0000 0.09480  0.71680  0.74470  Biso   1.000  Cl
  Cl129    1.0000 0.28320  0.37800  0.74470  Biso   1.000  Cl
  Cl130    1.0000 0.90520  0.62200  0.75530  Biso   1.000  Cl
  Cl131    1.0000 0.28867  0.23853  0.07803  Biso   1.000  Cl
  Cl132    1.0000 0.76147  0.05013  0.07803  Biso   1.000  Cl
  Cl133    1.0000 0.94987  0.71133  0.07803  Biso   1.000  Cl
  Cl134    1.0000 0.57187  0.95533  0.08863  Biso   1.000  Cl
  Cl135    1.0000 0.95533  0.57187  0.41137  Biso   1.000  Cl
  Cl136    1.0000 0.23853  0.28867  0.42197  Biso   1.000  Cl
  Cl137    1.0000 0.71680  0.09480  0.75530  Biso   1.000  Cl
  Cl138    1.0000 0.37800  0.28320  0.75530  Biso   1.000  Cl
  Cl139    1.0000 0.42813  0.38347  0.41137  Biso   1.000  Cl
  Cl140    1.0000 0.61653  0.04467  0.41137  Biso   1.000  Cl
  Cl141    1.0000 0.05013  0.76147  0.42197  Biso   1.000  Cl
  Cl142    1.0000 0.71133  0.94987  0.42197  Biso   1.000  Cl
  Cl143    1.0000 0.38347  0.42813  0.08863  Biso   1.000  Cl
  Cl144    1.0000 0.04467  0.61653  0.08863  Biso   1.000  Cl
  Cl145    1.0000 0.56970  0.34590  0.29390  Biso   1.000  Cl
  Cl146    1.0000 0.65410  0.22380  0.29390  Biso   1.000  Cl
  Cl147    1.0000 0.77620  0.43030  0.29390  Biso   1.000  Cl
  Cl148    1.0000 0.34590  0.56970  0.20610  Biso   1.000  Cl
  Cl149    1.0000 0.23637  0.67923  0.62723  Biso   1.000  Cl
  Cl150    1.0000 0.32077  0.55713  0.62723  Biso   1.000  Cl
  Cl151    1.0000 0.44287  0.76363  0.62723  Biso   1.000  Cl
  Cl152    1.0000 0.01257  0.90303  0.53943  Biso   1.000  Cl
  Cl153    1.0000 0.90303  0.01257  0.96057  Biso   1.000  Cl
  Cl154    1.0000 0.67923  0.23637  0.87277  Biso   1.000  Cl
  Cl155    1.0000 0.22380  0.65410  0.20610  Biso   1.000  Cl
  Cl156    1.0000 0.43030  0.77620  0.20610  Biso   1.000  Cl
  Cl157    1.0000 0.98743  0.89047  0.96057  Biso   1.000  Cl
  Cl158    1.0000 0.10953  0.09697  0.96057  Biso   1.000  Cl
  Cl159    1.0000 0.55713  0.32077  0.87277  Biso   1.000  Cl
  Cl160    1.0000 0.76363  0.44287  0.87277  Biso   1.000  Cl
  Cl161    1.0000 0.89047  0.98743  0.53943  Biso   1.000  Cl
  Cl162    1.0000 0.09697  0.10953  0.53943  Biso   1.000  Cl
  Cl163    1.0000 0.43030  0.65410  0.70610  Biso   1.000  Cl
  Cl164    1.0000 0.34590  0.77620  0.70610  Biso   1.000  Cl
  Cl165    1.0000 0.22380  0.56970  0.70610  Biso   1.000  Cl
  Cl166    1.0000 0.65410  0.43030  0.79390  Biso   1.000  Cl
  Cl167    1.0000 0.09697  0.98743  0.03943  Biso   1.000  Cl
  Cl168    1.0000 0.01257  0.10953  0.03943  Biso   1.000  Cl
  Cl169    1.0000 0.89047  0.90303  0.03943  Biso   1.000  Cl
  Cl170    1.0000 0.32077  0.76363  0.12723  Biso   1.000  Cl
  Cl171    1.0000 0.76363  0.32077  0.37277  Biso   1.000  Cl
  Cl172    1.0000 0.98743  0.09697  0.46057  Biso   1.000  Cl
  Cl173    1.0000 0.77620  0.34590  0.79390  Biso   1.000  Cl
  Cl174    1.0000 0.56970  0.22380  0.79390  Biso   1.000  Cl
  Cl175    1.0000 0.67923  0.44287  0.37277  Biso   1.000  Cl
  Cl176    1.0000 0.55713  0.23637  0.37277  Biso   1.000  Cl
  Cl177    1.0000 0.10953  0.01257  0.46057  Biso   1.000  Cl
  Cl178    1.0000 0.90303  0.89047  0.46057  Biso   1.000  Cl
  Cl179    1.0000 0.44287  0.67923  0.12723  Biso   1.000  Cl
  Cl180    1.0000 0.23637  0.55713  0.12723  Biso   1.000  Cl
  Cl181    1.0000 0.62440  0.21320  0.19950  Biso   1.000  Cl
  Cl182    1.0000 0.78680  0.41120  0.19950  Biso   1.000  Cl
  Cl183    1.0000 0.58880  0.37560  0.19950  Biso   1.000  Cl
  Cl184    1.0000 0.21320  0.62440  0.30050  Biso   1.000  Cl
  Cl185    1.0000 0.29107  0.54653  0.53283  Biso   1.000  Cl
  Cl186    1.0000 0.45347  0.74453  0.53283  Biso   1.000  Cl
  Cl187    1.0000 0.25547  0.70893  0.53283  Biso   1.000  Cl
  Cl188    1.0000 0.87987  0.95773  0.63383  Biso   1.000  Cl
  Cl189    1.0000 0.95773  0.87987  0.86617  Biso   1.000  Cl
  Cl190    1.0000 0.54653  0.29107  0.96717  Biso   1.000  Cl
  Cl191    1.0000 0.41120  0.78680  0.30050  Biso   1.000  Cl
  Cl192    1.0000 0.37560  0.58880  0.30050  Biso   1.000  Cl
  Cl193    1.0000 0.12013  0.07787  0.86617  Biso   1.000  Cl
  Cl194    1.0000 0.92213  0.04227  0.86617  Biso   1.000  Cl
  Cl195    1.0000 0.74453  0.45347  0.96717  Biso   1.000  Cl
  Cl196    1.0000 0.70893  0.25547  0.96717  Biso   1.000  Cl
  Cl197    1.0000 0.07787  0.12013  0.63383  Biso   1.000  Cl
  Cl198    1.0000 0.04227  0.92213  0.63383  Biso   1.000  Cl
  Cl199    1.0000 0.37560  0.78680  0.80050  Biso   1.000  Cl
  Cl200    1.0000 0.21320  0.58880  0.80050  Biso   1.000  Cl
  Cl201    1.0000 0.41120  0.62440  0.80050  Biso   1.000  Cl
  Cl202    1.0000 0.78680  0.37560  0.69950  Biso   1.000  Cl
  Cl203    1.0000 0.04227  0.12013  0.13383  Biso   1.000  Cl
  Cl204    1.0000 0.87987  0.92213  0.13383  Biso   1.000  Cl
  Cl205    1.0000 0.07787  0.95773  0.13383  Biso   1.000  Cl
  Cl206    1.0000 0.45347  0.70893  0.03283  Biso   1.000  Cl
  Cl207    1.0000 0.70893  0.45347  0.46717  Biso   1.000  Cl
  Cl208    1.0000 0.12013  0.04227  0.36617  Biso   1.000  Cl
  Cl209    1.0000 0.58880  0.21320  0.69950  Biso   1.000  Cl
  Cl210    1.0000 0.62440  0.41120  0.69950  Biso   1.000  Cl
  Cl211    1.0000 0.54653  0.25547  0.46717  Biso   1.000  Cl
  Cl212    1.0000 0.74453  0.29107  0.46717  Biso   1.000  Cl
  Cl213    1.0000 0.92213  0.87987  0.36617  Biso   1.000  Cl
  Cl214    1.0000 0.95773  0.07787  0.36617  Biso   1.000  Cl
  Cl215    1.0000 0.25547  0.54653  0.03283  Biso   1.000  Cl
  Cl216    1.0000 0.29107  0.74453  0.03283  Biso   1.000  Cl
  O289     1.0000 0.52000  0.05900  0.21860  Biso   1.000  O
  O290     1.0000 0.94100  0.46100  0.21860  Biso   1.000  O
  O291     1.0000 0.53900  0.48000  0.21860  Biso   1.000  O
  O292     1.0000 0.05900  0.52000  0.28140  Biso   1.000  O
  O293     1.0000 0.18667  0.39233  0.55193  Biso   1.000  O
  O294     1.0000 0.60767  0.79433  0.55193  Biso   1.000  O
  O295     1.0000 0.20567  0.81333  0.55193  Biso   1.000  O
  O296     1.0000 0.72567  0.85333  0.61473  Biso   1.000  O
  O297     1.0000 0.85333  0.72567  0.88527  Biso   1.000  O
  O298     1.0000 0.39233  0.18667  0.94807  Biso   1.000  O
  O299     1.0000 0.46100  0.94100  0.28140  Biso   1.000  O
  O300     1.0000 0.48000  0.53900  0.28140  Biso   1.000  O
  O301     1.0000 0.27433  0.12767  0.88527  Biso   1.000  O
  O302     1.0000 0.87233  0.14667  0.88527  Biso   1.000  O
  O303     1.0000 0.79433  0.60767  0.94807  Biso   1.000  O
  O304     1.0000 0.81333  0.20567  0.94807  Biso   1.000  O
  O305     1.0000 0.12767  0.27433  0.61473  Biso   1.000  O
  O306     1.0000 0.14667  0.87233  0.61473  Biso   1.000  O
  O307     1.0000 0.48000  0.94100  0.78140  Biso   1.000  O
  O308     1.0000 0.05900  0.53900  0.78140  Biso   1.000  O
  O309     1.0000 0.46100  0.52000  0.78140  Biso   1.000  O
  O310     1.0000 0.94100  0.48000  0.71860  Biso   1.000  O
  O311     1.0000 0.14667  0.27433  0.11473  Biso   1.000  O
  O312     1.0000 0.72567  0.87233  0.11473  Biso   1.000  O
  O313     1.0000 0.12767  0.85333  0.11473  Biso   1.000  O
  O314     1.0000 0.60767  0.81333  0.05193  Biso   1.000  O
  O315     1.0000 0.81333  0.60767  0.44807  Biso   1.000  O
  O316     1.0000 0.27433  0.14667  0.38527  Biso   1.000  O
  O317     1.0000 0.53900  0.05900  0.71860  Biso   1.000  O
  O318     1.0000 0.52000  0.46100  0.71860  Biso   1.000  O
  O319     1.0000 0.39233  0.20567  0.44807  Biso   1.000  O
  O320     1.0000 0.79433  0.18667  0.44807  Biso   1.000  O
  O321     1.0000 0.87233  0.72567  0.38527  Biso   1.000  O
  O322     1.0000 0.85333  0.12767  0.38527  Biso   1.000  O
  O323     1.0000 0.20567  0.39233  0.05193  Biso   1.000  O
  O324     1.0000 0.18667  0.79433  0.05193  Biso   1.000  O
  C589     1.0000 0.48700  0.08800  0.21680  Biso   1.000  C
  C590     1.0000 0.91200  0.39900  0.21680  Biso   1.000  C
  C591     1.0000 0.60100  0.51300  0.21680  Biso   1.000  C
  C592     1.0000 0.08800  0.48700  0.28320  Biso   1.000  C
  C593     1.0000 0.15367  0.42133  0.55013  Biso   1.000  C
  C594     1.0000 0.57867  0.73233  0.55013  Biso   1.000  C
  C595     1.0000 0.26767  0.84633  0.55013  Biso   1.000  C
  C596     1.0000 0.75467  0.82033  0.61653  Biso   1.000  C
  C597     1.0000 0.82033  0.75467  0.88347  Biso   1.000  C
  C598     1.0000 0.42133  0.15367  0.94987  Biso   1.000  C
  C599     1.0000 0.39900  0.91200  0.28320  Biso   1.000  C
  C600     1.0000 0.51300  0.60100  0.28320  Biso   1.000  C
  C601     1.0000 0.24533  0.06567  0.88347  Biso   1.000  C
  C602     1.0000 0.93433  0.17967  0.88347  Biso   1.000  C
  C603     1.0000 0.73233  0.57867  0.94987  Biso   1.000  C
  C604     1.0000 0.84633  0.26767  0.94987  Biso   1.000  C
  C605     1.0000 0.06567  0.24533  0.61653  Biso   1.000  C
  C606     1.0000 0.17967  0.93433  0.61653  Biso   1.000  C
  C607     1.0000 0.51300  0.91200  0.78320  Biso   1.000  C
  C608     1.0000 0.08800  0.60100  0.78320  Biso   1.000  C
  C609     1.0000 0.39900  0.48700  0.78320  Biso   1.000  C
  C610     1.0000 0.91200  0.51300  0.71680  Biso   1.000  C
  C611     1.0000 0.17967  0.24533  0.11653  Biso   1.000  C
  C612     1.0000 0.75467  0.93433  0.11653  Biso   1.000  C
  C613     1.0000 0.06567  0.82033  0.11653  Biso   1.000  C
  C614     1.0000 0.57867  0.84633  0.05013  Biso   1.000  C
  C615     1.0000 0.84633  0.57867  0.44987  Biso   1.000  C
  C616     1.0000 0.24533  0.17967  0.38347  Biso   1.000  C
  C617     1.0000 0.60100  0.08800  0.71680  Biso   1.000  C
  C618     1.0000 0.48700  0.39900  0.71680  Biso   1.000  C
  C619     1.0000 0.42133  0.26767  0.44987  Biso   1.000  C
  C620     1.0000 0.73233  0.15367  0.44987  Biso   1.000  C
  C621     1.0000 0.93433  0.75467  0.38347  Biso   1.000  C
  C622     1.0000 0.82033  0.06567  0.38347  Biso   1.000  C
  C623     1.0000 0.26767  0.42133  0.05013  Biso   1.000  C
  C624     1.0000 0.15367  0.73233  0.05013  Biso   1.000  C
  C625     1.0000 0.50620  0.15770  0.23320  Biso   1.000  C
  C626     1.0000 0.84230  0.34850  0.23320  Biso   1.000  C
  C627     1.0000 0.65150  0.49380  0.23320  Biso   1.000  C
  C628     1.0000 0.15770  0.50620  0.26680  Biso   1.000  C
  C629     1.0000 0.17287  0.49103  0.56653  Biso   1.000  C
  C630     1.0000 0.50897  0.68183  0.56653  Biso   1.000  C
  C631     1.0000 0.31817  0.82713  0.56653  Biso   1.000  C
  C632     1.0000 0.82437  0.83953  0.60013  Biso   1.000  C
  C633     1.0000 0.83953  0.82437  0.89987  Biso   1.000  C
  C634     1.0000 0.49103  0.17287  0.93347  Biso   1.000  C
  C635     1.0000 0.34850  0.84230  0.26680  Biso   1.000  C
  C636     1.0000 0.49380  0.65150  0.26680  Biso   1.000  C
  C637     1.0000 0.17563  0.01517  0.89987  Biso   1.000  C
  C638     1.0000 0.98483  0.16047  0.89987  Biso   1.000  C
  C639     1.0000 0.68183  0.50897  0.93347  Biso   1.000  C
  C640     1.0000 0.82713  0.31817  0.93347  Biso   1.000  C
  C641     1.0000 0.01517  0.17563  0.60013  Biso   1.000  C
  C642     1.0000 0.16047  0.98483  0.60013  Biso   1.000  C
  C643     1.0000 0.49380  0.84230  0.76680  Biso   1.000  C
  C644     1.0000 0.15770  0.65150  0.76680  Biso   1.000  C
  C645     1.0000 0.34850  0.50620  0.76680  Biso   1.000  C
  C646     1.0000 0.84230  0.49380  0.73320  Biso   1.000  C
  C647     1.0000 0.16047  0.17563  0.10013  Biso   1.000  C
  C648     1.0000 0.82437  0.98483  0.10013  Biso   1.000  C
  C649     1.0000 0.01517  0.83953  0.10013  Biso   1.000  C
  C650     1.0000 0.50897  0.82713  0.06653  Biso   1.000  C
  C651     1.0000 0.82713  0.50897  0.43347  Biso   1.000  C
  C652     1.0000 0.17563  0.16047  0.39987  Biso   1.000  C
  C653     1.0000 0.65150  0.15770  0.73320  Biso   1.000  C
  C654     1.0000 0.50620  0.34850  0.73320  Biso   1.000  C
  C655     1.0000 0.49103  0.31817  0.43347  Biso   1.000  C
  C656     1.0000 0.68183  0.17287  0.43347  Biso   1.000  C
  C657     1.0000 0.98483  0.82437  0.39987  Biso   1.000  C
  C658     1.0000 0.83953  0.01517  0.39987  Biso   1.000  C
  C659     1.0000 0.31817  0.49103  0.06653  Biso   1.000  C
  C660     1.0000 0.17287  0.68183  0.06653  Biso   1.000  C
  C661     1.0000 0.45900  0.16500  0.25340  Biso   1.000  C
  C662     1.0000 0.83500  0.29400  0.25340  Biso   1.000  C
  C663     1.0000 0.70600  0.54100  0.25340  Biso   1.000  C
  C664     1.0000 0.16500  0.45900  0.24660  Biso   1.000  C
  C665     1.0000 0.12567  0.49833  0.58673  Biso   1.000  C
  C666     1.0000 0.50167  0.62733  0.58673  Biso   1.000  C
  C667     1.0000 0.37267  0.87433  0.58673  Biso   1.000  C
  C668     1.0000 0.83167  0.79233  0.57993  Biso   1.000  C
  C669     1.0000 0.79233  0.83167  0.92007  Biso   1.000  C
  C670     1.0000 0.49833  0.12567  0.91327  Biso   1.000  C
  C671     1.0000 0.29400  0.83500  0.24660  Biso   1.000  C
  C672     1.0000 0.54100  0.70600  0.24660  Biso   1.000  C
  C673     1.0000 0.16833  0.96067  0.92007  Biso   1.000  C
  C674     1.0000 0.03933  0.20767  0.92007  Biso   1.000  C
  C675     1.0000 0.62733  0.50167  0.91327  Biso   1.000  C
  C676     1.0000 0.87433  0.37267  0.91327  Biso   1.000  C
  C677     1.0000 0.96067  0.16833  0.57993  Biso   1.000  C
  C678     1.0000 0.20767  0.03933  0.57993  Biso   1.000  C
  C679     1.0000 0.54100  0.83500  0.74660  Biso   1.000  C
  C680     1.0000 0.16500  0.70600  0.74660  Biso   1.000  C
  C681     1.0000 0.29400  0.45900  0.74660  Biso   1.000  C
  C682     1.0000 0.83500  0.54100  0.75340  Biso   1.000  C
  C683     1.0000 0.20767  0.16833  0.07993  Biso   1.000  C
  C684     1.0000 0.83167  0.03933  0.07993  Biso   1.000  C
  C685     1.0000 0.96067  0.79233  0.07993  Biso   1.000  C
  C686     1.0000 0.50167  0.87433  0.08673  Biso   1.000  C
  C687     1.0000 0.87433  0.50167  0.41327  Biso   1.000  C
  C688     1.0000 0.16833  0.20767  0.42007  Biso   1.000  C
  C689     1.0000 0.70600  0.16500  0.75340  Biso   1.000  C
  C690     1.0000 0.45900  0.29400  0.75340  Biso   1.000  C
  C691     1.0000 0.49833  0.37267  0.41327  Biso   1.000  C
  C692     1.0000 0.62733  0.12567  0.41327  Biso   1.000  C
  C693     1.0000 0.03933  0.83167  0.42007  Biso   1.000  C
  C694     1.0000 0.79233  0.96067  0.42007  Biso   1.000  C
  C695     1.0000 0.37267  0.49833  0.08673  Biso   1.000  C
  C696     1.0000 0.12567  0.62733  0.08673  Biso   1.000  C
  C697     1.0000 0.57060  0.21590  0.22910  Biso   1.000  C
  C698     1.0000 0.78410  0.35470  0.22910  Biso   1.000  C
  C699     1.0000 0.64530  0.42940  0.22910  Biso   1.000  C
  C700     1.0000 0.21590  0.57060  0.27090  Biso   1.000  C
  C701     1.0000 0.23727  0.54923  0.56243  Biso   1.000  C
  C702     1.0000 0.45077  0.68803  0.56243  Biso   1.000  C
  C703     1.0000 0.31197  0.76273  0.56243  Biso   1.000  C
  C704     1.0000 0.88257  0.90393  0.60423  Biso   1.000  C
  C705     1.0000 0.90393  0.88257  0.89577  Biso   1.000  C
  C706     1.0000 0.54923  0.23727  0.93757  Biso   1.000  C
  C707     1.0000 0.35470  0.78410  0.27090  Biso   1.000  C
  C708     1.0000 0.42940  0.64530  0.27090  Biso   1.000  C
  C709     1.0000 0.11743  0.02137  0.89577  Biso   1.000  C
  C710     1.0000 0.97863  0.09607  0.89577  Biso   1.000  C
  C711     1.0000 0.68803  0.45077  0.93757  Biso   1.000  C
  C712     1.0000 0.76273  0.31197  0.93757  Biso   1.000  C
  C713     1.0000 0.02137  0.11743  0.60423  Biso   1.000  C
  C714     1.0000 0.09607  0.97863  0.60423  Biso   1.000  C
  C715     1.0000 0.42940  0.78410  0.77090  Biso   1.000  C
  C716     1.0000 0.21590  0.64530  0.77090  Biso   1.000  C
  C717     1.0000 0.35470  0.57060  0.77090  Biso   1.000  C
  C718     1.0000 0.78410  0.42940  0.72910  Biso   1.000  C
  C719     1.0000 0.09607  0.11743  0.10423  Biso   1.000  C
  C720     1.0000 0.88257  0.97863  0.10423  Biso   1.000  C
  C721     1.0000 0.02137  0.90393  0.10423  Biso   1.000  C
  C722     1.0000 0.45077  0.76273  0.06243  Biso   1.000  C
  C723     1.0000 0.76273  0.45077  0.43757  Biso   1.000  C
  C724     1.0000 0.11743  0.09607  0.39577  Biso   1.000  C
  C725     1.0000 0.64530  0.21590  0.72910  Biso   1.000  C
  C726     1.0000 0.57060  0.35470  0.72910  Biso   1.000  C
  C727     1.0000 0.54923  0.31197  0.43757  Biso   1.000  C
  C728     1.0000 0.68803  0.23727  0.43757  Biso   1.000  C
  C729     1.0000 0.97863  0.88257  0.39577  Biso   1.000  C
  C730     1.0000 0.90393  0.02137  0.39577  Biso   1.000  C
  C731     1.0000 0.31197  0.54923  0.06243  Biso   1.000  C
  C732     1.0000 0.23727  0.68803  0.06243  Biso   1.000  C
  O325     1.0000 0.23500  0.99500  0.10220  Biso   1.000  O
  O326     1.0000 0.00500  0.24000  0.10220  Biso   1.000  O
  O327     1.0000 0.76000  0.76500  0.10220  Biso   1.000  O
  O328     1.0000 0.99500  0.23500  0.39780  Biso   1.000  O
  O329     1.0000 0.90167  0.32833  0.43553  Biso   1.000  O
  O330     1.0000 0.67167  0.57333  0.43553  Biso   1.000  O
  O331     1.0000 0.42667  0.09833  0.43553  Biso   1.000  O
  O332     1.0000 0.66167  0.56833  0.73113  Biso   1.000  O
  O333     1.0000 0.56833  0.66167  0.76887  Biso   1.000  O
  O334     1.0000 0.32833  0.90167  0.06447  Biso   1.000  O
  O335     1.0000 0.24000  0.00500  0.39780  Biso   1.000  O
  O336     1.0000 0.76500  0.76000  0.39780  Biso   1.000  O
  O337     1.0000 0.33833  0.90667  0.76887  Biso   1.000  O
  O338     1.0000 0.09333  0.43167  0.76887  Biso   1.000  O
  O339     1.0000 0.57333  0.67167  0.06447  Biso   1.000  O
  O340     1.0000 0.09833  0.42667  0.06447  Biso   1.000  O
  O341     1.0000 0.90667  0.33833  0.73113  Biso   1.000  O
  O342     1.0000 0.43167  0.09333  0.73113  Biso   1.000  O
  O343     1.0000 0.76500  0.00500  0.89780  Biso   1.000  O
  O344     1.0000 0.99500  0.76000  0.89780  Biso   1.000  O
  O345     1.0000 0.24000  0.23500  0.89780  Biso   1.000  O
  O346     1.0000 0.00500  0.76500  0.60220  Biso   1.000  O
  O347     1.0000 0.43167  0.33833  0.23113  Biso   1.000  O
  O348     1.0000 0.66167  0.09333  0.23113  Biso   1.000  O
  O349     1.0000 0.90667  0.56833  0.23113  Biso   1.000  O
  O350     1.0000 0.67167  0.09833  0.93553  Biso   1.000  O
  O351     1.0000 0.09833  0.67167  0.56447  Biso   1.000  O
  O352     1.0000 0.33833  0.43167  0.26887  Biso   1.000  O
  O353     1.0000 0.76000  0.99500  0.60220  Biso   1.000  O
  O354     1.0000 0.23500  0.24000  0.60220  Biso   1.000  O
  O355     1.0000 0.32833  0.42667  0.56447  Biso   1.000  O
  O356     1.0000 0.57333  0.90167  0.56447  Biso   1.000  O
  O357     1.0000 0.09333  0.66167  0.26887  Biso   1.000  O
  O358     1.0000 0.56833  0.90667  0.26887  Biso   1.000  O
  O359     1.0000 0.42667  0.32833  0.93553  Biso   1.000  O
  O360     1.0000 0.90167  0.57333  0.93553  Biso   1.000  O
  O361     1.0000 0.66300  0.36100  0.06060  Biso   1.000  O
  O362     1.0000 0.63900  0.30200  0.06060  Biso   1.000  O
  O363     1.0000 0.69800  0.33700  0.06060  Biso   1.000  O
  O364     1.0000 0.36100  0.66300  0.43940  Biso   1.000  O
  O365     1.0000 0.32967  0.69433  0.39393  Biso   1.000  O
  O366     1.0000 0.30567  0.63533  0.39393  Biso   1.000  O
  O367     1.0000 0.36467  0.67033  0.39393  Biso   1.000  O
  O368     1.0000 0.02767  0.99633  0.77273  Biso   1.000  O
  O369     1.0000 0.99633  0.02767  0.72727  Biso   1.000  O
  O370     1.0000 0.69433  0.32967  0.10607  Biso   1.000  O
  O371     1.0000 0.30200  0.63900  0.43940  Biso   1.000  O
  O372     1.0000 0.33700  0.69800  0.43940  Biso   1.000  O
  O373     1.0000 0.97233  0.96867  0.72727  Biso   1.000  O
  O374     1.0000 0.03133  0.00367  0.72727  Biso   1.000  O
  O375     1.0000 0.63533  0.30567  0.10607  Biso   1.000  O
  O376     1.0000 0.67033  0.36467  0.10607  Biso   1.000  O
  O377     1.0000 0.96867  0.97233  0.77273  Biso   1.000  O
  O378     1.0000 0.00367  0.03133  0.77273  Biso   1.000  O
  O379     1.0000 0.33700  0.63900  0.93940  Biso   1.000  O
  O380     1.0000 0.36100  0.69800  0.93940  Biso   1.000  O
  O381     1.0000 0.30200  0.66300  0.93940  Biso   1.000  O
  O382     1.0000 0.63900  0.33700  0.56060  Biso   1.000  O
  O383     1.0000 0.00367  0.97233  0.27273  Biso   1.000  O
  O384     1.0000 0.02767  0.03133  0.27273  Biso   1.000  O
  O385     1.0000 0.96867  0.99633  0.27273  Biso   1.000  O
  O386     1.0000 0.30567  0.67033  0.89393  Biso   1.000  O
  O387     1.0000 0.67033  0.30567  0.60607  Biso   1.000  O
  O388     1.0000 0.97233  0.00367  0.22727  Biso   1.000  O
  O389     1.0000 0.69800  0.36100  0.56060  Biso   1.000  O
  O390     1.0000 0.66300  0.30200  0.56060  Biso   1.000  O
  O391     1.0000 0.69433  0.36467  0.60607  Biso   1.000  O
  O392     1.0000 0.63533  0.32967  0.60607  Biso   1.000  O
  O393     1.0000 0.03133  0.02767  0.22727  Biso   1.000  O
  O394     1.0000 0.99633  0.96867  0.22727  Biso   1.000  O
  O395     1.0000 0.36467  0.69433  0.89393  Biso   1.000  O
  O396     1.0000 0.32967  0.63533  0.89393  Biso   1.000  O
