data_image0
_cell_length_a       22.4479
_cell_length_b       22.4479
_cell_length_c       41.172
_cell_angle_alpha    90
_cell_angle_beta     90
_cell_angle_gamma    120

_symmetry_space_group_name_H-M    "P 1"
_symmetry_int_tables_number       1

loop_
  _symmetry_equiv_pos_as_xyz
  'x, y, z'

loop_
  _atom_site_label
  _atom_site_occupancy
  _atom_site_fract_x
  _atom_site_fract_y
  _atom_site_fract_z
  _atom_site_thermal_displace_type
  _atom_site_B_iso_or_equiv
  _atom_site_type_symbol
  Cu1      1.0000 0.43312  0.00822  0.15631  Biso   1.000  Cu
  Cu2      1.0000 0.99178  0.42490  0.15631  Biso   1.000  Cu
  Cu3      1.0000 0.57510  0.56688  0.15631  Biso   1.000  Cu
  Cu4      1.0000 0.00822  0.43312  0.34369  Biso   1.000  Cu
  Cu5      1.0000 0.09979  0.34155  0.48964  Biso   1.000  Cu
  Cu6      1.0000 0.65845  0.75823  0.48964  Biso   1.000  Cu
  Cu7      1.0000 0.24177  0.90021  0.48964  Biso   1.000  Cu
  Cu8      1.0000 0.67489  0.76645  0.67703  Biso   1.000  Cu
  Cu9      1.0000 0.76645  0.67489  0.82297  Biso   1.000  Cu
  Cu10     1.0000 0.34155  0.09979  0.01036  Biso   1.000  Cu
  Cu11     1.0000 0.42490  0.99178  0.34369  Biso   1.000  Cu
  Cu12     1.0000 0.56688  0.57510  0.34369  Biso   1.000  Cu
  Cu13     1.0000 0.32511  0.09157  0.82297  Biso   1.000  Cu
  Cu14     1.0000 0.90843  0.23355  0.82297  Biso   1.000  Cu
  Cu15     1.0000 0.75823  0.65845  0.01036  Biso   1.000  Cu
  Cu16     1.0000 0.90021  0.24177  0.01036  Biso   1.000  Cu
  Cu17     1.0000 0.09157  0.32511  0.67703  Biso   1.000  Cu
  Cu18     1.0000 0.23355  0.90843  0.67703  Biso   1.000  Cu
  Cu19     1.0000 0.56688  0.99178  0.84369  Biso   1.000  Cu
  Cu20     1.0000 0.00822  0.57510  0.84369  Biso   1.000  Cu
  Cu21     1.0000 0.42490  0.43312  0.84369  Biso   1.000  Cu
  Cu22     1.0000 0.99178  0.56688  0.65631  Biso   1.000  Cu
  Cu23     1.0000 0.23355  0.32511  0.17703  Biso   1.000  Cu
  Cu24     1.0000 0.67489  0.90843  0.17703  Biso   1.000  Cu
  Cu25     1.0000 0.09157  0.76645  0.17703  Biso   1.000  Cu
  Cu26     1.0000 0.65845  0.90021  0.98964  Biso   1.000  Cu
  Cu27     1.0000 0.90021  0.65845  0.51036  Biso   1.000  Cu
  Cu28     1.0000 0.32511  0.23355  0.32297  Biso   1.000  Cu
  Cu29     1.0000 0.57510  0.00822  0.65631  Biso   1.000  Cu
  Cu30     1.0000 0.43312  0.42490  0.65631  Biso   1.000  Cu
  Cu31     1.0000 0.34155  0.24177  0.51036  Biso   1.000  Cu
  Cu32     1.0000 0.75823  0.09979  0.51036  Biso   1.000  Cu
  Cu33     1.0000 0.90843  0.67489  0.32297  Biso   1.000  Cu
  Cu34     1.0000 0.76645  0.09157  0.32297  Biso   1.000  Cu
  Cu35     1.0000 0.24177  0.34155  0.98964  Biso   1.000  Cu
  Cu36     1.0000 0.09979  0.75823  0.98964  Biso   1.000  Cu
  Cl1      1.0000 0.36727  0.11099  0.24129  Biso   1.000  Cl
  Cl2      1.0000 0.88901  0.25628  0.24129  Biso   1.000  Cl
  Cl3      1.0000 0.74372  0.63273  0.24129  Biso   1.000  Cl
  Cl4      1.0000 0.11099  0.36727  0.25871  Biso   1.000  Cl
  Cl5      1.0000 0.03394  0.44432  0.57462  Biso   1.000  Cl
  Cl6      1.0000 0.55568  0.58961  0.57462  Biso   1.000  Cl
  Cl7      1.0000 0.41039  0.96606  0.57462  Biso   1.000  Cl
  Cl8      1.0000 0.77766  0.70060  0.59204  Biso   1.000  Cl
  Cl9      1.0000 0.70060  0.77766  0.90796  Biso   1.000  Cl
  Cl10     1.0000 0.44432  0.03394  0.92538  Biso   1.000  Cl
  Cl11     1.0000 0.25628  0.88901  0.25871  Biso   1.000  Cl
  Cl12     1.0000 0.63273  0.74372  0.25871  Biso   1.000  Cl
  Cl13     1.0000 0.22234  0.92295  0.90796  Biso   1.000  Cl
  Cl14     1.0000 0.07705  0.29940  0.90796  Biso   1.000  Cl
  Cl15     1.0000 0.58961  0.55568  0.92538  Biso   1.000  Cl
  Cl16     1.0000 0.96606  0.41039  0.92538  Biso   1.000  Cl
  Cl17     1.0000 0.92295  0.22234  0.59204  Biso   1.000  Cl
  Cl18     1.0000 0.29940  0.07705  0.59204  Biso   1.000  Cl
  Cl19     1.0000 0.63273  0.88901  0.75871  Biso   1.000  Cl
  Cl20     1.0000 0.11099  0.74372  0.75871  Biso   1.000  Cl
  Cl21     1.0000 0.25628  0.36727  0.75871  Biso   1.000  Cl
  Cl22     1.0000 0.88901  0.63273  0.74129  Biso   1.000  Cl
  Cl23     1.0000 0.29940  0.22234  0.09204  Biso   1.000  Cl
  Cl24     1.0000 0.77766  0.07705  0.09204  Biso   1.000  Cl
  Cl25     1.0000 0.92295  0.70060  0.09204  Biso   1.000  Cl
  Cl26     1.0000 0.55568  0.96606  0.07462  Biso   1.000  Cl
  Cl27     1.0000 0.96606  0.55568  0.42538  Biso   1.000  Cl
  Cl28     1.0000 0.22234  0.29940  0.40796  Biso   1.000  Cl
  Cl29     1.0000 0.74372  0.11099  0.74129  Biso   1.000  Cl
  Cl30     1.0000 0.36727  0.25628  0.74129  Biso   1.000  Cl
  Cl31     1.0000 0.44432  0.41039  0.42538  Biso   1.000  Cl
  Cl32     1.0000 0.58961  0.03394  0.42538  Biso   1.000  Cl
  Cl33     1.0000 0.07705  0.77766  0.40796  Biso   1.000  Cl
  Cl34     1.0000 0.70060  0.92295  0.40796  Biso   1.000  Cl
  Cl35     1.0000 0.41039  0.44432  0.07462  Biso   1.000  Cl
  Cl36     1.0000 0.03394  0.58961  0.07462  Biso   1.000  Cl
  Cl37     1.0000 0.56780  0.33249  0.30080  Biso   1.000  Cl
  Cl38     1.0000 0.66751  0.23531  0.30080  Biso   1.000  Cl
  Cl39     1.0000 0.76469  0.43220  0.30080  Biso   1.000  Cl
  Cl40     1.0000 0.33249  0.56780  0.19920  Biso   1.000  Cl
  Cl41     1.0000 0.23447  0.66582  0.63413  Biso   1.000  Cl
  Cl42     1.0000 0.33418  0.56864  0.63413  Biso   1.000  Cl
  Cl43     1.0000 0.43136  0.76553  0.63413  Biso   1.000  Cl
  Cl44     1.0000 0.99916  0.90113  0.53253  Biso   1.000  Cl
  Cl45     1.0000 0.90113  0.99916  0.96747  Biso   1.000  Cl
  Cl46     1.0000 0.66582  0.23447  0.86587  Biso   1.000  Cl
  Cl47     1.0000 0.23531  0.66751  0.19920  Biso   1.000  Cl
  Cl48     1.0000 0.43220  0.76469  0.19920  Biso   1.000  Cl
  Cl49     1.0000 0.00084  0.90198  0.96747  Biso   1.000  Cl
  Cl50     1.0000 0.09802  0.09887  0.96747  Biso   1.000  Cl
  Cl51     1.0000 0.56864  0.33418  0.86587  Biso   1.000  Cl
  Cl52     1.0000 0.76553  0.43136  0.86587  Biso   1.000  Cl
  Cl53     1.0000 0.90198  0.00084  0.53253  Biso   1.000  Cl
  Cl54     1.0000 0.09887  0.09802  0.53253  Biso   1.000  Cl
  Cl55     1.0000 0.43220  0.66751  0.69920  Biso   1.000  Cl
  Cl56     1.0000 0.33249  0.76469  0.69920  Biso   1.000  Cl
  Cl57     1.0000 0.23531  0.56780  0.69920  Biso   1.000  Cl
  Cl58     1.0000 0.66751  0.43220  0.80080  Biso   1.000  Cl
  Cl59     1.0000 0.09887  0.00084  0.03253  Biso   1.000  Cl
  Cl60     1.0000 0.99916  0.09802  0.03253  Biso   1.000  Cl
  Cl61     1.0000 0.90198  0.90113  0.03253  Biso   1.000  Cl
  Cl62     1.0000 0.33418  0.76553  0.13413  Biso   1.000  Cl
  Cl63     1.0000 0.76553  0.33418  0.36587  Biso   1.000  Cl
  Cl64     1.0000 0.00084  0.09887  0.46747  Biso   1.000  Cl
  Cl65     1.0000 0.76469  0.33249  0.80080  Biso   1.000  Cl
  Cl66     1.0000 0.56780  0.23531  0.80080  Biso   1.000  Cl
  Cl67     1.0000 0.66582  0.43136  0.36587  Biso   1.000  Cl
  Cl68     1.0000 0.56864  0.23447  0.36587  Biso   1.000  Cl
  Cl69     1.0000 0.09802  0.99916  0.46747  Biso   1.000  Cl
  Cl70     1.0000 0.90113  0.90198  0.46747  Biso   1.000  Cl
  Cl71     1.0000 0.43136  0.66582  0.13413  Biso   1.000  Cl
  Cl72     1.0000 0.23447  0.56864  0.13413  Biso   1.000  Cl
  Cl73     1.0000 0.61925  0.23066  0.19077  Biso   1.000  Cl
  Cl74     1.0000 0.76934  0.38859  0.19077  Biso   1.000  Cl
  Cl75     1.0000 0.61141  0.38075  0.19077  Biso   1.000  Cl
  Cl76     1.0000 0.23066  0.61925  0.30923  Biso   1.000  Cl
  Cl77     1.0000 0.28592  0.56399  0.52410  Biso   1.000  Cl
  Cl78     1.0000 0.43601  0.72192  0.52410  Biso   1.000  Cl
  Cl79     1.0000 0.27808  0.71408  0.52410  Biso   1.000  Cl
  Cl80     1.0000 0.89733  0.95258  0.64256  Biso   1.000  Cl
  Cl81     1.0000 0.95258  0.89733  0.85744  Biso   1.000  Cl
  Cl82     1.0000 0.56399  0.28592  0.97590  Biso   1.000  Cl
  Cl83     1.0000 0.38859  0.76934  0.30923  Biso   1.000  Cl
  Cl84     1.0000 0.38075  0.61141  0.30923  Biso   1.000  Cl
  Cl85     1.0000 0.10267  0.05526  0.85744  Biso   1.000  Cl
  Cl86     1.0000 0.94474  0.04742  0.85744  Biso   1.000  Cl
  Cl87     1.0000 0.72192  0.43601  0.97590  Biso   1.000  Cl
  Cl88     1.0000 0.71408  0.27808  0.97590  Biso   1.000  Cl
  Cl89     1.0000 0.05526  0.10267  0.64256  Biso   1.000  Cl
  Cl90     1.0000 0.04742  0.94474  0.64256  Biso   1.000  Cl
  Cl91     1.0000 0.38075  0.76934  0.80923  Biso   1.000  Cl
  Cl92     1.0000 0.23066  0.61141  0.80923  Biso   1.000  Cl
  Cl93     1.0000 0.38859  0.61925  0.80923  Biso   1.000  Cl
  Cl94     1.0000 0.76934  0.38075  0.69077  Biso   1.000  Cl
  Cl95     1.0000 0.04742  0.10267  0.14256  Biso   1.000  Cl
  Cl96     1.0000 0.89733  0.94474  0.14256  Biso   1.000  Cl
  Cl97     1.0000 0.05526  0.95258  0.14256  Biso   1.000  Cl
  Cl98     1.0000 0.43601  0.71408  0.02410  Biso   1.000  Cl
  Cl99     1.0000 0.71408  0.43601  0.47590  Biso   1.000  Cl
  Cl100    1.0000 0.10267  0.04742  0.35744  Biso   1.000  Cl
  Cl101    1.0000 0.61141  0.23066  0.69077  Biso   1.000  Cl
  Cl102    1.0000 0.61925  0.38859  0.69077  Biso   1.000  Cl
  Cl103    1.0000 0.56399  0.27808  0.47590  Biso   1.000  Cl
  Cl104    1.0000 0.72192  0.28592  0.47590  Biso   1.000  Cl
  Cl105    1.0000 0.94474  0.89733  0.35744  Biso   1.000  Cl
  Cl106    1.0000 0.95258  0.05526  0.35744  Biso   1.000  Cl
  Cl107    1.0000 0.27808  0.56399  0.02410  Biso   1.000  Cl
  Cl108    1.0000 0.28592  0.72192  0.02410  Biso   1.000  Cl
  N1       1.0000 0.51640  0.07080  0.13004  Biso   1.000  N
  N2       1.0000 0.92920  0.44560  0.13004  Biso   1.000  N
  N3       1.0000 0.55440  0.48360  0.13004  Biso   1.000  N
  N4       1.0000 0.07080  0.51640  0.36996  Biso   1.000  N
  N5       1.0000 0.18307  0.40413  0.46337  Biso   1.000  N
  N6       1.0000 0.59587  0.77893  0.46337  Biso   1.000  N
  N7       1.0000 0.22107  0.81693  0.46337  Biso   1.000  N
  N8       1.0000 0.73747  0.84973  0.70329  Biso   1.000  N
  N9       1.0000 0.84973  0.73747  0.79671  Biso   1.000  N
  N10      1.0000 0.40413  0.18307  0.03663  Biso   1.000  N
  N11      1.0000 0.44560  0.92920  0.36996  Biso   1.000  N
  N12      1.0000 0.48360  0.55440  0.36996  Biso   1.000  N
  N13      1.0000 0.26253  0.11227  0.79671  Biso   1.000  N
  N14      1.0000 0.88773  0.15027  0.79671  Biso   1.000  N
  N15      1.0000 0.77893  0.59587  0.03663  Biso   1.000  N
  N16      1.0000 0.81693  0.22107  0.03663  Biso   1.000  N
  N17      1.0000 0.11227  0.26253  0.70329  Biso   1.000  N
  N18      1.0000 0.15027  0.88773  0.70329  Biso   1.000  N
  N19      1.0000 0.48360  0.92920  0.86996  Biso   1.000  N
  N20      1.0000 0.07080  0.55440  0.86996  Biso   1.000  N
  N21      1.0000 0.44560  0.51640  0.86996  Biso   1.000  N
  N22      1.0000 0.92920  0.48360  0.63004  Biso   1.000  N
  N23      1.0000 0.15027  0.26253  0.20329  Biso   1.000  N
  N24      1.0000 0.73747  0.88773  0.20329  Biso   1.000  N
  N25      1.0000 0.11227  0.84973  0.20329  Biso   1.000  N
  N26      1.0000 0.59587  0.81693  0.96337  Biso   1.000  N
  N27      1.0000 0.81693  0.59587  0.53663  Biso   1.000  N
  N28      1.0000 0.26253  0.15027  0.29671  Biso   1.000  N
  N29      1.0000 0.55440  0.07080  0.63004  Biso   1.000  N
  N30      1.0000 0.51640  0.44560  0.63004  Biso   1.000  N
  N31      1.0000 0.40413  0.22107  0.53663  Biso   1.000  N
  N32      1.0000 0.77893  0.18307  0.53663  Biso   1.000  N
  N33      1.0000 0.88773  0.73747  0.29671  Biso   1.000  N
  N34      1.0000 0.84973  0.11227  0.29671  Biso   1.000  N
  N35      1.0000 0.22107  0.40413  0.96337  Biso   1.000  N
  N36      1.0000 0.18307  0.77893  0.96337  Biso   1.000  N
  O1       1.0000 0.46511  0.07758  0.19079  Biso   1.000  O
  O2       1.0000 0.92242  0.38753  0.19079  Biso   1.000  O
  O3       1.0000 0.61247  0.53489  0.19079  Biso   1.000  O
  O4       1.0000 0.07758  0.46511  0.30921  Biso   1.000  O
  O5       1.0000 0.13178  0.41091  0.52412  Biso   1.000  O
  O6       1.0000 0.58909  0.72086  0.52412  Biso   1.000  O
  O7       1.0000 0.27914  0.86822  0.52412  Biso   1.000  O
  O8       1.0000 0.74425  0.79844  0.64254  Biso   1.000  O
  O9       1.0000 0.79844  0.74425  0.85746  Biso   1.000  O
  O10      1.0000 0.41091  0.13178  0.97588  Biso   1.000  O
  O11      1.0000 0.38753  0.92242  0.30921  Biso   1.000  O
  O12      1.0000 0.53489  0.61247  0.30921  Biso   1.000  O
  O13      1.0000 0.25575  0.05420  0.85746  Biso   1.000  O
  O14      1.0000 0.94580  0.20156  0.85746  Biso   1.000  O
  O15      1.0000 0.72086  0.58909  0.97588  Biso   1.000  O
  O16      1.0000 0.86822  0.27914  0.97588  Biso   1.000  O
  O17      1.0000 0.05420  0.25575  0.64254  Biso   1.000  O
  O18      1.0000 0.20156  0.94580  0.64254  Biso   1.000  O
  O19      1.0000 0.53489  0.92242  0.80921  Biso   1.000  O
  O20      1.0000 0.07758  0.61247  0.80921  Biso   1.000  O
  O21      1.0000 0.38753  0.46511  0.80921  Biso   1.000  O
  O22      1.0000 0.92242  0.53489  0.69079  Biso   1.000  O
  O23      1.0000 0.20156  0.25575  0.14254  Biso   1.000  O
  O24      1.0000 0.74425  0.94580  0.14254  Biso   1.000  O
  O25      1.0000 0.05420  0.79844  0.14254  Biso   1.000  O
  O26      1.0000 0.58909  0.86822  0.02412  Biso   1.000  O
  O27      1.0000 0.86822  0.58909  0.47588  Biso   1.000  O
  O28      1.0000 0.25575  0.20156  0.35746  Biso   1.000  O
  O29      1.0000 0.61247  0.07758  0.69079  Biso   1.000  O
  O30      1.0000 0.46511  0.38753  0.69079  Biso   1.000  O
  O31      1.0000 0.41091  0.27914  0.47588  Biso   1.000  O
  O32      1.0000 0.72086  0.13178  0.47588  Biso   1.000  O
  O33      1.0000 0.94580  0.74425  0.35746  Biso   1.000  O
  O34      1.0000 0.79844  0.05420  0.35746  Biso   1.000  O
  O35      1.0000 0.27914  0.41091  0.02412  Biso   1.000  O
  O36      1.0000 0.13178  0.72086  0.02412  Biso   1.000  O
  O37      1.0000 0.45220  0.15780  0.16517  Biso   1.000  O
  O38      1.0000 0.84220  0.29440  0.16517  Biso   1.000  O
  O39      1.0000 0.70560  0.54780  0.16517  Biso   1.000  O
  O40      1.0000 0.15780  0.45220  0.33483  Biso   1.000  O
  O41      1.0000 0.11887  0.49113  0.49850  Biso   1.000  O
  O42      1.0000 0.50887  0.62773  0.49850  Biso   1.000  O
  O43      1.0000 0.37227  0.88113  0.49850  Biso   1.000  O
  O44      1.0000 0.82447  0.78553  0.66816  Biso   1.000  O
  O45      1.0000 0.78553  0.82447  0.83184  Biso   1.000  O
  O46      1.0000 0.49113  0.11887  0.00150  Biso   1.000  O
  O47      1.0000 0.29440  0.84220  0.33483  Biso   1.000  O
  O48      1.0000 0.54780  0.70560  0.33483  Biso   1.000  O
  O49      1.0000 0.17553  0.96107  0.83184  Biso   1.000  O
  O50      1.0000 0.03893  0.21447  0.83184  Biso   1.000  O
  O51      1.0000 0.62773  0.50887  0.00150  Biso   1.000  O
  O52      1.0000 0.88113  0.37227  0.00150  Biso   1.000  O
  O53      1.0000 0.96107  0.17553  0.66816  Biso   1.000  O
  O54      1.0000 0.21447  0.03893  0.66816  Biso   1.000  O
  O55      1.0000 0.54780  0.84220  0.83483  Biso   1.000  O
  O56      1.0000 0.15780  0.70560  0.83483  Biso   1.000  O
  O57      1.0000 0.29440  0.45220  0.83483  Biso   1.000  O
  O58      1.0000 0.84220  0.54780  0.66517  Biso   1.000  O
  O59      1.0000 0.21447  0.17553  0.16816  Biso   1.000  O
  O60      1.0000 0.82447  0.03893  0.16816  Biso   1.000  O
  O61      1.0000 0.96107  0.78553  0.16816  Biso   1.000  O
  O62      1.0000 0.50887  0.88113  0.99850  Biso   1.000  O
  O63      1.0000 0.88113  0.50887  0.50150  Biso   1.000  O
  O64      1.0000 0.17553  0.21447  0.33184  Biso   1.000  O
  O65      1.0000 0.70560  0.15780  0.66517  Biso   1.000  O
  O66      1.0000 0.45220  0.29440  0.66517  Biso   1.000  O
  O67      1.0000 0.49113  0.37227  0.50150  Biso   1.000  O
  O68      1.0000 0.62773  0.11887  0.50150  Biso   1.000  O
  O69      1.0000 0.03893  0.82447  0.33184  Biso   1.000  O
  O70      1.0000 0.78553  0.96107  0.33184  Biso   1.000  O
  O71      1.0000 0.37227  0.49113  0.99850  Biso   1.000  O
  O72      1.0000 0.11887  0.62773  0.99850  Biso   1.000  O
  O73      1.0000 0.39979  0.25422  0.29281  Biso   1.000  O
  O74      1.0000 0.74578  0.14557  0.29281  Biso   1.000  O
  O75      1.0000 0.85443  0.60021  0.29281  Biso   1.000  O
  O76      1.0000 0.25422  0.39979  0.20719  Biso   1.000  O
  O77      1.0000 0.06646  0.58755  0.62614  Biso   1.000  O
  O78      1.0000 0.41245  0.47890  0.62614  Biso   1.000  O
  O79      1.0000 0.52110  0.93354  0.62614  Biso   1.000  O
  O80      1.0000 0.92089  0.73312  0.54052  Biso   1.000  O
  O81      1.0000 0.73312  0.92089  0.95948  Biso   1.000  O
  O82      1.0000 0.58755  0.06646  0.87386  Biso   1.000  O
  O83      1.0000 0.14557  0.74578  0.20719  Biso   1.000  O
  O84      1.0000 0.60021  0.85443  0.20719  Biso   1.000  O
  O85      1.0000 0.07911  0.81224  0.95948  Biso   1.000  O
  O86      1.0000 0.18776  0.26688  0.95948  Biso   1.000  O
  O87      1.0000 0.47890  0.41245  0.87386  Biso   1.000  O
  O88      1.0000 0.93354  0.52110  0.87386  Biso   1.000  O
  O89      1.0000 0.81224  0.07911  0.54052  Biso   1.000  O
  O90      1.0000 0.26688  0.18776  0.54052  Biso   1.000  O
  O91      1.0000 0.60021  0.74578  0.70719  Biso   1.000  O
  O92      1.0000 0.25422  0.85443  0.70719  Biso   1.000  O
  O93      1.0000 0.14557  0.39979  0.70719  Biso   1.000  O
  O94      1.0000 0.74578  0.60021  0.79281  Biso   1.000  O
  O95      1.0000 0.26688  0.07911  0.04052  Biso   1.000  O
  O96      1.0000 0.92089  0.18776  0.04052  Biso   1.000  O
  O97      1.0000 0.81224  0.73312  0.04052  Biso   1.000  O
  O98      1.0000 0.41245  0.93354  0.12614  Biso   1.000  O
  O99      1.0000 0.93354  0.41245  0.37386  Biso   1.000  O
  O100     1.0000 0.07911  0.26688  0.45948  Biso   1.000  O
  O101     1.0000 0.85443  0.25422  0.79281  Biso   1.000  O
  O102     1.0000 0.39979  0.14557  0.79281  Biso   1.000  O
  O103     1.0000 0.58755  0.52110  0.37386  Biso   1.000  O
  O104     1.0000 0.47890  0.06646  0.37386  Biso   1.000  O
  O105     1.0000 0.18776  0.92089  0.45948  Biso   1.000  O
  O106     1.0000 0.73312  0.81224  0.45948  Biso   1.000  O
  O107     1.0000 0.52110  0.58755  0.12614  Biso   1.000  O
  O108     1.0000 0.06646  0.47890  0.12614  Biso   1.000  O
  O109     1.0000 0.41030  0.17102  0.31697  Biso   1.000  O
  O110     1.0000 0.82898  0.23928  0.31697  Biso   1.000  O
  O111     1.0000 0.76072  0.58970  0.31697  Biso   1.000  O
  O112     1.0000 0.17102  0.41030  0.18303  Biso   1.000  O
  O113     1.0000 0.07697  0.50435  0.65030  Biso   1.000  O
  O114     1.0000 0.49565  0.57261  0.65030  Biso   1.000  O
  O115     1.0000 0.42739  0.92303  0.65030  Biso   1.000  O
  O116     1.0000 0.83769  0.74363  0.51636  Biso   1.000  O
  O117     1.0000 0.74363  0.83769  0.98364  Biso   1.000  O
  O118     1.0000 0.50435  0.07697  0.84970  Biso   1.000  O
  O119     1.0000 0.23928  0.82898  0.18303  Biso   1.000  O
  O120     1.0000 0.58970  0.76072  0.18303  Biso   1.000  O
  O121     1.0000 0.16231  0.90595  0.98364  Biso   1.000  O
  O122     1.0000 0.09405  0.25637  0.98364  Biso   1.000  O
  O123     1.0000 0.57261  0.49565  0.84970  Biso   1.000  O
  O124     1.0000 0.92303  0.42739  0.84970  Biso   1.000  O
  O125     1.0000 0.90595  0.16231  0.51636  Biso   1.000  O
  O126     1.0000 0.25637  0.09405  0.51636  Biso   1.000  O
  O127     1.0000 0.58970  0.82898  0.68303  Biso   1.000  O
  O128     1.0000 0.17102  0.76072  0.68303  Biso   1.000  O
  O129     1.0000 0.23928  0.41030  0.68303  Biso   1.000  O
  O130     1.0000 0.82898  0.58970  0.81697  Biso   1.000  O
  O131     1.0000 0.25637  0.16231  0.01636  Biso   1.000  O
  O132     1.0000 0.83769  0.09405  0.01636  Biso   1.000  O
  O133     1.0000 0.90595  0.74363  0.01636  Biso   1.000  O
  O134     1.0000 0.49565  0.92303  0.15030  Biso   1.000  O
  O135     1.0000 0.92303  0.49565  0.34970  Biso   1.000  O
  O136     1.0000 0.16231  0.25637  0.48364  Biso   1.000  O
  O137     1.0000 0.76072  0.17102  0.81697  Biso   1.000  O
  O138     1.0000 0.41030  0.23928  0.81697  Biso   1.000  O
  O139     1.0000 0.50435  0.42739  0.34970  Biso   1.000  O
  O140     1.0000 0.57261  0.07697  0.34970  Biso   1.000  O
  O141     1.0000 0.09405  0.83769  0.48364  Biso   1.000  O
  O142     1.0000 0.74363  0.90595  0.48364  Biso   1.000  O
  O143     1.0000 0.42739  0.50435  0.15030  Biso   1.000  O
  O144     1.0000 0.07697  0.57261  0.15030  Biso   1.000  O
  O145     1.0000 0.36460  0.94580  0.18788  Biso   1.000  O
  O146     1.0000 0.05420  0.41880  0.18788  Biso   1.000  O
  O147     1.0000 0.58120  0.63540  0.18788  Biso   1.000  O
  O148     1.0000 0.94580  0.36460  0.31212  Biso   1.000  O
  O149     1.0000 0.03127  0.27913  0.52121  Biso   1.000  O
  O150     1.0000 0.72087  0.75213  0.52121  Biso   1.000  O
  O151     1.0000 0.24787  0.96873  0.52121  Biso   1.000  O
  O152     1.0000 0.61247  0.69793  0.64545  Biso   1.000  O
  O153     1.0000 0.69793  0.61247  0.85455  Biso   1.000  O
  O154     1.0000 0.27913  0.03127  0.97879  Biso   1.000  O
  O155     1.0000 0.41880  0.05420  0.31212  Biso   1.000  O
  O156     1.0000 0.63540  0.58120  0.31212  Biso   1.000  O
  O157     1.0000 0.38753  0.08547  0.85455  Biso   1.000  O
  O158     1.0000 0.91453  0.30207  0.85455  Biso   1.000  O
  O159     1.0000 0.75213  0.72087  0.97879  Biso   1.000  O
  O160     1.0000 0.96873  0.24787  0.97879  Biso   1.000  O
  O161     1.0000 0.08547  0.38753  0.64545  Biso   1.000  O
  O162     1.0000 0.30207  0.91453  0.64545  Biso   1.000  O
  O163     1.0000 0.63540  0.05420  0.81212  Biso   1.000  O
  O164     1.0000 0.94580  0.58120  0.81212  Biso   1.000  O
  O165     1.0000 0.41880  0.36460  0.81212  Biso   1.000  O
  O166     1.0000 0.05420  0.63540  0.68788  Biso   1.000  O
  O167     1.0000 0.30207  0.38753  0.14545  Biso   1.000  O
  O168     1.0000 0.61247  0.91453  0.14545  Biso   1.000  O
  O169     1.0000 0.08547  0.69793  0.14545  Biso   1.000  O
  O170     1.0000 0.72087  0.96873  0.02121  Biso   1.000  O
  O171     1.0000 0.96873  0.72087  0.47879  Biso   1.000  O
  O172     1.0000 0.38753  0.30207  0.35455  Biso   1.000  O
  O173     1.0000 0.58120  0.94580  0.68788  Biso   1.000  O
  O174     1.0000 0.36460  0.41880  0.68788  Biso   1.000  O
  O175     1.0000 0.27913  0.24787  0.47879  Biso   1.000  O
  O176     1.0000 0.75213  0.03127  0.47879  Biso   1.000  O
  O177     1.0000 0.91453  0.61247  0.35455  Biso   1.000  O
  O178     1.0000 0.69793  0.08547  0.35455  Biso   1.000  O
  O179     1.0000 0.24787  0.27913  0.02121  Biso   1.000  O
  O180     1.0000 0.03127  0.75213  0.02121  Biso   1.000  O
  H1       1.0000 0.37400  0.96000  0.20750  Biso   1.000  H
  H2       1.0000 0.04000  0.41400  0.20750  Biso   1.000  H
  H3       1.0000 0.58600  0.62600  0.20750  Biso   1.000  H
  H4       1.0000 0.96000  0.37400  0.29250  Biso   1.000  H
  H5       1.0000 0.04067  0.29333  0.54083  Biso   1.000  H
  H6       1.0000 0.70667  0.74733  0.54083  Biso   1.000  H
  H7       1.0000 0.25267  0.95933  0.54083  Biso   1.000  H
  H8       1.0000 0.62667  0.70733  0.62583  Biso   1.000  H
  H9       1.0000 0.70733  0.62667  0.87417  Biso   1.000  H
  H10      1.0000 0.29333  0.04067  0.95917  Biso   1.000  H
  H11      1.0000 0.41400  0.04000  0.29250  Biso   1.000  H
  H12      1.0000 0.62600  0.58600  0.29250  Biso   1.000  H
  H13      1.0000 0.37333  0.08067  0.87417  Biso   1.000  H
  H14      1.0000 0.91933  0.29267  0.87417  Biso   1.000  H
  H15      1.0000 0.74733  0.70667  0.95917  Biso   1.000  H
  H16      1.0000 0.95933  0.25267  0.95917  Biso   1.000  H
  H17      1.0000 0.08067  0.37333  0.62583  Biso   1.000  H
  H18      1.0000 0.29267  0.91933  0.62583  Biso   1.000  H
  H19      1.0000 0.62600  0.04000  0.79250  Biso   1.000  H
  H20      1.0000 0.96000  0.58600  0.79250  Biso   1.000  H
  H21      1.0000 0.41400  0.37400  0.79250  Biso   1.000  H
  H22      1.0000 0.04000  0.62600  0.70750  Biso   1.000  H
  H23      1.0000 0.29267  0.37333  0.12583  Biso   1.000  H
  H24      1.0000 0.62667  0.91933  0.12583  Biso   1.000  H
  H25      1.0000 0.08067  0.70733  0.12583  Biso   1.000  H
  H26      1.0000 0.70667  0.95933  0.04083  Biso   1.000  H
  H27      1.0000 0.95933  0.70667  0.45917  Biso   1.000  H
  H28      1.0000 0.37333  0.29267  0.37417  Biso   1.000  H
  H29      1.0000 0.58600  0.96000  0.70750  Biso   1.000  H
  H30      1.0000 0.37400  0.41400  0.70750  Biso   1.000  H
  H31      1.0000 0.29333  0.25267  0.45917  Biso   1.000  H
  H32      1.0000 0.74733  0.04067  0.45917  Biso   1.000  H
  H33      1.0000 0.91933  0.62667  0.37417  Biso   1.000  H
  H34      1.0000 0.70733  0.08067  0.37417  Biso   1.000  H
  H35      1.0000 0.25267  0.29333  0.04083  Biso   1.000  H
  H36      1.0000 0.04067  0.74733  0.04083  Biso   1.000  H
  H37      1.0000 0.33600  0.90300  0.18700  Biso   1.000  H
  H38      1.0000 0.09700  0.43300  0.18700  Biso   1.000  H
  H39      1.0000 0.56700  0.66400  0.18700  Biso   1.000  H
  H40      1.0000 0.90300  0.33600  0.31300  Biso   1.000  H
  H41      1.0000 0.00267  0.23633  0.52033  Biso   1.000  H
  H42      1.0000 0.76367  0.76633  0.52033  Biso   1.000  H
  H43      1.0000 0.23367  0.99733  0.52033  Biso   1.000  H
  H44      1.0000 0.56967  0.66933  0.64633  Biso   1.000  H
  H45      1.0000 0.66933  0.56967  0.85367  Biso   1.000  H
  H46      1.0000 0.23633  0.00267  0.97967  Biso   1.000  H
  H47      1.0000 0.43300  0.09700  0.31300  Biso   1.000  H
  H48      1.0000 0.66400  0.56700  0.31300  Biso   1.000  H
  H49      1.0000 0.43033  0.09967  0.85367  Biso   1.000  H
  H50      1.0000 0.90033  0.33067  0.85367  Biso   1.000  H
  H51      1.0000 0.76633  0.76367  0.97967  Biso   1.000  H
  H52      1.0000 0.99733  0.23367  0.97967  Biso   1.000  H
  H53      1.0000 0.09967  0.43033  0.64633  Biso   1.000  H
  H54      1.0000 0.33067  0.90033  0.64633  Biso   1.000  H
  H55      1.0000 0.66400  0.09700  0.81300  Biso   1.000  H
  H56      1.0000 0.90300  0.56700  0.81300  Biso   1.000  H
  H57      1.0000 0.43300  0.33600  0.81300  Biso   1.000  H
  H58      1.0000 0.09700  0.66400  0.68700  Biso   1.000  H
  H59      1.0000 0.33067  0.43033  0.14633  Biso   1.000  H
  H60      1.0000 0.56967  0.90033  0.14633  Biso   1.000  H
  H61      1.0000 0.09967  0.66933  0.14633  Biso   1.000  H
  H62      1.0000 0.76367  0.99733  0.02033  Biso   1.000  H
  H63      1.0000 0.99733  0.76367  0.47967  Biso   1.000  H
  H64      1.0000 0.43033  0.33067  0.35367  Biso   1.000  H
  H65      1.0000 0.56700  0.90300  0.68700  Biso   1.000  H
  H66      1.0000 0.33600  0.43300  0.68700  Biso   1.000  H
  H67      1.0000 0.23633  0.23367  0.47967  Biso   1.000  H
  H68      1.0000 0.76633  0.00267  0.47967  Biso   1.000  H
  H69      1.0000 0.90033  0.56967  0.35367  Biso   1.000  H
  H70      1.0000 0.66933  0.09967  0.35367  Biso   1.000  H
  H71      1.0000 0.23367  0.23633  0.02033  Biso   1.000  H
  H72      1.0000 0.00267  0.76633  0.02033  Biso   1.000  H
  C1       1.0000 0.46890  0.13510  0.18849  Biso   1.000  C
  C2       1.0000 0.86490  0.33380  0.18849  Biso   1.000  C
  C3       1.0000 0.66620  0.53110  0.18849  Biso   1.000  C
  C4       1.0000 0.13510  0.46890  0.31151  Biso   1.000  C
  C5       1.0000 0.13557  0.46843  0.52182  Biso   1.000  C
  C6       1.0000 0.53157  0.66713  0.52182  Biso   1.000  C
  C7       1.0000 0.33287  0.86443  0.52182  Biso   1.000  C
  C8       1.0000 0.80177  0.80223  0.64484  Biso   1.000  C
  C9       1.0000 0.80223  0.80177  0.85516  Biso   1.000  C
  C10      1.0000 0.46843  0.13557  0.97818  Biso   1.000  C
  C11      1.0000 0.33380  0.86490  0.31151  Biso   1.000  C
  C12      1.0000 0.53110  0.66620  0.31151  Biso   1.000  C
  C13      1.0000 0.19823  0.00047  0.85516  Biso   1.000  C
  C14      1.0000 0.99953  0.19777  0.85516  Biso   1.000  C
  C15      1.0000 0.66713  0.53157  0.97818  Biso   1.000  C
  C16      1.0000 0.86443  0.33287  0.97818  Biso   1.000  C
  C17      1.0000 0.00047  0.19823  0.64484  Biso   1.000  C
  C18      1.0000 0.19777  0.99953  0.64484  Biso   1.000  C
  C19      1.0000 0.53110  0.86490  0.81151  Biso   1.000  C
  C20      1.0000 0.13510  0.66620  0.81151  Biso   1.000  C
  C21      1.0000 0.33380  0.46890  0.81151  Biso   1.000  C
  C22      1.0000 0.86490  0.53110  0.68849  Biso   1.000  C
  C23      1.0000 0.19777  0.19823  0.14484  Biso   1.000  C
  C24      1.0000 0.80177  0.99953  0.14484  Biso   1.000  C
  C25      1.0000 0.00047  0.80223  0.14484  Biso   1.000  C
  C26      1.0000 0.53157  0.86443  0.02182  Biso   1.000  C
  C27      1.0000 0.86443  0.53157  0.47818  Biso   1.000  C
  C28      1.0000 0.19823  0.19777  0.35516  Biso   1.000  C
  C29      1.0000 0.66620  0.13510  0.68849  Biso   1.000  C
  C30      1.0000 0.46890  0.33380  0.68849  Biso   1.000  C
  C31      1.0000 0.46843  0.33287  0.47818  Biso   1.000  C
  C32      1.0000 0.66713  0.13557  0.47818  Biso   1.000  C
  C33      1.0000 0.99953  0.80177  0.35516  Biso   1.000  C
  C34      1.0000 0.80223  0.00047  0.35516  Biso   1.000  C
  C35      1.0000 0.33287  0.46843  0.02182  Biso   1.000  C
  C36      1.0000 0.13557  0.66713  0.02182  Biso   1.000  C
  C37      1.0000 0.42430  0.21480  0.29553  Biso   1.000  C
  C38      1.0000 0.78520  0.20950  0.29553  Biso   1.000  C
  C39      1.0000 0.79050  0.57570  0.29553  Biso   1.000  C
  C40      1.0000 0.21480  0.42430  0.20447  Biso   1.000  C
  C41      1.0000 0.09097  0.54813  0.62886  Biso   1.000  C
  C42      1.0000 0.45187  0.54283  0.62886  Biso   1.000  C
  C43      1.0000 0.45717  0.90903  0.62886  Biso   1.000  C
  C44      1.0000 0.88147  0.75763  0.53780  Biso   1.000  C
  C45      1.0000 0.75763  0.88147  0.96220  Biso   1.000  C
  C46      1.0000 0.54813  0.09097  0.87114  Biso   1.000  C
  C47      1.0000 0.20950  0.78520  0.20447  Biso   1.000  C
  C48      1.0000 0.57570  0.79050  0.20447  Biso   1.000  C
  C49      1.0000 0.11853  0.87617  0.96220  Biso   1.000  C
  C50      1.0000 0.12383  0.24237  0.96220  Biso   1.000  C
  C51      1.0000 0.54283  0.45187  0.87114  Biso   1.000  C
  C52      1.0000 0.90903  0.45717  0.87114  Biso   1.000  C
  C53      1.0000 0.87617  0.11853  0.53780  Biso   1.000  C
  C54      1.0000 0.24237  0.12383  0.53780  Biso   1.000  C
  C55      1.0000 0.57570  0.78520  0.70447  Biso   1.000  C
  C56      1.0000 0.21480  0.79050  0.70447  Biso   1.000  C
  C57      1.0000 0.20950  0.42430  0.70447  Biso   1.000  C
  C58      1.0000 0.78520  0.57570  0.79553  Biso   1.000  C
  C59      1.0000 0.24237  0.11853  0.03780  Biso   1.000  C
  C60      1.0000 0.88147  0.12383  0.03780  Biso   1.000  C
  C61      1.0000 0.87617  0.75763  0.03780  Biso   1.000  C
  C62      1.0000 0.45187  0.90903  0.12886  Biso   1.000  C
  C63      1.0000 0.90903  0.45187  0.37114  Biso   1.000  C
  C64      1.0000 0.11853  0.24237  0.46220  Biso   1.000  C
  C65      1.0000 0.79050  0.21480  0.79553  Biso   1.000  C
  C66      1.0000 0.42430  0.20950  0.79553  Biso   1.000  C
  C67      1.0000 0.54813  0.45717  0.37114  Biso   1.000  C
  C68      1.0000 0.54283  0.09097  0.37114  Biso   1.000  C
  C69      1.0000 0.12383  0.88147  0.46220  Biso   1.000  C
  C70      1.0000 0.75763  0.87617  0.46220  Biso   1.000  C
  C71      1.0000 0.45717  0.54813  0.12886  Biso   1.000  C
  C72      1.0000 0.09097  0.54283  0.12886  Biso   1.000  C
  C73      1.0000 0.66670  0.33330  0.25290  Biso   1.000  C
  C74      1.0000 0.33330  0.66670  0.24710  Biso   1.000  C
  C75      1.0000 0.33337  0.66663  0.58623  Biso   1.000  C
  C76      1.0000 0.99997  0.00003  0.58043  Biso   1.000  C
  C77      1.0000 0.00003  0.99997  0.91957  Biso   1.000  C
  C78      1.0000 0.66663  0.33337  0.91377  Biso   1.000  C
  C79      1.0000 0.33330  0.66670  0.74710  Biso   1.000  C
  C80      1.0000 0.66670  0.33330  0.75290  Biso   1.000  C
  C81      1.0000 0.99997  0.00003  0.08043  Biso   1.000  C
  C82      1.0000 0.33337  0.66663  0.08623  Biso   1.000  C
  C83      1.0000 0.66663  0.33337  0.41377  Biso   1.000  C
  C84      1.0000 0.00003  0.99997  0.41957  Biso   1.000  C
  H73      1.0000 0.66670  0.33330  0.27690  Biso   1.000  H
  H74      1.0000 0.33330  0.66670  0.22310  Biso   1.000  H
  H75      1.0000 0.33337  0.66663  0.61023  Biso   1.000  H
  H76      1.0000 0.99997  0.00003  0.55643  Biso   1.000  H
  H77      1.0000 0.00003  0.99997  0.94357  Biso   1.000  H
  H78      1.0000 0.66663  0.33337  0.88977  Biso   1.000  H
  H79      1.0000 0.33330  0.66670  0.72310  Biso   1.000  H
  H80      1.0000 0.66670  0.33330  0.77690  Biso   1.000  H
  H81      1.0000 0.99997  0.00003  0.05643  Biso   1.000  H
  H82      1.0000 0.33337  0.66663  0.11023  Biso   1.000  H
  H83      1.0000 0.66663  0.33337  0.38977  Biso   1.000  H
  H84      1.0000 0.00003  0.99997  0.44357  Biso   1.000  H
  C85      1.0000 0.49670  0.18070  0.21843  Biso   1.000  C
  C86      1.0000 0.81930  0.31600  0.21843  Biso   1.000  C
  C87      1.0000 0.68400  0.50330  0.21843  Biso   1.000  C
  C88      1.0000 0.18070  0.49670  0.28157  Biso   1.000  C
  C89      1.0000 0.16337  0.51403  0.55176  Biso   1.000  C
  C90      1.0000 0.48597  0.64933  0.55176  Biso   1.000  C
  C91      1.0000 0.35067  0.83663  0.55176  Biso   1.000  C
  C92      1.0000 0.84737  0.83003  0.61490  Biso   1.000  C
  C93      1.0000 0.83003  0.84737  0.88510  Biso   1.000  C
  C94      1.0000 0.51403  0.16337  0.94824  Biso   1.000  C
  C95      1.0000 0.31600  0.81930  0.28157  Biso   1.000  C
  C96      1.0000 0.50330  0.68400  0.28157  Biso   1.000  C
  C97      1.0000 0.15263  0.98267  0.88510  Biso   1.000  C
  C98      1.0000 0.01733  0.16997  0.88510  Biso   1.000  C
  C99      1.0000 0.64933  0.48597  0.94824  Biso   1.000  C
  C100     1.0000 0.83663  0.35067  0.94824  Biso   1.000  C
  C101     1.0000 0.98267  0.15263  0.61490  Biso   1.000  C
  C102     1.0000 0.16997  0.01733  0.61490  Biso   1.000  C
  C103     1.0000 0.50330  0.81930  0.78157  Biso   1.000  C
  C104     1.0000 0.18070  0.68400  0.78157  Biso   1.000  C
  C105     1.0000 0.31600  0.49670  0.78157  Biso   1.000  C
  C106     1.0000 0.81930  0.50330  0.71843  Biso   1.000  C
  C107     1.0000 0.16997  0.15263  0.11490  Biso   1.000  C
  C108     1.0000 0.84737  0.01733  0.11490  Biso   1.000  C
  C109     1.0000 0.98267  0.83003  0.11490  Biso   1.000  C
  C110     1.0000 0.48597  0.83663  0.05176  Biso   1.000  C
  C111     1.0000 0.83663  0.48597  0.44824  Biso   1.000  C
  C112     1.0000 0.15263  0.16997  0.38510  Biso   1.000  C
  C113     1.0000 0.68400  0.18070  0.71843  Biso   1.000  C
  C114     1.0000 0.49670  0.31600  0.71843  Biso   1.000  C
  C115     1.0000 0.51403  0.35067  0.44824  Biso   1.000  C
  C116     1.0000 0.64933  0.16337  0.44824  Biso   1.000  C
  C117     1.0000 0.01733  0.84737  0.38510  Biso   1.000  C
  C118     1.0000 0.83003  0.98267  0.38510  Biso   1.000  C
  C119     1.0000 0.35067  0.51403  0.05176  Biso   1.000  C
  C120     1.0000 0.16337  0.64933  0.05176  Biso   1.000  C
  C121     1.0000 0.45260  0.17610  0.24310  Biso   1.000  C
  C122     1.0000 0.82390  0.27650  0.24310  Biso   1.000  C
  C123     1.0000 0.72350  0.54740  0.24310  Biso   1.000  C
  C124     1.0000 0.17610  0.45260  0.25690  Biso   1.000  C
  C125     1.0000 0.11927  0.50943  0.57643  Biso   1.000  C
  C126     1.0000 0.49057  0.60983  0.57643  Biso   1.000  C
  C127     1.0000 0.39017  0.88073  0.57643  Biso   1.000  C
  C128     1.0000 0.84277  0.78593  0.59023  Biso   1.000  C
  C129     1.0000 0.78593  0.84277  0.90977  Biso   1.000  C
  C130     1.0000 0.50943  0.11927  0.92357  Biso   1.000  C
  C131     1.0000 0.27650  0.82390  0.25690  Biso   1.000  C
  C132     1.0000 0.54740  0.72350  0.25690  Biso   1.000  C
  C133     1.0000 0.15723  0.94317  0.90977  Biso   1.000  C
  C134     1.0000 0.05683  0.21407  0.90977  Biso   1.000  C
  C135     1.0000 0.60983  0.49057  0.92357  Biso   1.000  C
  C136     1.0000 0.88073  0.39017  0.92357  Biso   1.000  C
  C137     1.0000 0.94317  0.15723  0.59023  Biso   1.000  C
  C138     1.0000 0.21407  0.05683  0.59023  Biso   1.000  C
  C139     1.0000 0.54740  0.82390  0.75690  Biso   1.000  C
  C140     1.0000 0.17610  0.72350  0.75690  Biso   1.000  C
  C141     1.0000 0.27650  0.45260  0.75690  Biso   1.000  C
  C142     1.0000 0.82390  0.54740  0.74310  Biso   1.000  C
  C143     1.0000 0.21407  0.15723  0.09023  Biso   1.000  C
  C144     1.0000 0.84277  0.05683  0.09023  Biso   1.000  C
  C145     1.0000 0.94317  0.78593  0.09023  Biso   1.000  C
  C146     1.0000 0.49057  0.88073  0.07643  Biso   1.000  C
  C147     1.0000 0.88073  0.49057  0.42357  Biso   1.000  C
  C148     1.0000 0.15723  0.21407  0.40977  Biso   1.000  C
  C149     1.0000 0.72350  0.17610  0.74310  Biso   1.000  C
  C150     1.0000 0.45260  0.27650  0.74310  Biso   1.000  C
  C151     1.0000 0.50943  0.39017  0.42357  Biso   1.000  C
  C152     1.0000 0.60983  0.11927  0.42357  Biso   1.000  C
  C153     1.0000 0.05683  0.84277  0.40977  Biso   1.000  C
  C154     1.0000 0.78593  0.94317  0.40977  Biso   1.000  C
  C155     1.0000 0.39017  0.50943  0.07643  Biso   1.000  C
  C156     1.0000 0.11927  0.60983  0.07643  Biso   1.000  C
  C157     1.0000 0.47450  0.22170  0.26879  Biso   1.000  C
  C158     1.0000 0.77830  0.25280  0.26879  Biso   1.000  C
  C159     1.0000 0.74720  0.52550  0.26879  Biso   1.000  C
  C160     1.0000 0.22170  0.47450  0.23121  Biso   1.000  C
  C161     1.0000 0.14117  0.55503  0.60212  Biso   1.000  C
  C162     1.0000 0.44497  0.58613  0.60212  Biso   1.000  C
  C163     1.0000 0.41387  0.85883  0.60212  Biso   1.000  C
  C164     1.0000 0.88837  0.80783  0.56454  Biso   1.000  C
  C165     1.0000 0.80783  0.88837  0.93546  Biso   1.000  C
  C166     1.0000 0.55503  0.14117  0.89788  Biso   1.000  C
  C167     1.0000 0.25280  0.77830  0.23121  Biso   1.000  C
  C168     1.0000 0.52550  0.74720  0.23121  Biso   1.000  C
  C169     1.0000 0.11163  0.91947  0.93546  Biso   1.000  C
  C170     1.0000 0.08053  0.19217  0.93546  Biso   1.000  C
  C171     1.0000 0.58613  0.44497  0.89788  Biso   1.000  C
  C172     1.0000 0.85883  0.41387  0.89788  Biso   1.000  C
  C173     1.0000 0.91947  0.11163  0.56454  Biso   1.000  C
  C174     1.0000 0.19217  0.08053  0.56454  Biso   1.000  C
  C175     1.0000 0.52550  0.77830  0.73121  Biso   1.000  C
  C176     1.0000 0.22170  0.74720  0.73121  Biso   1.000  C
  C177     1.0000 0.25280  0.47450  0.73121  Biso   1.000  C
  C178     1.0000 0.77830  0.52550  0.76879  Biso   1.000  C
  C179     1.0000 0.19217  0.11163  0.06454  Biso   1.000  C
  C180     1.0000 0.88837  0.08053  0.06454  Biso   1.000  C
  C181     1.0000 0.91947  0.80783  0.06454  Biso   1.000  C
  C182     1.0000 0.44497  0.85883  0.10212  Biso   1.000  C
  C183     1.0000 0.85883  0.44497  0.39788  Biso   1.000  C
  C184     1.0000 0.11163  0.19217  0.43546  Biso   1.000  C
  C185     1.0000 0.74720  0.22170  0.76879  Biso   1.000  C
  C186     1.0000 0.47450  0.25280  0.76879  Biso   1.000  C
  C187     1.0000 0.55503  0.41387  0.39788  Biso   1.000  C
  C188     1.0000 0.58613  0.14117  0.39788  Biso   1.000  C
  C189     1.0000 0.08053  0.88837  0.43546  Biso   1.000  C
  C190     1.0000 0.80783  0.91947  0.43546  Biso   1.000  C
  C191     1.0000 0.41387  0.55503  0.10212  Biso   1.000  C
  C192     1.0000 0.14117  0.58613  0.10212  Biso   1.000  C
  C193     1.0000 0.54350  0.27410  0.26924  Biso   1.000  C
  C194     1.0000 0.72590  0.26940  0.26924  Biso   1.000  C
  C195     1.0000 0.73060  0.45650  0.26924  Biso   1.000  C
  C196     1.0000 0.27410  0.54350  0.23076  Biso   1.000  C
  C197     1.0000 0.21017  0.60743  0.60257  Biso   1.000  C
  C198     1.0000 0.39257  0.60273  0.60257  Biso   1.000  C
  C199     1.0000 0.39727  0.78983  0.60257  Biso   1.000  C
  C200     1.0000 0.94077  0.87683  0.56409  Biso   1.000  C
  C201     1.0000 0.87683  0.94077  0.93591  Biso   1.000  C
  C202     1.0000 0.60743  0.21017  0.89743  Biso   1.000  C
  C203     1.0000 0.26940  0.72590  0.23076  Biso   1.000  C
  C204     1.0000 0.45650  0.73060  0.23076  Biso   1.000  C
  C205     1.0000 0.05923  0.93607  0.93591  Biso   1.000  C
  C206     1.0000 0.06393  0.12317  0.93591  Biso   1.000  C
  C207     1.0000 0.60273  0.39257  0.89743  Biso   1.000  C
  C208     1.0000 0.78983  0.39727  0.89743  Biso   1.000  C
  C209     1.0000 0.93607  0.05923  0.56409  Biso   1.000  C
  C210     1.0000 0.12317  0.06393  0.56409  Biso   1.000  C
  C211     1.0000 0.45650  0.72590  0.73076  Biso   1.000  C
  C212     1.0000 0.27410  0.73060  0.73076  Biso   1.000  C
  C213     1.0000 0.26940  0.54350  0.73076  Biso   1.000  C
  C214     1.0000 0.72590  0.45650  0.76924  Biso   1.000  C
  C215     1.0000 0.12317  0.05923  0.06409  Biso   1.000  C
  C216     1.0000 0.94077  0.06393  0.06409  Biso   1.000  C
  C217     1.0000 0.93607  0.87683  0.06409  Biso   1.000  C
  C218     1.0000 0.39257  0.78983  0.10257  Biso   1.000  C
  C219     1.0000 0.78983  0.39257  0.39743  Biso   1.000  C
  C220     1.0000 0.05923  0.12317  0.43591  Biso   1.000  C
  C221     1.0000 0.73060  0.27410  0.76924  Biso   1.000  C
  C222     1.0000 0.54350  0.26940  0.76924  Biso   1.000  C
  C223     1.0000 0.60743  0.39727  0.39743  Biso   1.000  C
  C224     1.0000 0.60273  0.21017  0.39743  Biso   1.000  C
  C225     1.0000 0.06393  0.94077  0.43591  Biso   1.000  C
  C226     1.0000 0.87683  0.93607  0.43591  Biso   1.000  C
  C227     1.0000 0.39727  0.60743  0.10257  Biso   1.000  C
  C228     1.0000 0.21017  0.60273  0.10257  Biso   1.000  C
  C229     1.0000 0.59180  0.27920  0.24615  Biso   1.000  C
  C230     1.0000 0.72080  0.31260  0.24615  Biso   1.000  C
  C231     1.0000 0.68740  0.40820  0.24615  Biso   1.000  C
  C232     1.0000 0.27920  0.59180  0.25385  Biso   1.000  C
  C233     1.0000 0.25847  0.61253  0.57948  Biso   1.000  C
  C234     1.0000 0.38747  0.64593  0.57948  Biso   1.000  C
  C235     1.0000 0.35407  0.74153  0.57948  Biso   1.000  C
  C236     1.0000 0.94587  0.92513  0.58718  Biso   1.000  C
  C237     1.0000 0.92513  0.94587  0.91282  Biso   1.000  C
  C238     1.0000 0.61253  0.25847  0.92052  Biso   1.000  C
  C239     1.0000 0.31260  0.72080  0.25385  Biso   1.000  C
  C240     1.0000 0.40820  0.68740  0.25385  Biso   1.000  C
  C241     1.0000 0.05413  0.97927  0.91282  Biso   1.000  C
  C242     1.0000 0.02073  0.07487  0.91282  Biso   1.000  C
  C243     1.0000 0.64593  0.38747  0.92052  Biso   1.000  C
  C244     1.0000 0.74153  0.35407  0.92052  Biso   1.000  C
  C245     1.0000 0.97927  0.05413  0.58718  Biso   1.000  C
  C246     1.0000 0.07487  0.02073  0.58718  Biso   1.000  C
  C247     1.0000 0.40820  0.72080  0.75385  Biso   1.000  C
  C248     1.0000 0.27920  0.68740  0.75385  Biso   1.000  C
  C249     1.0000 0.31260  0.59180  0.75385  Biso   1.000  C
  C250     1.0000 0.72080  0.40820  0.74615  Biso   1.000  C
  C251     1.0000 0.07487  0.05413  0.08718  Biso   1.000  C
  C252     1.0000 0.94587  0.02073  0.08718  Biso   1.000  C
  C253     1.0000 0.97927  0.92513  0.08718  Biso   1.000  C
  C254     1.0000 0.38747  0.74153  0.07948  Biso   1.000  C
  C255     1.0000 0.74153  0.38747  0.42052  Biso   1.000  C
  C256     1.0000 0.05413  0.07487  0.41282  Biso   1.000  C
  C257     1.0000 0.68740  0.27920  0.74615  Biso   1.000  C
  C258     1.0000 0.59180  0.31260  0.74615  Biso   1.000  C
  C259     1.0000 0.61253  0.35407  0.42052  Biso   1.000  C
  C260     1.0000 0.64593  0.25847  0.42052  Biso   1.000  C
  C261     1.0000 0.02073  0.94587  0.41282  Biso   1.000  C
  C262     1.0000 0.92513  0.97927  0.41282  Biso   1.000  C
  C263     1.0000 0.35407  0.61253  0.07948  Biso   1.000  C
  C264     1.0000 0.25847  0.64593  0.07948  Biso   1.000  C
  C265     1.0000 0.56590  0.23070  0.22120  Biso   1.000  C
  C266     1.0000 0.76930  0.33520  0.22120  Biso   1.000  C
  C267     1.0000 0.66480  0.43410  0.22120  Biso   1.000  C
  C268     1.0000 0.23070  0.56590  0.27880  Biso   1.000  C
  C269     1.0000 0.23257  0.56403  0.55453  Biso   1.000  C
  C270     1.0000 0.43597  0.66853  0.55453  Biso   1.000  C
  C271     1.0000 0.33147  0.76743  0.55453  Biso   1.000  C
  C272     1.0000 0.89737  0.89923  0.61213  Biso   1.000  C
  C273     1.0000 0.89923  0.89737  0.88787  Biso   1.000  C
  C274     1.0000 0.56403  0.23257  0.94547  Biso   1.000  C
  C275     1.0000 0.33520  0.76930  0.27880  Biso   1.000  C
  C276     1.0000 0.43410  0.66480  0.27880  Biso   1.000  C
  C277     1.0000 0.10263  0.00187  0.88787  Biso   1.000  C
  C278     1.0000 0.99813  0.10077  0.88787  Biso   1.000  C
  C279     1.0000 0.66853  0.43597  0.94547  Biso   1.000  C
  C280     1.0000 0.76743  0.33147  0.94547  Biso   1.000  C
  C281     1.0000 0.00187  0.10263  0.61213  Biso   1.000  C
  C282     1.0000 0.10077  0.99813  0.61213  Biso   1.000  C
  C283     1.0000 0.43410  0.76930  0.77880  Biso   1.000  C
  C284     1.0000 0.23070  0.66480  0.77880  Biso   1.000  C
  C285     1.0000 0.33520  0.56590  0.77880  Biso   1.000  C
  C286     1.0000 0.76930  0.43410  0.72120  Biso   1.000  C
  C287     1.0000 0.10077  0.10263  0.11213  Biso   1.000  C
  C288     1.0000 0.89737  0.99813  0.11213  Biso   1.000  C
  C289     1.0000 0.00187  0.89923  0.11213  Biso   1.000  C
  C290     1.0000 0.43597  0.76743  0.05453  Biso   1.000  C
  C291     1.0000 0.76743  0.43597  0.44547  Biso   1.000  C
  C292     1.0000 0.10263  0.10077  0.38787  Biso   1.000  C
  C293     1.0000 0.66480  0.23070  0.72120  Biso   1.000  C
  C294     1.0000 0.56590  0.33520  0.72120  Biso   1.000  C
  C295     1.0000 0.56403  0.33147  0.44547  Biso   1.000  C
  C296     1.0000 0.66853  0.23257  0.44547  Biso   1.000  C
  C297     1.0000 0.99813  0.89737  0.38787  Biso   1.000  C
  C298     1.0000 0.89923  0.00187  0.38787  Biso   1.000  C
  C299     1.0000 0.33147  0.56403  0.05453  Biso   1.000  C
  C300     1.0000 0.23257  0.66853  0.05453  Biso   1.000  C
  C301     1.0000 0.51270  0.08800  0.09949  Biso   1.000  C
  C302     1.0000 0.91200  0.42470  0.09949  Biso   1.000  C
  C303     1.0000 0.57530  0.48730  0.09949  Biso   1.000  C
  C304     1.0000 0.08800  0.51270  0.40051  Biso   1.000  C
  C305     1.0000 0.17937  0.42133  0.43282  Biso   1.000  C
  C306     1.0000 0.57867  0.75803  0.43282  Biso   1.000  C
  C307     1.0000 0.24197  0.82063  0.43282  Biso   1.000  C
  C308     1.0000 0.75467  0.84603  0.73384  Biso   1.000  C
  C309     1.0000 0.84603  0.75467  0.76616  Biso   1.000  C
  C310     1.0000 0.42133  0.17937  0.06718  Biso   1.000  C
  C311     1.0000 0.42470  0.91200  0.40051  Biso   1.000  C
  C312     1.0000 0.48730  0.57530  0.40051  Biso   1.000  C
  C313     1.0000 0.24533  0.09137  0.76616  Biso   1.000  C
  C314     1.0000 0.90863  0.15397  0.76616  Biso   1.000  C
  C315     1.0000 0.75803  0.57867  0.06718  Biso   1.000  C
  C316     1.0000 0.82063  0.24197  0.06718  Biso   1.000  C
  C317     1.0000 0.09137  0.24533  0.73384  Biso   1.000  C
  C318     1.0000 0.15397  0.90863  0.73384  Biso   1.000  C
  C319     1.0000 0.48730  0.91200  0.90051  Biso   1.000  C
  C320     1.0000 0.08800  0.57530  0.90051  Biso   1.000  C
  C321     1.0000 0.42470  0.51270  0.90051  Biso   1.000  C
  C322     1.0000 0.91200  0.48730  0.59949  Biso   1.000  C
  C323     1.0000 0.15397  0.24533  0.23384  Biso   1.000  C
  C324     1.0000 0.75467  0.90863  0.23384  Biso   1.000  C
  C325     1.0000 0.09137  0.84603  0.23384  Biso   1.000  C
  C326     1.0000 0.57867  0.82063  0.93282  Biso   1.000  C
  C327     1.0000 0.82063  0.57867  0.56718  Biso   1.000  C
  C328     1.0000 0.24533  0.15397  0.26616  Biso   1.000  C
  C329     1.0000 0.57530  0.08800  0.59949  Biso   1.000  C
  C330     1.0000 0.51270  0.42470  0.59949  Biso   1.000  C
  C331     1.0000 0.42133  0.24197  0.56718  Biso   1.000  C
  C332     1.0000 0.75803  0.17937  0.56718  Biso   1.000  C
  C333     1.0000 0.90863  0.75467  0.26616  Biso   1.000  C
  C334     1.0000 0.84603  0.09137  0.26616  Biso   1.000  C
  C335     1.0000 0.24197  0.42133  0.93282  Biso   1.000  C
  C336     1.0000 0.17937  0.75803  0.93282  Biso   1.000  C
  H85      1.0000 0.46920  0.07440  0.09060  Biso   1.000  H
  H86      1.0000 0.92560  0.39480  0.09060  Biso   1.000  H
  H87      1.0000 0.60520  0.53080  0.09060  Biso   1.000  H
  H88      1.0000 0.07440  0.46920  0.40940  Biso   1.000  H
  H89      1.0000 0.13587  0.40773  0.42393  Biso   1.000  H
  H90      1.0000 0.59227  0.72813  0.42393  Biso   1.000  H
  H91      1.0000 0.27187  0.86413  0.42393  Biso   1.000  H
  H92      1.0000 0.74107  0.80253  0.74273  Biso   1.000  H
  H93      1.0000 0.80253  0.74107  0.75727  Biso   1.000  H
  H94      1.0000 0.40773  0.13587  0.07607  Biso   1.000  H
  H95      1.0000 0.39480  0.92560  0.40940  Biso   1.000  H
  H96      1.0000 0.53080  0.60520  0.40940  Biso   1.000  H
  H97      1.0000 0.25893  0.06147  0.75727  Biso   1.000  H
  H98      1.0000 0.93853  0.19747  0.75727  Biso   1.000  H
  H99      1.0000 0.72813  0.59227  0.07607  Biso   1.000  H
  H100     1.0000 0.86413  0.27187  0.07607  Biso   1.000  H
  H101     1.0000 0.06147  0.25893  0.74273  Biso   1.000  H
  H102     1.0000 0.19747  0.93853  0.74273  Biso   1.000  H
  H103     1.0000 0.53080  0.92560  0.90940  Biso   1.000  H
  H104     1.0000 0.07440  0.60520  0.90940  Biso   1.000  H
  H105     1.0000 0.39480  0.46920  0.90940  Biso   1.000  H
  H106     1.0000 0.92560  0.53080  0.59060  Biso   1.000  H
  H107     1.0000 0.19747  0.25893  0.24273  Biso   1.000  H
  H108     1.0000 0.74107  0.93853  0.24273  Biso   1.000  H
  H109     1.0000 0.06147  0.80253  0.24273  Biso   1.000  H
  H110     1.0000 0.59227  0.86413  0.92393  Biso   1.000  H
  H111     1.0000 0.86413  0.59227  0.57607  Biso   1.000  H
  H112     1.0000 0.25893  0.19747  0.25727  Biso   1.000  H
  H113     1.0000 0.60520  0.07440  0.59060  Biso   1.000  H
  H114     1.0000 0.46920  0.39480  0.59060  Biso   1.000  H
  H115     1.0000 0.40773  0.27187  0.57607  Biso   1.000  H
  H116     1.0000 0.72813  0.13587  0.57607  Biso   1.000  H
  H117     1.0000 0.93853  0.74107  0.25727  Biso   1.000  H
  H118     1.0000 0.80253  0.06147  0.25727  Biso   1.000  H
  H119     1.0000 0.27187  0.40773  0.92393  Biso   1.000  H
  H120     1.0000 0.13587  0.72813  0.92393  Biso   1.000  H
  C337     1.0000 0.57040  0.12510  0.08030  Biso   1.000  C
  C338     1.0000 0.87490  0.44530  0.08030  Biso   1.000  C
  C339     1.0000 0.55470  0.42960  0.08030  Biso   1.000  C
  C340     1.0000 0.12510  0.57040  0.41970  Biso   1.000  C
  C341     1.0000 0.23707  0.45843  0.41363  Biso   1.000  C
  C342     1.0000 0.54157  0.77863  0.41363  Biso   1.000  C
  C343     1.0000 0.22137  0.76293  0.41363  Biso   1.000  C
  C344     1.0000 0.79177  0.90373  0.75303  Biso   1.000  C
  C345     1.0000 0.90373  0.79177  0.74697  Biso   1.000  C
  C346     1.0000 0.45843  0.23707  0.08637  Biso   1.000  C
  C347     1.0000 0.44530  0.87490  0.41970  Biso   1.000  C
  C348     1.0000 0.42960  0.55470  0.41970  Biso   1.000  C
  C349     1.0000 0.20823  0.11197  0.74697  Biso   1.000  C
  C350     1.0000 0.88803  0.09627  0.74697  Biso   1.000  C
  C351     1.0000 0.77863  0.54157  0.08637  Biso   1.000  C
  C352     1.0000 0.76293  0.22137  0.08637  Biso   1.000  C
  C353     1.0000 0.11197  0.20823  0.75303  Biso   1.000  C
  C354     1.0000 0.09627  0.88803  0.75303  Biso   1.000  C
  C355     1.0000 0.42960  0.87490  0.91970  Biso   1.000  C
  C356     1.0000 0.12510  0.55470  0.91970  Biso   1.000  C
  C357     1.0000 0.44530  0.57040  0.91970  Biso   1.000  C
  C358     1.0000 0.87490  0.42960  0.58030  Biso   1.000  C
  C359     1.0000 0.09627  0.20823  0.25303  Biso   1.000  C
  C360     1.0000 0.79177  0.88803  0.25303  Biso   1.000  C
  C361     1.0000 0.11197  0.90373  0.25303  Biso   1.000  C
  C362     1.0000 0.54157  0.76293  0.91363  Biso   1.000  C
  C363     1.0000 0.76293  0.54157  0.58637  Biso   1.000  C
  C364     1.0000 0.20823  0.09627  0.24697  Biso   1.000  C
  C365     1.0000 0.55470  0.12510  0.58030  Biso   1.000  C
  C366     1.0000 0.57040  0.44530  0.58030  Biso   1.000  C
  C367     1.0000 0.45843  0.22137  0.58637  Biso   1.000  C
  C368     1.0000 0.77863  0.23707  0.58637  Biso   1.000  C
  C369     1.0000 0.88803  0.79177  0.24697  Biso   1.000  C
  C370     1.0000 0.90373  0.11197  0.24697  Biso   1.000  C
  C371     1.0000 0.22137  0.45843  0.91363  Biso   1.000  C
  C372     1.0000 0.23707  0.77863  0.91363  Biso   1.000  C
  H121     1.0000 0.56630  0.13700  0.05890  Biso   1.000  H
  H122     1.0000 0.86300  0.42930  0.05890  Biso   1.000  H
  H123     1.0000 0.57070  0.43370  0.05890  Biso   1.000  H
  H124     1.0000 0.13700  0.56630  0.44110  Biso   1.000  H
  H125     1.0000 0.23297  0.47033  0.39223  Biso   1.000  H
  H126     1.0000 0.52967  0.76263  0.39223  Biso   1.000  H
  H127     1.0000 0.23737  0.76703  0.39223  Biso   1.000  H
  H128     1.0000 0.80367  0.89963  0.77443  Biso   1.000  H
  H129     1.0000 0.89963  0.80367  0.72557  Biso   1.000  H
  H130     1.0000 0.47033  0.23297  0.10777  Biso   1.000  H
  H131     1.0000 0.42930  0.86300  0.44110  Biso   1.000  H
  H132     1.0000 0.43370  0.57070  0.44110  Biso   1.000  H
  H133     1.0000 0.19633  0.09597  0.72557  Biso   1.000  H
  H134     1.0000 0.90403  0.10037  0.72557  Biso   1.000  H
  H135     1.0000 0.76263  0.52967  0.10777  Biso   1.000  H
  H136     1.0000 0.76703  0.23737  0.10777  Biso   1.000  H
  H137     1.0000 0.09597  0.19633  0.77443  Biso   1.000  H
  H138     1.0000 0.10037  0.90403  0.77443  Biso   1.000  H
  H139     1.0000 0.43370  0.86300  0.94110  Biso   1.000  H
  H140     1.0000 0.13700  0.57070  0.94110  Biso   1.000  H
  H141     1.0000 0.42930  0.56630  0.94110  Biso   1.000  H
  H142     1.0000 0.86300  0.43370  0.55890  Biso   1.000  H
  H143     1.0000 0.10037  0.19633  0.27443  Biso   1.000  H
  H144     1.0000 0.80367  0.90403  0.27443  Biso   1.000  H
  H145     1.0000 0.09597  0.89963  0.27443  Biso   1.000  H
  H146     1.0000 0.52967  0.76703  0.89223  Biso   1.000  H
  H147     1.0000 0.76703  0.52967  0.60777  Biso   1.000  H
  H148     1.0000 0.19633  0.10037  0.22557  Biso   1.000  H
  H149     1.0000 0.57070  0.13700  0.55890  Biso   1.000  H
  H150     1.0000 0.56630  0.42930  0.55890  Biso   1.000  H
  H151     1.0000 0.47033  0.23737  0.60777  Biso   1.000  H
  H152     1.0000 0.76263  0.23297  0.60777  Biso   1.000  H
  H153     1.0000 0.90403  0.80367  0.22557  Biso   1.000  H
  H154     1.0000 0.89963  0.09597  0.22557  Biso   1.000  H
  H155     1.0000 0.23737  0.47033  0.89223  Biso   1.000  H
  H156     1.0000 0.23297  0.76263  0.89223  Biso   1.000  H
  C373     1.0000 0.63490  0.14430  0.09354  Biso   1.000  C
  C374     1.0000 0.85570  0.49060  0.09354  Biso   1.000  C
  C375     1.0000 0.50940  0.36510  0.09354  Biso   1.000  C
  C376     1.0000 0.14430  0.63490  0.40646  Biso   1.000  C
  C377     1.0000 0.30157  0.47763  0.42687  Biso   1.000  C
  C378     1.0000 0.52237  0.82393  0.42687  Biso   1.000  C
  C379     1.0000 0.17607  0.69843  0.42687  Biso   1.000  C
  C380     1.0000 0.81097  0.96823  0.73979  Biso   1.000  C
  C381     1.0000 0.96823  0.81097  0.76021  Biso   1.000  C
  C382     1.0000 0.47763  0.30157  0.07313  Biso   1.000  C
  C383     1.0000 0.49060  0.85570  0.40646  Biso   1.000  C
  C384     1.0000 0.36510  0.50940  0.40646  Biso   1.000  C
  C385     1.0000 0.18903  0.15727  0.76021  Biso   1.000  C
  C386     1.0000 0.84273  0.03177  0.76021  Biso   1.000  C
  C387     1.0000 0.82393  0.52237  0.07313  Biso   1.000  C
  C388     1.0000 0.69843  0.17607  0.07313  Biso   1.000  C
  C389     1.0000 0.15727  0.18903  0.73979  Biso   1.000  C
  C390     1.0000 0.03177  0.84273  0.73979  Biso   1.000  C
  C391     1.0000 0.36510  0.85570  0.90646  Biso   1.000  C
  C392     1.0000 0.14430  0.50940  0.90646  Biso   1.000  C
  C393     1.0000 0.49060  0.63490  0.90646  Biso   1.000  C
  C394     1.0000 0.85570  0.36510  0.59354  Biso   1.000  C
  C395     1.0000 0.03177  0.18903  0.23979  Biso   1.000  C
  C396     1.0000 0.81097  0.84273  0.23979  Biso   1.000  C
  C397     1.0000 0.15727  0.96823  0.23979  Biso   1.000  C
  C398     1.0000 0.52237  0.69843  0.92687  Biso   1.000  C
  C399     1.0000 0.69843  0.52237  0.57313  Biso   1.000  C
  C400     1.0000 0.18903  0.03177  0.26021  Biso   1.000  C
  C401     1.0000 0.50940  0.14430  0.59354  Biso   1.000  C
  C402     1.0000 0.63490  0.49060  0.59354  Biso   1.000  C
  C403     1.0000 0.47763  0.17607  0.57313  Biso   1.000  C
  C404     1.0000 0.82393  0.30157  0.57313  Biso   1.000  C
  C405     1.0000 0.84273  0.81097  0.26021  Biso   1.000  C
  C406     1.0000 0.96823  0.15727  0.26021  Biso   1.000  C
  C407     1.0000 0.17607  0.47763  0.92687  Biso   1.000  C
  C408     1.0000 0.30157  0.82393  0.92687  Biso   1.000  C
  C409     1.0000 0.63800  0.12830  0.12540  Biso   1.000  C
  C410     1.0000 0.87170  0.50970  0.12540  Biso   1.000  C
  C411     1.0000 0.49030  0.36200  0.12540  Biso   1.000  C
  C412     1.0000 0.12830  0.63800  0.37460  Biso   1.000  C
  C413     1.0000 0.30467  0.46163  0.45873  Biso   1.000  C
  C414     1.0000 0.53837  0.84303  0.45873  Biso   1.000  C
  C415     1.0000 0.15697  0.69533  0.45873  Biso   1.000  C
  C416     1.0000 0.79497  0.97133  0.70793  Biso   1.000  C
  C417     1.0000 0.97133  0.79497  0.79207  Biso   1.000  C
  C418     1.0000 0.46163  0.30467  0.04127  Biso   1.000  C
  C419     1.0000 0.50970  0.87170  0.37460  Biso   1.000  C
  C420     1.0000 0.36200  0.49030  0.37460  Biso   1.000  C
  C421     1.0000 0.20503  0.17637  0.79207  Biso   1.000  C
  C422     1.0000 0.82363  0.02867  0.79207  Biso   1.000  C
  C423     1.0000 0.84303  0.53837  0.04127  Biso   1.000  C
  C424     1.0000 0.69533  0.15697  0.04127  Biso   1.000  C
  C425     1.0000 0.17637  0.20503  0.70793  Biso   1.000  C
  C426     1.0000 0.02867  0.82363  0.70793  Biso   1.000  C
  C427     1.0000 0.36200  0.87170  0.87460  Biso   1.000  C
  C428     1.0000 0.12830  0.49030  0.87460  Biso   1.000  C
  C429     1.0000 0.50970  0.63800  0.87460  Biso   1.000  C
  C430     1.0000 0.87170  0.36200  0.62540  Biso   1.000  C
  C431     1.0000 0.02867  0.20503  0.20793  Biso   1.000  C
  C432     1.0000 0.79497  0.82363  0.20793  Biso   1.000  C
  C433     1.0000 0.17637  0.97133  0.20793  Biso   1.000  C
  C434     1.0000 0.53837  0.69533  0.95873  Biso   1.000  C
  C435     1.0000 0.69533  0.53837  0.54127  Biso   1.000  C
  C436     1.0000 0.20503  0.02867  0.29207  Biso   1.000  C
  C437     1.0000 0.49030  0.12830  0.62540  Biso   1.000  C
  C438     1.0000 0.63800  0.50970  0.62540  Biso   1.000  C
  C439     1.0000 0.46163  0.15697  0.54127  Biso   1.000  C
  C440     1.0000 0.84303  0.30467  0.54127  Biso   1.000  C
  C441     1.0000 0.82363  0.79497  0.29207  Biso   1.000  C
  C442     1.0000 0.97133  0.17637  0.29207  Biso   1.000  C
  C443     1.0000 0.15697  0.46163  0.95873  Biso   1.000  C
  C444     1.0000 0.30467  0.84303  0.95873  Biso   1.000  C
  H157     1.0000 0.68070  0.14220  0.13530  Biso   1.000  H
  H158     1.0000 0.85780  0.53850  0.13530  Biso   1.000  H
  H159     1.0000 0.46150  0.31930  0.13530  Biso   1.000  H
  H160     1.0000 0.14220  0.68070  0.36470  Biso   1.000  H
  H161     1.0000 0.34737  0.47553  0.46863  Biso   1.000  H
  H162     1.0000 0.52447  0.87183  0.46863  Biso   1.000  H
  H163     1.0000 0.12817  0.65263  0.46863  Biso   1.000  H
  H164     1.0000 0.80887  0.01403  0.69803  Biso   1.000  H
  H165     1.0000 0.01403  0.80887  0.80197  Biso   1.000  H
  H166     1.0000 0.47553  0.34737  0.03137  Biso   1.000  H
  H167     1.0000 0.53850  0.85780  0.36470  Biso   1.000  H
  H168     1.0000 0.31930  0.46150  0.36470  Biso   1.000  H
  H169     1.0000 0.19113  0.20517  0.80197  Biso   1.000  H
  H170     1.0000 0.79483  0.98597  0.80197  Biso   1.000  H
  H171     1.0000 0.87183  0.52447  0.03137  Biso   1.000  H
  H172     1.0000 0.65263  0.12817  0.03137  Biso   1.000  H
  H173     1.0000 0.20517  0.19113  0.69803  Biso   1.000  H
  H174     1.0000 0.98597  0.79483  0.69803  Biso   1.000  H
  H175     1.0000 0.31930  0.85780  0.86470  Biso   1.000  H
  H176     1.0000 0.14220  0.46150  0.86470  Biso   1.000  H
  H177     1.0000 0.53850  0.68070  0.86470  Biso   1.000  H
  H178     1.0000 0.85780  0.31930  0.63530  Biso   1.000  H
  H179     1.0000 0.98597  0.19113  0.19803  Biso   1.000  H
  H180     1.0000 0.80887  0.79483  0.19803  Biso   1.000  H
  H181     1.0000 0.20517  0.01403  0.19803  Biso   1.000  H
  H182     1.0000 0.52447  0.65263  0.96863  Biso   1.000  H
  H183     1.0000 0.65263  0.52447  0.53137  Biso   1.000  H
  H184     1.0000 0.19113  0.98597  0.30197  Biso   1.000  H
  H185     1.0000 0.46150  0.14220  0.63530  Biso   1.000  H
  H186     1.0000 0.68070  0.53850  0.63530  Biso   1.000  H
  H187     1.0000 0.47553  0.12817  0.53137  Biso   1.000  H
  H188     1.0000 0.87183  0.34737  0.53137  Biso   1.000  H
  H189     1.0000 0.79483  0.80887  0.30197  Biso   1.000  H
  H190     1.0000 0.01403  0.20517  0.30197  Biso   1.000  H
  H191     1.0000 0.12817  0.47553  0.96863  Biso   1.000  H
  H192     1.0000 0.34737  0.87183  0.96863  Biso   1.000  H
  C445     1.0000 0.57780  0.09140  0.14276  Biso   1.000  C
  C446     1.0000 0.90860  0.48640  0.14276  Biso   1.000  C
  C447     1.0000 0.51360  0.42220  0.14276  Biso   1.000  C
  C448     1.0000 0.09140  0.57780  0.35724  Biso   1.000  C
  C449     1.0000 0.24447  0.42473  0.47609  Biso   1.000  C
  C450     1.0000 0.57527  0.81973  0.47609  Biso   1.000  C
  C451     1.0000 0.18027  0.75553  0.47609  Biso   1.000  C
  C452     1.0000 0.75807  0.91113  0.69057  Biso   1.000  C
  C453     1.0000 0.91113  0.75807  0.80943  Biso   1.000  C
  C454     1.0000 0.42473  0.24447  0.02391  Biso   1.000  C
  C455     1.0000 0.48640  0.90860  0.35724  Biso   1.000  C
  C456     1.0000 0.42220  0.51360  0.35724  Biso   1.000  C
  C457     1.0000 0.24193  0.15307  0.80943  Biso   1.000  C
  C458     1.0000 0.84693  0.08887  0.80943  Biso   1.000  C
  C459     1.0000 0.81973  0.57527  0.02391  Biso   1.000  C
  C460     1.0000 0.75553  0.18027  0.02391  Biso   1.000  C
  C461     1.0000 0.15307  0.24193  0.69057  Biso   1.000  C
  C462     1.0000 0.08887  0.84693  0.69057  Biso   1.000  C
  C463     1.0000 0.42220  0.90860  0.85724  Biso   1.000  C
  C464     1.0000 0.09140  0.51360  0.85724  Biso   1.000  C
  C465     1.0000 0.48640  0.57780  0.85724  Biso   1.000  C
  C466     1.0000 0.90860  0.42220  0.64276  Biso   1.000  C
  C467     1.0000 0.08887  0.24193  0.19057  Biso   1.000  C
  C468     1.0000 0.75807  0.84693  0.19057  Biso   1.000  C
  C469     1.0000 0.15307  0.91113  0.19057  Biso   1.000  C
  C470     1.0000 0.57527  0.75553  0.97609  Biso   1.000  C
  C471     1.0000 0.75553  0.57527  0.52391  Biso   1.000  C
  C472     1.0000 0.24193  0.08887  0.30943  Biso   1.000  C
  C473     1.0000 0.51360  0.09140  0.64276  Biso   1.000  C
  C474     1.0000 0.57780  0.48640  0.64276  Biso   1.000  C
  C475     1.0000 0.42473  0.18027  0.52391  Biso   1.000  C
  C476     1.0000 0.81973  0.24447  0.52391  Biso   1.000  C
  C477     1.0000 0.84693  0.75807  0.30943  Biso   1.000  C
  C478     1.0000 0.91113  0.15307  0.30943  Biso   1.000  C
  C479     1.0000 0.18027  0.42473  0.97609  Biso   1.000  C
  C480     1.0000 0.24447  0.81973  0.97609  Biso   1.000  C
  H193     1.0000 0.58050  0.08040  0.16450  Biso   1.000  H
  H194     1.0000 0.91960  0.50010  0.16450  Biso   1.000  H
  H195     1.0000 0.49990  0.41950  0.16450  Biso   1.000  H
  H196     1.0000 0.08040  0.58050  0.33550  Biso   1.000  H
  H197     1.0000 0.24717  0.41373  0.49783  Biso   1.000  H
  H198     1.0000 0.58627  0.83343  0.49783  Biso   1.000  H
  H199     1.0000 0.16657  0.75283  0.49783  Biso   1.000  H
  H200     1.0000 0.74707  0.91383  0.66883  Biso   1.000  H
  H201     1.0000 0.91383  0.74707  0.83117  Biso   1.000  H
  H202     1.0000 0.41373  0.24717  0.00217  Biso   1.000  H
  H203     1.0000 0.50010  0.91960  0.33550  Biso   1.000  H
  H204     1.0000 0.41950  0.49990  0.33550  Biso   1.000  H
  H205     1.0000 0.25293  0.16677  0.83117  Biso   1.000  H
  H206     1.0000 0.83323  0.08617  0.83117  Biso   1.000  H
  H207     1.0000 0.83343  0.58627  0.00217  Biso   1.000  H
  H208     1.0000 0.75283  0.16657  0.00217  Biso   1.000  H
  H209     1.0000 0.16677  0.25293  0.66883  Biso   1.000  H
  H210     1.0000 0.08617  0.83323  0.66883  Biso   1.000  H
  H211     1.0000 0.41950  0.91960  0.83550  Biso   1.000  H
  H212     1.0000 0.08040  0.49990  0.83550  Biso   1.000  H
  H213     1.0000 0.50010  0.58050  0.83550  Biso   1.000  H
  H214     1.0000 0.91960  0.41950  0.66450  Biso   1.000  H
  H215     1.0000 0.08617  0.25293  0.16883  Biso   1.000  H
  H216     1.0000 0.74707  0.83323  0.16883  Biso   1.000  H
  H217     1.0000 0.16677  0.91383  0.16883  Biso   1.000  H
  H218     1.0000 0.58627  0.75283  0.99783  Biso   1.000  H
  H219     1.0000 0.75283  0.58627  0.50217  Biso   1.000  H
  H220     1.0000 0.25293  0.08617  0.33117  Biso   1.000  H
  H221     1.0000 0.49990  0.08040  0.66450  Biso   1.000  H
  H222     1.0000 0.58050  0.50010  0.66450  Biso   1.000  H
  H223     1.0000 0.41373  0.16657  0.50217  Biso   1.000  H
  H224     1.0000 0.83343  0.24717  0.50217  Biso   1.000  H
  H225     1.0000 0.83323  0.74707  0.33117  Biso   1.000  H
  H226     1.0000 0.91383  0.16677  0.33117  Biso   1.000  H
  H227     1.0000 0.16657  0.41373  0.99783  Biso   1.000  H
  H228     1.0000 0.24717  0.83343  0.99783  Biso   1.000  H
  O181     1.0000 0.37010  0.04530  0.12934  Biso   1.000  O
  O182     1.0000 0.95470  0.32480  0.12934  Biso   1.000  O
  O183     1.0000 0.67520  0.62990  0.12934  Biso   1.000  O
  O184     1.0000 0.04530  0.37010  0.37066  Biso   1.000  O
  O185     1.0000 0.03677  0.37863  0.46267  Biso   1.000  O
  O186     1.0000 0.62137  0.65813  0.46267  Biso   1.000  O
  O187     1.0000 0.34187  0.96323  0.46267  Biso   1.000  O
  O188     1.0000 0.71197  0.70343  0.70399  Biso   1.000  O
  O189     1.0000 0.70343  0.71197  0.79601  Biso   1.000  O
  O190     1.0000 0.37863  0.03677  0.03733  Biso   1.000  O
  O191     1.0000 0.32480  0.95470  0.37066  Biso   1.000  O
  O192     1.0000 0.62990  0.67520  0.37066  Biso   1.000  O
  O193     1.0000 0.28803  0.99147  0.79601  Biso   1.000  O
  O194     1.0000 0.00853  0.29657  0.79601  Biso   1.000  O
  O195     1.0000 0.65813  0.62137  0.03733  Biso   1.000  O
  O196     1.0000 0.96323  0.34187  0.03733  Biso   1.000  O
  O197     1.0000 0.99147  0.28803  0.70399  Biso   1.000  O
  O198     1.0000 0.29657  0.00853  0.70399  Biso   1.000  O
  O199     1.0000 0.62990  0.95470  0.87066  Biso   1.000  O
  O200     1.0000 0.04530  0.67520  0.87066  Biso   1.000  O
  O201     1.0000 0.32480  0.37010  0.87066  Biso   1.000  O
  O202     1.0000 0.95470  0.62990  0.62934  Biso   1.000  O
  O203     1.0000 0.29657  0.28803  0.20399  Biso   1.000  O
  O204     1.0000 0.71197  0.00853  0.20399  Biso   1.000  O
  O205     1.0000 0.99147  0.70343  0.20399  Biso   1.000  O
  O206     1.0000 0.62137  0.96323  0.96267  Biso   1.000  O
  O207     1.0000 0.96323  0.62137  0.53733  Biso   1.000  O
  O208     1.0000 0.28803  0.29657  0.29601  Biso   1.000  O
  O209     1.0000 0.67520  0.04530  0.62934  Biso   1.000  O
  O210     1.0000 0.37010  0.32480  0.62934  Biso   1.000  O
  O211     1.0000 0.37863  0.34187  0.53733  Biso   1.000  O
  O212     1.0000 0.65813  0.03677  0.53733  Biso   1.000  O
  O213     1.0000 0.00853  0.71197  0.29601  Biso   1.000  O
  O214     1.0000 0.70343  0.99147  0.29601  Biso   1.000  O
  O215     1.0000 0.34187  0.37863  0.96267  Biso   1.000  O
  O216     1.0000 0.03677  0.65813  0.96267  Biso   1.000  O
  H229     1.0000 0.39300  0.08530  0.13840  Biso   1.000  H
  H230     1.0000 0.91470  0.30770  0.13840  Biso   1.000  H
  H231     1.0000 0.69230  0.60700  0.13840  Biso   1.000  H
  H232     1.0000 0.08530  0.39300  0.36160  Biso   1.000  H
  H233     1.0000 0.05967  0.41863  0.47173  Biso   1.000  H
  H234     1.0000 0.58137  0.64103  0.47173  Biso   1.000  H
  H235     1.0000 0.35897  0.94033  0.47173  Biso   1.000  H
  H236     1.0000 0.75197  0.72633  0.69493  Biso   1.000  H
  H237     1.0000 0.72633  0.75197  0.80507  Biso   1.000  H
  H238     1.0000 0.41863  0.05967  0.02827  Biso   1.000  H
  H239     1.0000 0.30770  0.91470  0.36160  Biso   1.000  H
  H240     1.0000 0.60700  0.69230  0.36160  Biso   1.000  H
  H241     1.0000 0.24803  0.97437  0.80507  Biso   1.000  H
  H242     1.0000 0.02563  0.27367  0.80507  Biso   1.000  H
  H243     1.0000 0.64103  0.58137  0.02827  Biso   1.000  H
  H244     1.0000 0.94033  0.35897  0.02827  Biso   1.000  H
  H245     1.0000 0.97437  0.24803  0.69493  Biso   1.000  H
  H246     1.0000 0.27367  0.02563  0.69493  Biso   1.000  H
  H247     1.0000 0.60700  0.91470  0.86160  Biso   1.000  H
  H248     1.0000 0.08530  0.69230  0.86160  Biso   1.000  H
  H249     1.0000 0.30770  0.39300  0.86160  Biso   1.000  H
  H250     1.0000 0.91470  0.60700  0.63840  Biso   1.000  H
  H251     1.0000 0.27367  0.24803  0.19493  Biso   1.000  H
  H252     1.0000 0.75197  0.02563  0.19493  Biso   1.000  H
  H253     1.0000 0.97437  0.72633  0.19493  Biso   1.000  H
  H254     1.0000 0.58137  0.94033  0.97173  Biso   1.000  H
  H255     1.0000 0.94033  0.58137  0.52827  Biso   1.000  H
  H256     1.0000 0.24803  0.27367  0.30507  Biso   1.000  H
  H257     1.0000 0.69230  0.08530  0.63840  Biso   1.000  H
  H258     1.0000 0.39300  0.30770  0.63840  Biso   1.000  H
  H259     1.0000 0.41863  0.35897  0.52827  Biso   1.000  H
  H260     1.0000 0.64103  0.05967  0.52827  Biso   1.000  H
  H261     1.0000 0.02563  0.75197  0.30507  Biso   1.000  H
  H262     1.0000 0.72633  0.97437  0.30507  Biso   1.000  H
  H263     1.0000 0.35897  0.41863  0.97173  Biso   1.000  H
  H264     1.0000 0.05967  0.64103  0.97173  Biso   1.000  H
  C481     1.0000 0.29990  0.01380  0.13590  Biso   1.000  C
  C482     1.0000 0.98620  0.28610  0.13590  Biso   1.000  C
  C483     1.0000 0.71390  0.70010  0.13590  Biso   1.000  C
  C484     1.0000 0.01380  0.29990  0.36410  Biso   1.000  C
  C485     1.0000 0.96657  0.34713  0.46923  Biso   1.000  C
  C486     1.0000 0.65287  0.61943  0.46923  Biso   1.000  C
  C487     1.0000 0.38057  0.03343  0.46923  Biso   1.000  C
  C488     1.0000 0.68047  0.63323  0.69743  Biso   1.000  C
  C489     1.0000 0.63323  0.68047  0.80257  Biso   1.000  C
  C490     1.0000 0.34713  0.96657  0.03077  Biso   1.000  C
  C491     1.0000 0.28610  0.98620  0.36410  Biso   1.000  C
  C492     1.0000 0.70010  0.71390  0.36410  Biso   1.000  C
  C493     1.0000 0.31953  0.95277  0.80257  Biso   1.000  C
  C494     1.0000 0.04723  0.36677  0.80257  Biso   1.000  C
  C495     1.0000 0.61943  0.65287  0.03077  Biso   1.000  C
  C496     1.0000 0.03343  0.38057  0.03077  Biso   1.000  C
  C497     1.0000 0.95277  0.31953  0.69743  Biso   1.000  C
  C498     1.0000 0.36677  0.04723  0.69743  Biso   1.000  C
  C499     1.0000 0.70010  0.98620  0.86410  Biso   1.000  C
  C500     1.0000 0.01380  0.71390  0.86410  Biso   1.000  C
  C501     1.0000 0.28610  0.29990  0.86410  Biso   1.000  C
  C502     1.0000 0.98620  0.70010  0.63590  Biso   1.000  C
  C503     1.0000 0.36677  0.31953  0.19743  Biso   1.000  C
  C504     1.0000 0.68047  0.04723  0.19743  Biso   1.000  C
  C505     1.0000 0.95277  0.63323  0.19743  Biso   1.000  C
  C506     1.0000 0.65287  0.03343  0.96923  Biso   1.000  C
  C507     1.0000 0.03343  0.65287  0.53077  Biso   1.000  C
  C508     1.0000 0.31953  0.36677  0.30257  Biso   1.000  C
  C509     1.0000 0.71390  0.01380  0.63590  Biso   1.000  C
  C510     1.0000 0.29990  0.28610  0.63590  Biso   1.000  C
  C511     1.0000 0.34713  0.38057  0.53077  Biso   1.000  C
  C512     1.0000 0.61943  0.96657  0.53077  Biso   1.000  C
  C513     1.0000 0.04723  0.68047  0.30257  Biso   1.000  C
  C514     1.0000 0.63323  0.95277  0.30257  Biso   1.000  C
  C515     1.0000 0.38057  0.34713  0.96923  Biso   1.000  C
  C516     1.0000 0.96657  0.61943  0.96923  Biso   1.000  C
  H265     1.0000 0.29330  0.00380  0.15920  Biso   1.000  H
  H266     1.0000 0.99620  0.28950  0.15920  Biso   1.000  H
  H267     1.0000 0.71050  0.70670  0.15920  Biso   1.000  H
  H268     1.0000 0.00380  0.29330  0.34080  Biso   1.000  H
  H269     1.0000 0.95997  0.33713  0.49253  Biso   1.000  H
  H270     1.0000 0.66287  0.62283  0.49253  Biso   1.000  H
  H271     1.0000 0.37717  0.04003  0.49253  Biso   1.000  H
  H272     1.0000 0.67047  0.62663  0.67413  Biso   1.000  H
  H273     1.0000 0.62663  0.67047  0.82587  Biso   1.000  H
  H274     1.0000 0.33713  0.95997  0.00747  Biso   1.000  H
  H275     1.0000 0.28950  0.99620  0.34080  Biso   1.000  H
  H276     1.0000 0.70670  0.71050  0.34080  Biso   1.000  H
  H277     1.0000 0.32953  0.95617  0.82587  Biso   1.000  H
  H278     1.0000 0.04383  0.37337  0.82587  Biso   1.000  H
  H279     1.0000 0.62283  0.66287  0.00747  Biso   1.000  H
  H280     1.0000 0.04003  0.37717  0.00747  Biso   1.000  H
  H281     1.0000 0.95617  0.32953  0.67413  Biso   1.000  H
  H282     1.0000 0.37337  0.04383  0.67413  Biso   1.000  H
  H283     1.0000 0.70670  0.99620  0.84080  Biso   1.000  H
  H284     1.0000 0.00380  0.71050  0.84080  Biso   1.000  H
  H285     1.0000 0.28950  0.29330  0.84080  Biso   1.000  H
  H286     1.0000 0.99620  0.70670  0.65920  Biso   1.000  H
  H287     1.0000 0.37337  0.32953  0.17413  Biso   1.000  H
  H288     1.0000 0.67047  0.04383  0.17413  Biso   1.000  H
  H289     1.0000 0.95617  0.62663  0.17413  Biso   1.000  H
  H290     1.0000 0.66287  0.04003  0.99253  Biso   1.000  H
  H291     1.0000 0.04003  0.66287  0.50747  Biso   1.000  H
  H292     1.0000 0.32953  0.37337  0.32587  Biso   1.000  H
  H293     1.0000 0.71050  0.00380  0.65920  Biso   1.000  H
  H294     1.0000 0.29330  0.28950  0.65920  Biso   1.000  H
  H295     1.0000 0.33713  0.37717  0.50747  Biso   1.000  H
  H296     1.0000 0.62283  0.95997  0.50747  Biso   1.000  H
  H297     1.0000 0.04383  0.67047  0.32587  Biso   1.000  H
  H298     1.0000 0.62663  0.95617  0.32587  Biso   1.000  H
  H299     1.0000 0.37717  0.33713  0.99253  Biso   1.000  H
  H300     1.0000 0.95997  0.62283  0.99253  Biso   1.000  H
  H301     1.0000 0.27690  0.96960  0.12450  Biso   1.000  H
  H302     1.0000 0.03040  0.30730  0.12450  Biso   1.000  H
  H303     1.0000 0.69270  0.72310  0.12450  Biso   1.000  H
  H304     1.0000 0.96960  0.27690  0.37550  Biso   1.000  H
  H305     1.0000 0.94357  0.30293  0.45783  Biso   1.000  H
  H306     1.0000 0.69707  0.64063  0.45783  Biso   1.000  H
  H307     1.0000 0.35937  0.05643  0.45783  Biso   1.000  H
  H308     1.0000 0.63627  0.61023  0.70883  Biso   1.000  H
  H309     1.0000 0.61023  0.63627  0.79117  Biso   1.000  H
  H310     1.0000 0.30293  0.94357  0.04217  Biso   1.000  H
  H311     1.0000 0.30730  0.03040  0.37550  Biso   1.000  H
  H312     1.0000 0.72310  0.69270  0.37550  Biso   1.000  H
  H313     1.0000 0.36373  0.97397  0.79117  Biso   1.000  H
  H314     1.0000 0.02603  0.38977  0.79117  Biso   1.000  H
  H315     1.0000 0.64063  0.69707  0.04217  Biso   1.000  H
  H316     1.0000 0.05643  0.35937  0.04217  Biso   1.000  H
  H317     1.0000 0.97397  0.36373  0.70883  Biso   1.000  H
  H318     1.0000 0.38977  0.02603  0.70883  Biso   1.000  H
  H319     1.0000 0.72310  0.03040  0.87550  Biso   1.000  H
  H320     1.0000 0.96960  0.69270  0.87550  Biso   1.000  H
  H321     1.0000 0.30730  0.27690  0.87550  Biso   1.000  H
  H322     1.0000 0.03040  0.72310  0.62450  Biso   1.000  H
  H323     1.0000 0.38977  0.36373  0.20883  Biso   1.000  H
  H324     1.0000 0.63627  0.02603  0.20883  Biso   1.000  H
  H325     1.0000 0.97397  0.61023  0.20883  Biso   1.000  H
  H326     1.0000 0.69707  0.05643  0.95783  Biso   1.000  H
  H327     1.0000 0.05643  0.69707  0.54217  Biso   1.000  H
  H328     1.0000 0.36373  0.38977  0.29117  Biso   1.000  H
  H329     1.0000 0.69270  0.96960  0.62450  Biso   1.000  H
  H330     1.0000 0.27690  0.30730  0.62450  Biso   1.000  H
  H331     1.0000 0.30293  0.35937  0.54217  Biso   1.000  H
  H332     1.0000 0.64063  0.94357  0.54217  Biso   1.000  H
  H333     1.0000 0.02603  0.63627  0.29117  Biso   1.000  H
  H334     1.0000 0.61023  0.97397  0.29117  Biso   1.000  H
  H335     1.0000 0.35937  0.30293  0.95783  Biso   1.000  H
  H336     1.0000 0.94357  0.64063  0.95783  Biso   1.000  H
  C517     1.0000 0.26610  0.05130  0.12740  Biso   1.000  C
  C518     1.0000 0.94870  0.21480  0.12740  Biso   1.000  C
  C519     1.0000 0.78520  0.73390  0.12740  Biso   1.000  C
  C520     1.0000 0.05130  0.26610  0.37260  Biso   1.000  C
  C521     1.0000 0.93277  0.38463  0.46073  Biso   1.000  C
  C522     1.0000 0.61537  0.54813  0.46073  Biso   1.000  C
  C523     1.0000 0.45187  0.06723  0.46073  Biso   1.000  C
  C524     1.0000 0.71797  0.59943  0.70593  Biso   1.000  C
  C525     1.0000 0.59943  0.71797  0.79407  Biso   1.000  C
  C526     1.0000 0.38463  0.93277  0.03927  Biso   1.000  C
  C527     1.0000 0.21480  0.94870  0.37260  Biso   1.000  C
  C528     1.0000 0.73390  0.78520  0.37260  Biso   1.000  C
  C529     1.0000 0.28203  0.88147  0.79407  Biso   1.000  C
  C530     1.0000 0.11853  0.40057  0.79407  Biso   1.000  C
  C531     1.0000 0.54813  0.61537  0.03927  Biso   1.000  C
  C532     1.0000 0.06723  0.45187  0.03927  Biso   1.000  C
  C533     1.0000 0.88147  0.28203  0.70593  Biso   1.000  C
  C534     1.0000 0.40057  0.11853  0.70593  Biso   1.000  C
  C535     1.0000 0.73390  0.94870  0.87260  Biso   1.000  C
  C536     1.0000 0.05130  0.78520  0.87260  Biso   1.000  C
  C537     1.0000 0.21480  0.26610  0.87260  Biso   1.000  C
  C538     1.0000 0.94870  0.73390  0.62740  Biso   1.000  C
  C539     1.0000 0.40057  0.28203  0.20593  Biso   1.000  C
  C540     1.0000 0.71797  0.11853  0.20593  Biso   1.000  C
  C541     1.0000 0.88147  0.59943  0.20593  Biso   1.000  C
  C542     1.0000 0.61537  0.06723  0.96073  Biso   1.000  C
  C543     1.0000 0.06723  0.61537  0.53927  Biso   1.000  C
  C544     1.0000 0.28203  0.40057  0.29407  Biso   1.000  C
  C545     1.0000 0.78520  0.05130  0.62740  Biso   1.000  C
  C546     1.0000 0.26610  0.21480  0.62740  Biso   1.000  C
  C547     1.0000 0.38463  0.45187  0.53927  Biso   1.000  C
  C548     1.0000 0.54813  0.93277  0.53927  Biso   1.000  C
  C549     1.0000 0.11853  0.71797  0.29407  Biso   1.000  C
  C550     1.0000 0.59943  0.88147  0.29407  Biso   1.000  C
  C551     1.0000 0.45187  0.38463  0.96073  Biso   1.000  C
  C552     1.0000 0.93277  0.54813  0.96073  Biso   1.000  C
  H337     1.0000 0.21780  0.02450  0.13310  Biso   1.000  H
  H338     1.0000 0.97550  0.19330  0.13310  Biso   1.000  H
  H339     1.0000 0.80670  0.78220  0.13310  Biso   1.000  H
  H340     1.0000 0.02450  0.21780  0.36690  Biso   1.000  H
  H341     1.0000 0.88447  0.35783  0.46643  Biso   1.000  H
  H342     1.0000 0.64217  0.52663  0.46643  Biso   1.000  H
  H343     1.0000 0.47337  0.11553  0.46643  Biso   1.000  H
  H344     1.0000 0.69117  0.55113  0.70023  Biso   1.000  H
  H345     1.0000 0.55113  0.69117  0.79977  Biso   1.000  H
  H346     1.0000 0.35783  0.88447  0.03357  Biso   1.000  H
  H347     1.0000 0.19330  0.97550  0.36690  Biso   1.000  H
  H348     1.0000 0.78220  0.80670  0.36690  Biso   1.000  H
  H349     1.0000 0.30883  0.85997  0.79977  Biso   1.000  H
  H350     1.0000 0.14003  0.44887  0.79977  Biso   1.000  H
  H351     1.0000 0.52663  0.64217  0.03357  Biso   1.000  H
  H352     1.0000 0.11553  0.47337  0.03357  Biso   1.000  H
  H353     1.0000 0.85997  0.30883  0.70023  Biso   1.000  H
  H354     1.0000 0.44887  0.14003  0.70023  Biso   1.000  H
  H355     1.0000 0.78220  0.97550  0.86690  Biso   1.000  H
  H356     1.0000 0.02450  0.80670  0.86690  Biso   1.000  H
  H357     1.0000 0.19330  0.21780  0.86690  Biso   1.000  H
  H358     1.0000 0.97550  0.78220  0.63310  Biso   1.000  H
  H359     1.0000 0.44887  0.30883  0.20023  Biso   1.000  H
  H360     1.0000 0.69117  0.14003  0.20023  Biso   1.000  H
  H361     1.0000 0.85997  0.55113  0.20023  Biso   1.000  H
  H362     1.0000 0.64217  0.11553  0.96643  Biso   1.000  H
  H363     1.0000 0.11553  0.64217  0.53357  Biso   1.000  H
  H364     1.0000 0.30883  0.44887  0.29977  Biso   1.000  H
  H365     1.0000 0.80670  0.02450  0.63310  Biso   1.000  H
  H366     1.0000 0.21780  0.19330  0.63310  Biso   1.000  H
  H367     1.0000 0.35783  0.47337  0.53357  Biso   1.000  H
  H368     1.0000 0.52663  0.88447  0.53357  Biso   1.000  H
  H369     1.0000 0.14003  0.69117  0.29977  Biso   1.000  H
  H370     1.0000 0.55113  0.85997  0.29977  Biso   1.000  H
  H371     1.0000 0.47337  0.35783  0.96643  Biso   1.000  H
  H372     1.0000 0.88447  0.52663  0.96643  Biso   1.000  H
  H373     1.0000 0.27040  0.06010  0.10420  Biso   1.000  H
  H374     1.0000 0.93990  0.21030  0.10420  Biso   1.000  H
  H375     1.0000 0.78970  0.72960  0.10420  Biso   1.000  H
  H376     1.0000 0.06010  0.27040  0.39580  Biso   1.000  H
  H377     1.0000 0.93707  0.39343  0.43753  Biso   1.000  H
  H378     1.0000 0.60657  0.54363  0.43753  Biso   1.000  H
  H379     1.0000 0.45637  0.06293  0.43753  Biso   1.000  H
  H380     1.0000 0.72677  0.60373  0.72913  Biso   1.000  H
  H381     1.0000 0.60373  0.72677  0.77087  Biso   1.000  H
  H382     1.0000 0.39343  0.93707  0.06247  Biso   1.000  H
  H383     1.0000 0.21030  0.93990  0.39580  Biso   1.000  H
  H384     1.0000 0.72960  0.78970  0.39580  Biso   1.000  H
  H385     1.0000 0.27323  0.87697  0.77087  Biso   1.000  H
  H386     1.0000 0.12303  0.39627  0.77087  Biso   1.000  H
  H387     1.0000 0.54363  0.60657  0.06247  Biso   1.000  H
  H388     1.0000 0.06293  0.45637  0.06247  Biso   1.000  H
  H389     1.0000 0.87697  0.27323  0.72913  Biso   1.000  H
  H390     1.0000 0.39627  0.12303  0.72913  Biso   1.000  H
  H391     1.0000 0.72960  0.93990  0.89580  Biso   1.000  H
  H392     1.0000 0.06010  0.78970  0.89580  Biso   1.000  H
  H393     1.0000 0.21030  0.27040  0.89580  Biso   1.000  H
  H394     1.0000 0.93990  0.72960  0.60420  Biso   1.000  H
  H395     1.0000 0.39627  0.27323  0.22913  Biso   1.000  H
  H396     1.0000 0.72677  0.12303  0.22913  Biso   1.000  H
  H397     1.0000 0.87697  0.60373  0.22913  Biso   1.000  H
  H398     1.0000 0.60657  0.06293  0.93753  Biso   1.000  H
  H399     1.0000 0.06293  0.60657  0.56247  Biso   1.000  H
  H400     1.0000 0.27323  0.39627  0.27087  Biso   1.000  H
  H401     1.0000 0.78970  0.06010  0.60420  Biso   1.000  H
  H402     1.0000 0.27040  0.21030  0.60420  Biso   1.000  H
  H403     1.0000 0.39343  0.45637  0.56247  Biso   1.000  H
  H404     1.0000 0.54363  0.93707  0.56247  Biso   1.000  H
  H405     1.0000 0.12303  0.72677  0.27087  Biso   1.000  H
  H406     1.0000 0.60373  0.87697  0.27087  Biso   1.000  H
  H407     1.0000 0.45637  0.39343  0.93753  Biso   1.000  H
  H408     1.0000 0.93707  0.54363  0.93753  Biso   1.000  H
  H409     1.0000 0.28710  0.09460  0.13900  Biso   1.000  H
  H410     1.0000 0.90540  0.19250  0.13900  Biso   1.000  H
  H411     1.0000 0.80750  0.71290  0.13900  Biso   1.000  H
  H412     1.0000 0.09460  0.28710  0.36100  Biso   1.000  H
  H413     1.0000 0.95377  0.42793  0.47233  Biso   1.000  H
  H414     1.0000 0.57207  0.52583  0.47233  Biso   1.000  H
  H415     1.0000 0.47417  0.04623  0.47233  Biso   1.000  H
  H416     1.0000 0.76127  0.62043  0.69433  Biso   1.000  H
  H417     1.0000 0.62043  0.76127  0.80567  Biso   1.000  H
  H418     1.0000 0.42793  0.95377  0.02767  Biso   1.000  H
  H419     1.0000 0.19250  0.90540  0.36100  Biso   1.000  H
  H420     1.0000 0.71290  0.80750  0.36100  Biso   1.000  H
  H421     1.0000 0.23873  0.85917  0.80567  Biso   1.000  H
  H422     1.0000 0.14083  0.37957  0.80567  Biso   1.000  H
  H423     1.0000 0.52583  0.57207  0.02767  Biso   1.000  H
  H424     1.0000 0.04623  0.47417  0.02767  Biso   1.000  H
  H425     1.0000 0.85917  0.23873  0.69433  Biso   1.000  H
  H426     1.0000 0.37957  0.14083  0.69433  Biso   1.000  H
  H427     1.0000 0.71290  0.90540  0.86100  Biso   1.000  H
  H428     1.0000 0.09460  0.80750  0.86100  Biso   1.000  H
  H429     1.0000 0.19250  0.28710  0.86100  Biso   1.000  H
  H430     1.0000 0.90540  0.71290  0.63900  Biso   1.000  H
  H431     1.0000 0.37957  0.23873  0.19433  Biso   1.000  H
  H432     1.0000 0.76127  0.14083  0.19433  Biso   1.000  H
  H433     1.0000 0.85917  0.62043  0.19433  Biso   1.000  H
  H434     1.0000 0.57207  0.04623  0.97233  Biso   1.000  H
  H435     1.0000 0.04623  0.57207  0.52767  Biso   1.000  H
  H436     1.0000 0.23873  0.37957  0.30567  Biso   1.000  H
  H437     1.0000 0.80750  0.09460  0.63900  Biso   1.000  H
  H438     1.0000 0.28710  0.19250  0.63900  Biso   1.000  H
  H439     1.0000 0.42793  0.47417  0.52767  Biso   1.000  H
  H440     1.0000 0.52583  0.95377  0.52767  Biso   1.000  H
  H441     1.0000 0.14083  0.76127  0.30567  Biso   1.000  H
  H442     1.0000 0.62043  0.85917  0.30567  Biso   1.000  H
  H443     1.0000 0.47417  0.42793  0.97233  Biso   1.000  H
  H444     1.0000 0.95377  0.52583  0.97233  Biso   1.000  H
  O217     1.0000 0.43620  0.00000  0.25000  Biso   1.000  O
  O218     1.0000 0.00000  0.43620  0.25000  Biso   1.000  O
  O219     1.0000 0.56380  0.56380  0.25000  Biso   1.000  O
  O220     1.0000 0.10287  0.33333  0.58333  Biso   1.000  O
  O221     1.0000 0.66667  0.76953  0.58333  Biso   1.000  O
  O222     1.0000 0.23047  0.89713  0.58333  Biso   1.000  O
  O223     1.0000 0.76953  0.66667  0.91667  Biso   1.000  O
  O224     1.0000 0.33333  0.10287  0.91667  Biso   1.000  O
  O225     1.0000 0.89713  0.23047  0.91667  Biso   1.000  O
  O226     1.0000 0.56380  0.00000  0.75000  Biso   1.000  O
  O227     1.0000 0.00000  0.56380  0.75000  Biso   1.000  O
  O228     1.0000 0.43620  0.43620  0.75000  Biso   1.000  O
  O229     1.0000 0.23047  0.33333  0.08333  Biso   1.000  O
  O230     1.0000 0.66667  0.89713  0.08333  Biso   1.000  O
  O231     1.0000 0.10287  0.76953  0.08333  Biso   1.000  O
  O232     1.0000 0.89713  0.66667  0.41667  Biso   1.000  O
  O233     1.0000 0.33333  0.23047  0.41667  Biso   1.000  O
  O234     1.0000 0.76953  0.10287  0.41667  Biso   1.000  O
  C553     1.0000 0.50300  0.00000  0.25000  Biso   1.000  C
  C554     1.0000 1.00000  0.50300  0.25000  Biso   1.000  C
  C555     1.0000 0.49700  0.49700  0.25000  Biso   1.000  C
  C556     1.0000 0.16967  0.33333  0.58333  Biso   1.000  C
  C557     1.0000 0.66667  0.83633  0.58333  Biso   1.000  C
  C558     1.0000 0.16367  0.83033  0.58333  Biso   1.000  C
  C559     1.0000 0.83633  0.66667  0.91667  Biso   1.000  C
  C560     1.0000 0.33333  0.16967  0.91667  Biso   1.000  C
  C561     1.0000 0.83033  0.16367  0.91667  Biso   1.000  C
  C562     1.0000 0.49700  0.00000  0.75000  Biso   1.000  C
  C563     1.0000 0.00000  0.49700  0.75000  Biso   1.000  C
  C564     1.0000 0.50300  0.50300  0.75000  Biso   1.000  C
  C565     1.0000 0.16367  0.33333  0.08333  Biso   1.000  C
  C566     1.0000 0.66667  0.83033  0.08333  Biso   1.000  C
  C567     1.0000 0.16967  0.83633  0.08333  Biso   1.000  C
  C568     1.0000 0.83033  0.66667  0.41667  Biso   1.000  C
  C569     1.0000 0.33333  0.16367  0.41667  Biso   1.000  C
  C570     1.0000 0.83633  0.16967  0.41667  Biso   1.000  C
  C571     1.0000 0.55760  0.06240  0.26120  Biso   1.000  C
  C572     1.0000 0.93760  0.49520  0.26120  Biso   1.000  C
  C573     1.0000 0.50480  0.44240  0.26120  Biso   1.000  C
  C574     1.0000 0.06240  0.55760  0.23880  Biso   1.000  C
  C575     1.0000 0.22427  0.39573  0.59453  Biso   1.000  C
  C576     1.0000 0.60427  0.82853  0.59453  Biso   1.000  C
  C577     1.0000 0.17147  0.77573  0.59453  Biso   1.000  C
  C578     1.0000 0.72907  0.89093  0.57213  Biso   1.000  C
  C579     1.0000 0.89093  0.72907  0.92787  Biso   1.000  C
  C580     1.0000 0.39573  0.22427  0.90547  Biso   1.000  C
  C581     1.0000 0.49520  0.93760  0.23880  Biso   1.000  C
  C582     1.0000 0.44240  0.50480  0.23880  Biso   1.000  C
  C583     1.0000 0.27093  0.16187  0.92787  Biso   1.000  C
  C584     1.0000 0.83813  0.10907  0.92787  Biso   1.000  C
  C585     1.0000 0.82853  0.60427  0.90547  Biso   1.000  C
  C586     1.0000 0.77573  0.17147  0.90547  Biso   1.000  C
  C587     1.0000 0.16187  0.27093  0.57213  Biso   1.000  C
  C588     1.0000 0.10907  0.83813  0.57213  Biso   1.000  C
  C589     1.0000 0.44240  0.93760  0.73880  Biso   1.000  C
  C590     1.0000 0.06240  0.50480  0.73880  Biso   1.000  C
  C591     1.0000 0.49520  0.55760  0.73880  Biso   1.000  C
  C592     1.0000 0.93760  0.44240  0.76120  Biso   1.000  C
  C593     1.0000 0.10907  0.27093  0.07213  Biso   1.000  C
  C594     1.0000 0.72907  0.83813  0.07213  Biso   1.000  C
  C595     1.0000 0.16187  0.89093  0.07213  Biso   1.000  C
  C596     1.0000 0.60427  0.77573  0.09453  Biso   1.000  C
  C597     1.0000 0.77573  0.60427  0.40547  Biso   1.000  C
  C598     1.0000 0.27093  0.10907  0.42787  Biso   1.000  C
  C599     1.0000 0.50480  0.06240  0.76120  Biso   1.000  C
  C600     1.0000 0.55760  0.49520  0.76120  Biso   1.000  C
  C601     1.0000 0.39573  0.17147  0.40547  Biso   1.000  C
  C602     1.0000 0.82853  0.22427  0.40547  Biso   1.000  C
  C603     1.0000 0.83813  0.72907  0.42787  Biso   1.000  C
  C604     1.0000 0.89093  0.16187  0.42787  Biso   1.000  C
  C605     1.0000 0.17147  0.39573  0.09453  Biso   1.000  C
  C606     1.0000 0.22427  0.82853  0.09453  Biso   1.000  C
  O235     1.0000 0.66670  0.33330  0.10180  Biso   1.000  O
  O236     1.0000 0.33330  0.66670  0.39820  Biso   1.000  O
  O237     1.0000 0.33337  0.66663  0.43513  Biso   1.000  O
  O238     1.0000 0.99997  0.00003  0.73153  Biso   1.000  O
  O239     1.0000 0.00003  0.99997  0.76847  Biso   1.000  O
  O240     1.0000 0.66663  0.33337  0.06487  Biso   1.000  O
  O241     1.0000 0.33330  0.66670  0.89820  Biso   1.000  O
  O242     1.0000 0.66670  0.33330  0.60180  Biso   1.000  O
  O243     1.0000 0.99997  0.00003  0.23153  Biso   1.000  O
  O244     1.0000 0.33337  0.66663  0.93513  Biso   1.000  O
  O245     1.0000 0.66663  0.33337  0.56487  Biso   1.000  O
  O246     1.0000 0.00003  0.99997  0.26847  Biso   1.000  O
