data_image0
_cell_length_a       24.5977
_cell_length_b       24.5977
_cell_length_c       25.8
_cell_angle_alpha    90
_cell_angle_beta     90
_cell_angle_gamma    90

_symmetry_space_group_name_H-M    "P 1"
_symmetry_int_tables_number       1

loop_
  _symmetry_equiv_pos_as_xyz
  'x, y, z'

loop_
  _atom_site_label
  _atom_site_occupancy
  _atom_site_fract_x
  _atom_site_fract_y
  _atom_site_fract_z
  _atom_site_thermal_displace_type
  _atom_site_B_iso_or_equiv
  _atom_site_type_symbol
  Cu1      1.0000 0.35262  0.39100  0.40964  Biso   1.000  Cu
  Cu2      1.0000 0.85900  0.60262  0.65964  Biso   1.000  Cu
  Cu3      1.0000 0.64100  0.89738  0.65964  Biso   1.000  Cu
  Cu4      1.0000 0.64100  0.60262  0.84036  Biso   1.000  Cu
  Cu5      1.0000 0.85262  0.89100  0.90964  Biso   1.000  Cu
  Cu6      1.0000 0.85262  0.39100  0.09036  Biso   1.000  Cu
  Cu7      1.0000 0.85262  0.60900  0.90964  Biso   1.000  Cu
  Cu8      1.0000 0.64738  0.39100  0.40964  Biso   1.000  Cu
  Cu9      1.0000 0.64100  0.60262  0.65964  Biso   1.000  Cu
  Cu10     1.0000 0.35262  0.89100  0.59036  Biso   1.000  Cu
  Cu11     1.0000 0.35262  0.10900  0.40964  Biso   1.000  Cu
  Cu12     1.0000 0.14738  0.89100  0.90964  Biso   1.000  Cu
  Cu13     1.0000 0.64738  0.60900  0.59036  Biso   1.000  Cu
  Cu14     1.0000 0.64100  0.89738  0.84036  Biso   1.000  Cu
  Cu15     1.0000 0.85900  0.60262  0.84036  Biso   1.000  Cu
  Cu16     1.0000 0.85900  0.89738  0.65964  Biso   1.000  Cu
  Cu17     1.0000 0.14738  0.10900  0.09036  Biso   1.000  Cu
  Cu18     1.0000 0.14738  0.60900  0.90964  Biso   1.000  Cu
  Cu19     1.0000 0.14738  0.39100  0.09036  Biso   1.000  Cu
  Cu20     1.0000 0.35262  0.60900  0.59036  Biso   1.000  Cu
  Cu21     1.0000 0.85900  0.89738  0.84036  Biso   1.000  Cu
  Cu22     1.0000 0.64738  0.10900  0.40964  Biso   1.000  Cu
  Cu23     1.0000 0.64738  0.89100  0.59036  Biso   1.000  Cu
  Cu24     1.0000 0.85262  0.10900  0.09036  Biso   1.000  Cu
  C1       1.0000 0.35920  0.42210  0.29800  Biso   1.000  C
  C2       1.0000 0.82790  0.60920  0.54800  Biso   1.000  C
  C3       1.0000 0.67210  0.89080  0.54800  Biso   1.000  C
  C4       1.0000 0.67210  0.60920  0.95200  Biso   1.000  C
  C5       1.0000 0.85920  0.92210  0.79800  Biso   1.000  C
  C6       1.0000 0.85920  0.42210  0.20200  Biso   1.000  C
  C7       1.0000 0.85920  0.57790  0.79800  Biso   1.000  C
  C8       1.0000 0.64080  0.42210  0.29800  Biso   1.000  C
  C9       1.0000 0.67210  0.60920  0.54800  Biso   1.000  C
  C10      1.0000 0.35920  0.92210  0.70200  Biso   1.000  C
  C11      1.0000 0.35920  0.07790  0.29800  Biso   1.000  C
  C12      1.0000 0.14080  0.92210  0.79800  Biso   1.000  C
  C13      1.0000 0.64080  0.57790  0.70200  Biso   1.000  C
  C14      1.0000 0.67210  0.89080  0.95200  Biso   1.000  C
  C15      1.0000 0.82790  0.60920  0.95200  Biso   1.000  C
  C16      1.0000 0.82790  0.89080  0.54800  Biso   1.000  C
  C17      1.0000 0.14080  0.07790  0.20200  Biso   1.000  C
  C18      1.0000 0.14080  0.57790  0.79800  Biso   1.000  C
  C19      1.0000 0.14080  0.42210  0.20200  Biso   1.000  C
  C20      1.0000 0.35920  0.57790  0.70200  Biso   1.000  C
  C21      1.0000 0.82790  0.89080  0.95200  Biso   1.000  C
  C22      1.0000 0.64080  0.07790  0.29800  Biso   1.000  C
  C23      1.0000 0.64080  0.92210  0.70200  Biso   1.000  C
  C24      1.0000 0.85920  0.07790  0.20200  Biso   1.000  C
  H1       1.0000 0.32150  0.42140  0.30010  Biso   1.000  H
  H2       1.0000 0.82860  0.57150  0.55010  Biso   1.000  H
  H3       1.0000 0.67140  0.92850  0.55010  Biso   1.000  H
  H4       1.0000 0.67140  0.57150  0.94990  Biso   1.000  H
  H5       1.0000 0.82150  0.92140  0.80010  Biso   1.000  H
  H6       1.0000 0.82150  0.42140  0.19990  Biso   1.000  H
  H7       1.0000 0.82150  0.57860  0.80010  Biso   1.000  H
  H8       1.0000 0.67850  0.42140  0.30010  Biso   1.000  H
  H9       1.0000 0.67140  0.57150  0.55010  Biso   1.000  H
  H10      1.0000 0.32150  0.92140  0.69990  Biso   1.000  H
  H11      1.0000 0.32150  0.07860  0.30010  Biso   1.000  H
  H12      1.0000 0.17850  0.92140  0.80010  Biso   1.000  H
  H13      1.0000 0.67850  0.57860  0.69990  Biso   1.000  H
  H14      1.0000 0.67140  0.92850  0.94990  Biso   1.000  H
  H15      1.0000 0.82860  0.57150  0.94990  Biso   1.000  H
  H16      1.0000 0.82860  0.92850  0.55010  Biso   1.000  H
  H17      1.0000 0.17850  0.07860  0.19990  Biso   1.000  H
  H18      1.0000 0.17850  0.57860  0.80010  Biso   1.000  H
  H19      1.0000 0.17850  0.42140  0.19990  Biso   1.000  H
  H20      1.0000 0.32150  0.57860  0.69990  Biso   1.000  H
  H21      1.0000 0.82860  0.92850  0.94990  Biso   1.000  H
  H22      1.0000 0.67850  0.07860  0.30010  Biso   1.000  H
  H23      1.0000 0.67850  0.92140  0.69990  Biso   1.000  H
  H24      1.0000 0.82150  0.07860  0.19990  Biso   1.000  H
  C25      1.0000 0.38140  0.43420  0.25170  Biso   1.000  C
  C26      1.0000 0.81580  0.63140  0.50170  Biso   1.000  C
  C27      1.0000 0.68420  0.86860  0.50170  Biso   1.000  C
  C28      1.0000 0.68420  0.63140  0.99830  Biso   1.000  C
  C29      1.0000 0.88140  0.93420  0.75170  Biso   1.000  C
  C30      1.0000 0.88140  0.43420  0.24830  Biso   1.000  C
  C31      1.0000 0.88140  0.56580  0.75170  Biso   1.000  C
  C32      1.0000 0.61860  0.43420  0.25170  Biso   1.000  C
  C33      1.0000 0.68420  0.63140  0.50170  Biso   1.000  C
  C34      1.0000 0.38140  0.93420  0.74830  Biso   1.000  C
  C35      1.0000 0.38140  0.06580  0.25170  Biso   1.000  C
  C36      1.0000 0.11860  0.93420  0.75170  Biso   1.000  C
  C37      1.0000 0.61860  0.56580  0.74830  Biso   1.000  C
  C38      1.0000 0.68420  0.86860  0.99830  Biso   1.000  C
  C39      1.0000 0.81580  0.63140  0.99830  Biso   1.000  C
  C40      1.0000 0.81580  0.86860  0.50170  Biso   1.000  C
  C41      1.0000 0.11860  0.06580  0.24830  Biso   1.000  C
  C42      1.0000 0.11860  0.56580  0.75170  Biso   1.000  C
  C43      1.0000 0.11860  0.43420  0.24830  Biso   1.000  C
  C44      1.0000 0.38140  0.56580  0.74830  Biso   1.000  C
  C45      1.0000 0.81580  0.86860  0.99830  Biso   1.000  C
  C46      1.0000 0.61860  0.06580  0.25170  Biso   1.000  C
  C47      1.0000 0.61860  0.93420  0.74830  Biso   1.000  C
  C48      1.0000 0.88140  0.06580  0.24830  Biso   1.000  C
  H25      1.0000 0.35950  0.44110  0.22300  Biso   1.000  H
  H26      1.0000 0.80890  0.60950  0.47300  Biso   1.000  H
  H27      1.0000 0.69110  0.89050  0.47300  Biso   1.000  H
  H28      1.0000 0.69110  0.60950  0.02700  Biso   1.000  H
  H29      1.0000 0.85950  0.94110  0.72300  Biso   1.000  H
  H30      1.0000 0.85950  0.44110  0.27700  Biso   1.000  H
  H31      1.0000 0.85950  0.55890  0.72300  Biso   1.000  H
  H32      1.0000 0.64050  0.44110  0.22300  Biso   1.000  H
  H33      1.0000 0.69110  0.60950  0.47300  Biso   1.000  H
  H34      1.0000 0.35950  0.94110  0.77700  Biso   1.000  H
  H35      1.0000 0.35950  0.05890  0.22300  Biso   1.000  H
  H36      1.0000 0.14050  0.94110  0.72300  Biso   1.000  H
  H37      1.0000 0.64050  0.55890  0.77700  Biso   1.000  H
  H38      1.0000 0.69110  0.89050  0.02700  Biso   1.000  H
  H39      1.0000 0.80890  0.60950  0.02700  Biso   1.000  H
  H40      1.0000 0.80890  0.89050  0.47300  Biso   1.000  H
  H41      1.0000 0.14050  0.05890  0.27700  Biso   1.000  H
  H42      1.0000 0.14050  0.55890  0.72300  Biso   1.000  H
  H43      1.0000 0.14050  0.44110  0.27700  Biso   1.000  H
  H44      1.0000 0.35950  0.55890  0.77700  Biso   1.000  H
  H45      1.0000 0.80890  0.89050  0.02700  Biso   1.000  H
  H46      1.0000 0.64050  0.05890  0.22300  Biso   1.000  H
  H47      1.0000 0.64050  0.94110  0.77700  Biso   1.000  H
  H48      1.0000 0.85950  0.05890  0.27700  Biso   1.000  H
  C49      1.0000 0.43760  0.43610  0.24790  Biso   1.000  C
  C50      1.0000 0.81390  0.68760  0.49790  Biso   1.000  C
  C51      1.0000 0.68610  0.81240  0.49790  Biso   1.000  C
  C52      1.0000 0.68610  0.68760  0.00210  Biso   1.000  C
  C53      1.0000 0.93760  0.93610  0.74790  Biso   1.000  C
  C54      1.0000 0.93760  0.43610  0.25210  Biso   1.000  C
  C55      1.0000 0.93760  0.56390  0.74790  Biso   1.000  C
  C56      1.0000 0.56240  0.43610  0.24790  Biso   1.000  C
  C57      1.0000 0.68610  0.68760  0.49790  Biso   1.000  C
  C58      1.0000 0.43760  0.93610  0.75210  Biso   1.000  C
  C59      1.0000 0.43760  0.06390  0.24790  Biso   1.000  C
  C60      1.0000 0.06240  0.93610  0.74790  Biso   1.000  C
  C61      1.0000 0.56240  0.56390  0.75210  Biso   1.000  C
  C62      1.0000 0.68610  0.81240  0.00210  Biso   1.000  C
  C63      1.0000 0.81390  0.68760  0.00210  Biso   1.000  C
  C64      1.0000 0.81390  0.81240  0.49790  Biso   1.000  C
  C65      1.0000 0.06240  0.06390  0.25210  Biso   1.000  C
  C66      1.0000 0.06240  0.56390  0.74790  Biso   1.000  C
  C67      1.0000 0.06240  0.43610  0.25210  Biso   1.000  C
  C68      1.0000 0.43760  0.56390  0.75210  Biso   1.000  C
  C69      1.0000 0.81390  0.81240  0.00210  Biso   1.000  C
  C70      1.0000 0.56240  0.06390  0.24790  Biso   1.000  C
  C71      1.0000 0.56240  0.93610  0.75210  Biso   1.000  C
  C72      1.0000 0.93760  0.06390  0.25210  Biso   1.000  C
  H49      1.0000 0.45360  0.44470  0.21630  Biso   1.000  H
  H50      1.0000 0.80530  0.70360  0.46630  Biso   1.000  H
  H51      1.0000 0.69470  0.79640  0.46630  Biso   1.000  H
  H52      1.0000 0.69470  0.70360  0.03370  Biso   1.000  H
  H53      1.0000 0.95360  0.94470  0.71630  Biso   1.000  H
  H54      1.0000 0.95360  0.44470  0.28370  Biso   1.000  H
  H55      1.0000 0.95360  0.55530  0.71630  Biso   1.000  H
  H56      1.0000 0.54640  0.44470  0.21630  Biso   1.000  H
  H57      1.0000 0.69470  0.70360  0.46630  Biso   1.000  H
  H58      1.0000 0.45360  0.94470  0.78370  Biso   1.000  H
  H59      1.0000 0.45360  0.05530  0.21630  Biso   1.000  H
  H60      1.0000 0.04640  0.94470  0.71630  Biso   1.000  H
  H61      1.0000 0.54640  0.55530  0.78370  Biso   1.000  H
  H62      1.0000 0.69470  0.79640  0.03370  Biso   1.000  H
  H63      1.0000 0.80530  0.70360  0.03370  Biso   1.000  H
  H64      1.0000 0.80530  0.79640  0.46630  Biso   1.000  H
  H65      1.0000 0.04640  0.05530  0.28370  Biso   1.000  H
  H66      1.0000 0.04640  0.55530  0.71630  Biso   1.000  H
  H67      1.0000 0.04640  0.44470  0.28370  Biso   1.000  H
  H68      1.0000 0.45360  0.55530  0.78370  Biso   1.000  H
  H69      1.0000 0.80530  0.79640  0.03370  Biso   1.000  H
  H70      1.0000 0.54640  0.05530  0.21630  Biso   1.000  H
  H71      1.0000 0.54640  0.94470  0.78370  Biso   1.000  H
  H72      1.0000 0.95360  0.05530  0.28370  Biso   1.000  H
  C73      1.0000 0.47150  0.42500  0.29210  Biso   1.000  C
  C74      1.0000 0.82500  0.72150  0.54210  Biso   1.000  C
  C75      1.0000 0.67500  0.77850  0.54210  Biso   1.000  C
  C76      1.0000 0.67500  0.72150  0.95790  Biso   1.000  C
  C77      1.0000 0.97150  0.92500  0.79210  Biso   1.000  C
  C78      1.0000 0.97150  0.42500  0.20790  Biso   1.000  C
  C79      1.0000 0.97150  0.57500  0.79210  Biso   1.000  C
  C80      1.0000 0.52850  0.42500  0.29210  Biso   1.000  C
  C81      1.0000 0.67500  0.72150  0.54210  Biso   1.000  C
  C82      1.0000 0.47150  0.92500  0.70790  Biso   1.000  C
  C83      1.0000 0.47150  0.07500  0.29210  Biso   1.000  C
  C84      1.0000 0.02850  0.92500  0.79210  Biso   1.000  C
  C85      1.0000 0.52850  0.57500  0.70790  Biso   1.000  C
  C86      1.0000 0.67500  0.77850  0.95790  Biso   1.000  C
  C87      1.0000 0.82500  0.72150  0.95790  Biso   1.000  C
  C88      1.0000 0.82500  0.77850  0.54210  Biso   1.000  C
  C89      1.0000 0.02850  0.07500  0.20790  Biso   1.000  C
  C90      1.0000 0.02850  0.57500  0.79210  Biso   1.000  C
  C91      1.0000 0.02850  0.42500  0.20790  Biso   1.000  C
  C92      1.0000 0.47150  0.57500  0.70790  Biso   1.000  C
  C93      1.0000 0.82500  0.77850  0.95790  Biso   1.000  C
  C94      1.0000 0.52850  0.07500  0.29210  Biso   1.000  C
  C95      1.0000 0.52850  0.92500  0.70790  Biso   1.000  C
  C96      1.0000 0.97150  0.07500  0.20790  Biso   1.000  C
  C97      1.0000 0.44240  0.41250  0.33880  Biso   1.000  C
  C98      1.0000 0.83750  0.69240  0.58880  Biso   1.000  C
  C99      1.0000 0.66250  0.80760  0.58880  Biso   1.000  C
  C100     1.0000 0.66250  0.69240  0.91120  Biso   1.000  C
  C101     1.0000 0.94240  0.91250  0.83880  Biso   1.000  C
  C102     1.0000 0.94240  0.41250  0.16120  Biso   1.000  C
  C103     1.0000 0.94240  0.58750  0.83880  Biso   1.000  C
  C104     1.0000 0.55760  0.41250  0.33880  Biso   1.000  C
  C105     1.0000 0.66250  0.69240  0.58880  Biso   1.000  C
  C106     1.0000 0.44240  0.91250  0.66120  Biso   1.000  C
  C107     1.0000 0.44240  0.08750  0.33880  Biso   1.000  C
  C108     1.0000 0.05760  0.91250  0.83880  Biso   1.000  C
  C109     1.0000 0.55760  0.58750  0.66120  Biso   1.000  C
  C110     1.0000 0.66250  0.80760  0.91120  Biso   1.000  C
  C111     1.0000 0.83750  0.69240  0.91120  Biso   1.000  C
  C112     1.0000 0.83750  0.80760  0.58880  Biso   1.000  C
  C113     1.0000 0.05760  0.08750  0.16120  Biso   1.000  C
  C114     1.0000 0.05760  0.58750  0.83880  Biso   1.000  C
  C115     1.0000 0.05760  0.41250  0.16120  Biso   1.000  C
  C116     1.0000 0.44240  0.58750  0.66120  Biso   1.000  C
  C117     1.0000 0.83750  0.80760  0.91120  Biso   1.000  C
  C118     1.0000 0.55760  0.08750  0.33880  Biso   1.000  C
  C119     1.0000 0.55760  0.91250  0.66120  Biso   1.000  C
  C120     1.0000 0.94240  0.08750  0.16120  Biso   1.000  C
  C121     1.0000 0.47160  0.40020  0.38450  Biso   1.000  C
  C122     1.0000 0.84980  0.72160  0.63450  Biso   1.000  C
  C123     1.0000 0.65020  0.77840  0.63450  Biso   1.000  C
  C124     1.0000 0.65020  0.72160  0.86550  Biso   1.000  C
  C125     1.0000 0.97160  0.90020  0.88450  Biso   1.000  C
  C126     1.0000 0.97160  0.40020  0.11550  Biso   1.000  C
  C127     1.0000 0.97160  0.59980  0.88450  Biso   1.000  C
  C128     1.0000 0.52840  0.40020  0.38450  Biso   1.000  C
  C129     1.0000 0.65020  0.72160  0.63450  Biso   1.000  C
  C130     1.0000 0.47160  0.90020  0.61550  Biso   1.000  C
  C131     1.0000 0.47160  0.09980  0.38450  Biso   1.000  C
  C132     1.0000 0.02840  0.90020  0.88450  Biso   1.000  C
  C133     1.0000 0.52840  0.59980  0.61550  Biso   1.000  C
  C134     1.0000 0.65020  0.77840  0.86550  Biso   1.000  C
  C135     1.0000 0.84980  0.72160  0.86550  Biso   1.000  C
  C136     1.0000 0.84980  0.77840  0.63450  Biso   1.000  C
  C137     1.0000 0.02840  0.09980  0.11550  Biso   1.000  C
  C138     1.0000 0.02840  0.59980  0.88450  Biso   1.000  C
  C139     1.0000 0.02840  0.40020  0.11550  Biso   1.000  C
  C140     1.0000 0.47160  0.59980  0.61550  Biso   1.000  C
  C141     1.0000 0.84980  0.77840  0.86550  Biso   1.000  C
  C142     1.0000 0.52840  0.09980  0.38450  Biso   1.000  C
  C143     1.0000 0.52840  0.90020  0.61550  Biso   1.000  C
  C144     1.0000 0.97160  0.09980  0.11550  Biso   1.000  C
  C145     1.0000 0.47240  0.37510  0.46930  Biso   1.000  C
  C146     1.0000 0.87490  0.72240  0.71930  Biso   1.000  C
  C147     1.0000 0.62510  0.77760  0.71930  Biso   1.000  C
  C148     1.0000 0.62510  0.72240  0.78070  Biso   1.000  C
  C149     1.0000 0.97240  0.87510  0.96930  Biso   1.000  C
  C150     1.0000 0.97240  0.37510  0.03070  Biso   1.000  C
  C151     1.0000 0.97240  0.62490  0.96930  Biso   1.000  C
  C152     1.0000 0.52760  0.37510  0.46930  Biso   1.000  C
  C153     1.0000 0.62510  0.72240  0.71930  Biso   1.000  C
  C154     1.0000 0.47240  0.87510  0.53070  Biso   1.000  C
  C155     1.0000 0.47240  0.12490  0.46930  Biso   1.000  C
  C156     1.0000 0.02760  0.87510  0.96930  Biso   1.000  C
  C157     1.0000 0.52760  0.62490  0.53070  Biso   1.000  C
  C158     1.0000 0.62510  0.77760  0.78070  Biso   1.000  C
  C159     1.0000 0.87490  0.72240  0.78070  Biso   1.000  C
  C160     1.0000 0.87490  0.77760  0.71930  Biso   1.000  C
  C161     1.0000 0.02760  0.12490  0.03070  Biso   1.000  C
  C162     1.0000 0.02760  0.62490  0.96930  Biso   1.000  C
  C163     1.0000 0.02760  0.37510  0.03070  Biso   1.000  C
  C164     1.0000 0.47240  0.62490  0.53070  Biso   1.000  C
  C165     1.0000 0.87490  0.77760  0.78070  Biso   1.000  C
  C166     1.0000 0.52760  0.12490  0.46930  Biso   1.000  C
  C167     1.0000 0.52760  0.87510  0.53070  Biso   1.000  C
  C168     1.0000 0.97240  0.12490  0.03070  Biso   1.000  C
  H73      1.0000 0.45430  0.36610  0.49980  Biso   1.000  H
  H74      1.0000 0.88390  0.70430  0.74980  Biso   1.000  H
  H75      1.0000 0.61610  0.79570  0.74980  Biso   1.000  H
  H76      1.0000 0.61610  0.70430  0.75020  Biso   1.000  H
  H77      1.0000 0.95430  0.86610  0.99980  Biso   1.000  H
  H78      1.0000 0.95430  0.36610  0.00020  Biso   1.000  H
  H79      1.0000 0.95430  0.63390  0.99980  Biso   1.000  H
  H80      1.0000 0.54570  0.36610  0.49980  Biso   1.000  H
  H81      1.0000 0.45430  0.86610  0.50020  Biso   1.000  H
  H82      1.0000 0.45430  0.13390  0.49980  Biso   1.000  H
  H83      1.0000 0.04570  0.86610  0.99980  Biso   1.000  H
  H84      1.0000 0.54570  0.63390  0.50020  Biso   1.000  H
  H85      1.0000 0.88390  0.79570  0.74980  Biso   1.000  H
  H86      1.0000 0.04570  0.13390  0.00020  Biso   1.000  H
  H87      1.0000 0.04570  0.63390  0.99980  Biso   1.000  H
  H88      1.0000 0.04570  0.36610  0.00020  Biso   1.000  H
  H89      1.0000 0.45430  0.63390  0.50020  Biso   1.000  H
  H90      1.0000 0.54570  0.13390  0.49980  Biso   1.000  H
  H91      1.0000 0.54570  0.86610  0.50020  Biso   1.000  H
  H92      1.0000 0.95430  0.13390  0.00020  Biso   1.000  H
  C169     1.0000 0.36410  0.27900  0.34990  Biso   1.000  C
  C170     1.0000 0.97100  0.61410  0.59990  Biso   1.000  C
  C171     1.0000 0.52900  0.88590  0.59990  Biso   1.000  C
  C172     1.0000 0.52900  0.61410  0.90010  Biso   1.000  C
  C173     1.0000 0.86410  0.77900  0.84990  Biso   1.000  C
  C174     1.0000 0.86410  0.27900  0.15010  Biso   1.000  C
  C175     1.0000 0.86410  0.72100  0.84990  Biso   1.000  C
  C176     1.0000 0.63590  0.27900  0.34990  Biso   1.000  C
  C177     1.0000 0.52900  0.61410  0.59990  Biso   1.000  C
  C178     1.0000 0.36410  0.77900  0.65010  Biso   1.000  C
  C179     1.0000 0.36410  0.22100  0.34990  Biso   1.000  C
  C180     1.0000 0.13590  0.77900  0.84990  Biso   1.000  C
  C181     1.0000 0.63590  0.72100  0.65010  Biso   1.000  C
  C182     1.0000 0.52900  0.88590  0.90010  Biso   1.000  C
  C183     1.0000 0.97100  0.61410  0.90010  Biso   1.000  C
  C184     1.0000 0.97100  0.88590  0.59990  Biso   1.000  C
  C185     1.0000 0.13590  0.22100  0.15010  Biso   1.000  C
  C186     1.0000 0.13590  0.72100  0.84990  Biso   1.000  C
  C187     1.0000 0.13590  0.27900  0.15010  Biso   1.000  C
  C188     1.0000 0.36410  0.72100  0.65010  Biso   1.000  C
  C189     1.0000 0.97100  0.88590  0.90010  Biso   1.000  C
  C190     1.0000 0.63590  0.22100  0.34990  Biso   1.000  C
  C191     1.0000 0.63590  0.77900  0.65010  Biso   1.000  C
  C192     1.0000 0.86410  0.22100  0.15010  Biso   1.000  C
  H93      1.0000 0.37020  0.29760  0.31910  Biso   1.000  H
  H94      1.0000 0.95240  0.62020  0.56910  Biso   1.000  H
  H95      1.0000 0.54760  0.87980  0.56910  Biso   1.000  H
  H96      1.0000 0.54760  0.62020  0.93090  Biso   1.000  H
  H97      1.0000 0.87020  0.79760  0.81910  Biso   1.000  H
  H98      1.0000 0.87020  0.29760  0.18090  Biso   1.000  H
  H99      1.0000 0.87020  0.70240  0.81910  Biso   1.000  H
  H100     1.0000 0.62980  0.29760  0.31910  Biso   1.000  H
  H101     1.0000 0.54760  0.62020  0.56910  Biso   1.000  H
  H102     1.0000 0.37020  0.79760  0.68090  Biso   1.000  H
  H103     1.0000 0.37020  0.20240  0.31910  Biso   1.000  H
  H104     1.0000 0.12980  0.79760  0.81910  Biso   1.000  H
  H105     1.0000 0.62980  0.70240  0.68090  Biso   1.000  H
  H106     1.0000 0.54760  0.87980  0.93090  Biso   1.000  H
  H107     1.0000 0.95240  0.62020  0.93090  Biso   1.000  H
  H108     1.0000 0.95240  0.87980  0.56910  Biso   1.000  H
  H109     1.0000 0.12980  0.20240  0.18090  Biso   1.000  H
  H110     1.0000 0.12980  0.70240  0.81910  Biso   1.000  H
  H111     1.0000 0.12980  0.29760  0.18090  Biso   1.000  H
  H112     1.0000 0.37020  0.70240  0.68090  Biso   1.000  H
  H113     1.0000 0.95240  0.87980  0.93090  Biso   1.000  H
  H114     1.0000 0.62980  0.20240  0.31910  Biso   1.000  H
  H115     1.0000 0.62980  0.79760  0.68090  Biso   1.000  H
  H116     1.0000 0.87020  0.20240  0.18090  Biso   1.000  H
  C193     1.0000 0.34390  0.27880  0.43650  Biso   1.000  C
  C194     1.0000 0.97120  0.59390  0.68650  Biso   1.000  C
  C195     1.0000 0.52880  0.90610  0.68650  Biso   1.000  C
  C196     1.0000 0.52880  0.59390  0.81350  Biso   1.000  C
  C197     1.0000 0.84390  0.77880  0.93650  Biso   1.000  C
  C198     1.0000 0.84390  0.27880  0.06350  Biso   1.000  C
  C199     1.0000 0.84390  0.72120  0.93650  Biso   1.000  C
  C200     1.0000 0.65610  0.27880  0.43650  Biso   1.000  C
  C201     1.0000 0.52880  0.59390  0.68650  Biso   1.000  C
  C202     1.0000 0.34390  0.77880  0.56350  Biso   1.000  C
  C203     1.0000 0.34390  0.22120  0.43650  Biso   1.000  C
  C204     1.0000 0.15610  0.77880  0.93650  Biso   1.000  C
  C205     1.0000 0.65610  0.72120  0.56350  Biso   1.000  C
  C206     1.0000 0.52880  0.90610  0.81350  Biso   1.000  C
  C207     1.0000 0.97120  0.59390  0.81350  Biso   1.000  C
  C208     1.0000 0.97120  0.90610  0.68650  Biso   1.000  C
  C209     1.0000 0.15610  0.22120  0.06350  Biso   1.000  C
  C210     1.0000 0.15610  0.72120  0.93650  Biso   1.000  C
  C211     1.0000 0.15610  0.27880  0.06350  Biso   1.000  C
  C212     1.0000 0.34390  0.72120  0.56350  Biso   1.000  C
  C213     1.0000 0.97120  0.90610  0.81350  Biso   1.000  C
  C214     1.0000 0.65610  0.22120  0.43650  Biso   1.000  C
  C215     1.0000 0.65610  0.77880  0.56350  Biso   1.000  C
  C216     1.0000 0.84390  0.22120  0.06350  Biso   1.000  C
  C217     1.0000 0.33270  0.30780  0.48380  Biso   1.000  C
  C218     1.0000 0.94220  0.58270  0.73380  Biso   1.000  C
  C219     1.0000 0.55780  0.91730  0.73380  Biso   1.000  C
  C220     1.0000 0.55780  0.58270  0.76620  Biso   1.000  C
  C221     1.0000 0.83270  0.80780  0.98380  Biso   1.000  C
  C222     1.0000 0.83270  0.30780  0.01620  Biso   1.000  C
  C223     1.0000 0.83270  0.69220  0.98380  Biso   1.000  C
  C224     1.0000 0.66730  0.30780  0.48380  Biso   1.000  C
  C225     1.0000 0.55780  0.58270  0.73380  Biso   1.000  C
  C226     1.0000 0.33270  0.80780  0.51620  Biso   1.000  C
  C227     1.0000 0.33270  0.19220  0.48380  Biso   1.000  C
  C228     1.0000 0.16730  0.80780  0.98380  Biso   1.000  C
  C229     1.0000 0.66730  0.69220  0.51620  Biso   1.000  C
  C230     1.0000 0.55780  0.91730  0.76620  Biso   1.000  C
  C231     1.0000 0.94220  0.58270  0.76620  Biso   1.000  C
  C232     1.0000 0.94220  0.91730  0.73380  Biso   1.000  C
  C233     1.0000 0.16730  0.19220  0.01620  Biso   1.000  C
  C234     1.0000 0.16730  0.69220  0.98380  Biso   1.000  C
  C235     1.0000 0.16730  0.30780  0.01620  Biso   1.000  C
  C236     1.0000 0.33270  0.69220  0.51620  Biso   1.000  C
  C237     1.0000 0.94220  0.91730  0.76620  Biso   1.000  C
  C238     1.0000 0.66730  0.19220  0.48380  Biso   1.000  C
  C239     1.0000 0.66730  0.80780  0.51620  Biso   1.000  C
  C240     1.0000 0.83270  0.19220  0.01620  Biso   1.000  C
  C241     1.0000 0.32200  0.27930  0.52960  Biso   1.000  C
  C242     1.0000 0.97070  0.57200  0.77960  Biso   1.000  C
  C243     1.0000 0.52930  0.92800  0.77960  Biso   1.000  C
  C244     1.0000 0.52930  0.57200  0.72040  Biso   1.000  C
  C245     1.0000 0.82200  0.77930  0.02960  Biso   1.000  C
  C246     1.0000 0.82200  0.27930  0.97040  Biso   1.000  C
  C247     1.0000 0.82200  0.72070  0.02960  Biso   1.000  C
  C248     1.0000 0.67800  0.27930  0.52960  Biso   1.000  C
  C249     1.0000 0.52930  0.57200  0.77960  Biso   1.000  C
  C250     1.0000 0.32200  0.77930  0.47040  Biso   1.000  C
  C251     1.0000 0.32200  0.22070  0.52960  Biso   1.000  C
  C252     1.0000 0.17800  0.77930  0.02960  Biso   1.000  C
  C253     1.0000 0.67800  0.72070  0.47040  Biso   1.000  C
  C254     1.0000 0.52930  0.92800  0.72040  Biso   1.000  C
  C255     1.0000 0.97070  0.57200  0.72040  Biso   1.000  C
  C256     1.0000 0.97070  0.92800  0.77960  Biso   1.000  C
  C257     1.0000 0.17800  0.22070  0.97040  Biso   1.000  C
  C258     1.0000 0.17800  0.72070  0.02960  Biso   1.000  C
  C259     1.0000 0.17800  0.27930  0.97040  Biso   1.000  C
  C260     1.0000 0.32200  0.72070  0.47040  Biso   1.000  C
  C261     1.0000 0.97070  0.92800  0.72040  Biso   1.000  C
  C262     1.0000 0.67800  0.22070  0.52960  Biso   1.000  C
  C263     1.0000 0.67800  0.77930  0.47040  Biso   1.000  C
  C264     1.0000 0.82200  0.22070  0.97040  Biso   1.000  C
  C265     1.0000 0.31070  0.31190  0.57390  Biso   1.000  C
  C266     1.0000 0.93810  0.56070  0.82390  Biso   1.000  C
  C267     1.0000 0.56190  0.93930  0.82390  Biso   1.000  C
  C268     1.0000 0.56190  0.56070  0.67610  Biso   1.000  C
  C269     1.0000 0.81070  0.81190  0.07390  Biso   1.000  C
  C270     1.0000 0.81070  0.31190  0.92610  Biso   1.000  C
  C271     1.0000 0.81070  0.68810  0.07390  Biso   1.000  C
  C272     1.0000 0.68930  0.31190  0.57390  Biso   1.000  C
  C273     1.0000 0.56190  0.56070  0.82390  Biso   1.000  C
  C274     1.0000 0.31070  0.81190  0.42610  Biso   1.000  C
  C275     1.0000 0.31070  0.18810  0.57390  Biso   1.000  C
  C276     1.0000 0.18930  0.81190  0.07390  Biso   1.000  C
  C277     1.0000 0.68930  0.68810  0.42610  Biso   1.000  C
  C278     1.0000 0.56190  0.93930  0.67610  Biso   1.000  C
  C279     1.0000 0.93810  0.56070  0.67610  Biso   1.000  C
  C280     1.0000 0.93810  0.93930  0.82390  Biso   1.000  C
  C281     1.0000 0.18930  0.18810  0.92610  Biso   1.000  C
  C282     1.0000 0.18930  0.68810  0.07390  Biso   1.000  C
  C283     1.0000 0.18930  0.31190  0.92610  Biso   1.000  C
  C284     1.0000 0.31070  0.68810  0.42610  Biso   1.000  C
  C285     1.0000 0.93810  0.93930  0.67610  Biso   1.000  C
  C286     1.0000 0.68930  0.18810  0.57390  Biso   1.000  C
  C287     1.0000 0.68930  0.81190  0.42610  Biso   1.000  C
  C288     1.0000 0.81070  0.18810  0.92610  Biso   1.000  C
  H117     1.0000 0.30370  0.29530  0.60550  Biso   1.000  H
  H118     1.0000 0.95470  0.55370  0.85550  Biso   1.000  H
  H119     1.0000 0.54530  0.94630  0.85550  Biso   1.000  H
  H120     1.0000 0.54530  0.55370  0.64450  Biso   1.000  H
  H121     1.0000 0.80370  0.79530  0.10550  Biso   1.000  H
  H122     1.0000 0.80370  0.29530  0.89450  Biso   1.000  H
  H123     1.0000 0.80370  0.70470  0.10550  Biso   1.000  H
  H124     1.0000 0.69630  0.29530  0.60550  Biso   1.000  H
  H125     1.0000 0.54530  0.55370  0.85550  Biso   1.000  H
  H126     1.0000 0.30370  0.79530  0.39450  Biso   1.000  H
  H127     1.0000 0.30370  0.20470  0.60550  Biso   1.000  H
  H128     1.0000 0.19630  0.79530  0.10550  Biso   1.000  H
  H129     1.0000 0.69630  0.70470  0.39450  Biso   1.000  H
  H130     1.0000 0.54530  0.94630  0.64450  Biso   1.000  H
  H131     1.0000 0.95470  0.55370  0.64450  Biso   1.000  H
  H132     1.0000 0.95470  0.94630  0.85550  Biso   1.000  H
  H133     1.0000 0.19630  0.20470  0.89450  Biso   1.000  H
  H134     1.0000 0.19630  0.70470  0.10550  Biso   1.000  H
  H135     1.0000 0.19630  0.29530  0.89450  Biso   1.000  H
  H136     1.0000 0.30370  0.70470  0.39450  Biso   1.000  H
  H137     1.0000 0.95470  0.94630  0.64450  Biso   1.000  H
  H138     1.0000 0.69630  0.20470  0.60550  Biso   1.000  H
  H139     1.0000 0.69630  0.79530  0.39450  Biso   1.000  H
  H140     1.0000 0.80370  0.20470  0.89450  Biso   1.000  H
  C289     1.0000 0.31000  0.36530  0.57040  Biso   1.000  C
  C290     1.0000 0.88470  0.56000  0.82040  Biso   1.000  C
  C291     1.0000 0.61530  0.94000  0.82040  Biso   1.000  C
  C292     1.0000 0.61530  0.56000  0.67960  Biso   1.000  C
  C293     1.0000 0.81000  0.86530  0.07040  Biso   1.000  C
  C294     1.0000 0.81000  0.36530  0.92960  Biso   1.000  C
  C295     1.0000 0.81000  0.63470  0.07040  Biso   1.000  C
  C296     1.0000 0.69000  0.36530  0.57040  Biso   1.000  C
  C297     1.0000 0.61530  0.56000  0.82040  Biso   1.000  C
  C298     1.0000 0.31000  0.86530  0.42960  Biso   1.000  C
  C299     1.0000 0.31000  0.13470  0.57040  Biso   1.000  C
  C300     1.0000 0.19000  0.86530  0.07040  Biso   1.000  C
  C301     1.0000 0.69000  0.63470  0.42960  Biso   1.000  C
  C302     1.0000 0.61530  0.94000  0.67960  Biso   1.000  C
  C303     1.0000 0.88470  0.56000  0.67960  Biso   1.000  C
  C304     1.0000 0.88470  0.94000  0.82040  Biso   1.000  C
  C305     1.0000 0.19000  0.13470  0.92960  Biso   1.000  C
  C306     1.0000 0.19000  0.63470  0.07040  Biso   1.000  C
  C307     1.0000 0.19000  0.36530  0.92960  Biso   1.000  C
  C308     1.0000 0.31000  0.63470  0.42960  Biso   1.000  C
  C309     1.0000 0.88470  0.94000  0.67960  Biso   1.000  C
  C310     1.0000 0.69000  0.13470  0.57040  Biso   1.000  C
  C311     1.0000 0.69000  0.86530  0.42960  Biso   1.000  C
  C312     1.0000 0.81000  0.13470  0.92960  Biso   1.000  C
  H141     1.0000 0.30240  0.38590  0.59980  Biso   1.000  H
  H142     1.0000 0.86410  0.55240  0.84980  Biso   1.000  H
  H143     1.0000 0.63590  0.94760  0.84980  Biso   1.000  H
  H144     1.0000 0.63590  0.55240  0.65020  Biso   1.000  H
  H145     1.0000 0.80240  0.88590  0.09980  Biso   1.000  H
  H146     1.0000 0.80240  0.38590  0.90020  Biso   1.000  H
  H147     1.0000 0.80240  0.61410  0.09980  Biso   1.000  H
  H148     1.0000 0.69760  0.38590  0.59980  Biso   1.000  H
  H149     1.0000 0.63590  0.55240  0.84980  Biso   1.000  H
  H150     1.0000 0.30240  0.88590  0.40020  Biso   1.000  H
  H151     1.0000 0.30240  0.11410  0.59980  Biso   1.000  H
  H152     1.0000 0.19760  0.88590  0.09980  Biso   1.000  H
  H153     1.0000 0.69760  0.61410  0.40020  Biso   1.000  H
  H154     1.0000 0.63590  0.94760  0.65020  Biso   1.000  H
  H155     1.0000 0.86410  0.55240  0.65020  Biso   1.000  H
  H156     1.0000 0.86410  0.94760  0.84980  Biso   1.000  H
  H157     1.0000 0.19760  0.11410  0.90020  Biso   1.000  H
  H158     1.0000 0.19760  0.61410  0.09980  Biso   1.000  H
  H159     1.0000 0.19760  0.38590  0.90020  Biso   1.000  H
  H160     1.0000 0.30240  0.61410  0.40020  Biso   1.000  H
  H161     1.0000 0.86410  0.94760  0.65020  Biso   1.000  H
  H162     1.0000 0.69760  0.11410  0.59980  Biso   1.000  H
  H163     1.0000 0.69760  0.88590  0.40020  Biso   1.000  H
  H164     1.0000 0.80240  0.11410  0.90020  Biso   1.000  H
  C313     1.0000 0.32080  0.39200  0.52280  Biso   1.000  C
  C314     1.0000 0.85800  0.57080  0.77280  Biso   1.000  C
  C315     1.0000 0.64200  0.92920  0.77280  Biso   1.000  C
  C316     1.0000 0.64200  0.57080  0.72720  Biso   1.000  C
  C317     1.0000 0.82080  0.89200  0.02280  Biso   1.000  C
  C318     1.0000 0.82080  0.39200  0.97720  Biso   1.000  C
  C319     1.0000 0.82080  0.60800  0.02280  Biso   1.000  C
  C320     1.0000 0.67920  0.39200  0.52280  Biso   1.000  C
  C321     1.0000 0.64200  0.57080  0.77280  Biso   1.000  C
  C322     1.0000 0.32080  0.89200  0.47720  Biso   1.000  C
  C323     1.0000 0.32080  0.10800  0.52280  Biso   1.000  C
  C324     1.0000 0.17920  0.89200  0.02280  Biso   1.000  C
  C325     1.0000 0.67920  0.60800  0.47720  Biso   1.000  C
  C326     1.0000 0.64200  0.92920  0.72720  Biso   1.000  C
  C327     1.0000 0.85800  0.57080  0.72720  Biso   1.000  C
  C328     1.0000 0.85800  0.92920  0.77280  Biso   1.000  C
  C329     1.0000 0.17920  0.10800  0.97720  Biso   1.000  C
  C330     1.0000 0.17920  0.60800  0.02280  Biso   1.000  C
  C331     1.0000 0.17920  0.39200  0.97720  Biso   1.000  C
  C332     1.0000 0.32080  0.60800  0.47720  Biso   1.000  C
  C333     1.0000 0.85800  0.92920  0.72720  Biso   1.000  C
  C334     1.0000 0.67920  0.10800  0.52280  Biso   1.000  C
  C335     1.0000 0.67920  0.89200  0.47720  Biso   1.000  C
  C336     1.0000 0.82080  0.10800  0.97720  Biso   1.000  C
  H165     1.0000 0.31960  0.42980  0.52070  Biso   1.000  H
  H166     1.0000 0.82020  0.56960  0.77070  Biso   1.000  H
  H167     1.0000 0.67980  0.93040  0.77070  Biso   1.000  H
  H168     1.0000 0.67980  0.56960  0.72930  Biso   1.000  H
  H169     1.0000 0.81960  0.92980  0.02070  Biso   1.000  H
  H170     1.0000 0.81960  0.42980  0.97930  Biso   1.000  H
  H171     1.0000 0.81960  0.57020  0.02070  Biso   1.000  H
  H172     1.0000 0.68040  0.42980  0.52070  Biso   1.000  H
  H173     1.0000 0.67980  0.56960  0.77070  Biso   1.000  H
  H174     1.0000 0.31960  0.92980  0.47930  Biso   1.000  H
  H175     1.0000 0.31960  0.07020  0.52070  Biso   1.000  H
  H176     1.0000 0.18040  0.92980  0.02070  Biso   1.000  H
  H177     1.0000 0.68040  0.57020  0.47930  Biso   1.000  H
  H178     1.0000 0.67980  0.93040  0.72930  Biso   1.000  H
  H179     1.0000 0.82020  0.56960  0.72930  Biso   1.000  H
  H180     1.0000 0.82020  0.93040  0.77070  Biso   1.000  H
  H181     1.0000 0.18040  0.07020  0.97930  Biso   1.000  H
  H182     1.0000 0.18040  0.57020  0.02070  Biso   1.000  H
  H183     1.0000 0.18040  0.42980  0.97930  Biso   1.000  H
  H184     1.0000 0.31960  0.57020  0.47930  Biso   1.000  H
  H185     1.0000 0.82020  0.93040  0.72930  Biso   1.000  H
  H186     1.0000 0.68040  0.07020  0.52070  Biso   1.000  H
  H187     1.0000 0.68040  0.92980  0.47930  Biso   1.000  H
  H188     1.0000 0.81960  0.07020  0.97930  Biso   1.000  H
  C337     1.0000 0.23060  0.42310  0.37950  Biso   1.000  C
  C338     1.0000 0.82690  0.48060  0.62950  Biso   1.000  C
  C339     1.0000 0.67310  0.01940  0.62950  Biso   1.000  C
  C340     1.0000 0.67310  0.48060  0.87050  Biso   1.000  C
  C341     1.0000 0.73060  0.92310  0.87950  Biso   1.000  C
  C342     1.0000 0.73060  0.42310  0.12050  Biso   1.000  C
  C343     1.0000 0.73060  0.57690  0.87950  Biso   1.000  C
  C344     1.0000 0.76940  0.42310  0.37950  Biso   1.000  C
  C345     1.0000 0.67310  0.48060  0.62950  Biso   1.000  C
  C346     1.0000 0.23060  0.92310  0.62050  Biso   1.000  C
  C347     1.0000 0.23060  0.07690  0.37950  Biso   1.000  C
  C348     1.0000 0.26940  0.92310  0.87950  Biso   1.000  C
  C349     1.0000 0.76940  0.57690  0.62050  Biso   1.000  C
  C350     1.0000 0.67310  0.01940  0.87050  Biso   1.000  C
  C351     1.0000 0.82690  0.48060  0.87050  Biso   1.000  C
  C352     1.0000 0.82690  0.01940  0.62950  Biso   1.000  C
  C353     1.0000 0.26940  0.07690  0.12050  Biso   1.000  C
  C354     1.0000 0.26940  0.57690  0.87950  Biso   1.000  C
  C355     1.0000 0.26940  0.42310  0.12050  Biso   1.000  C
  C356     1.0000 0.23060  0.57690  0.62050  Biso   1.000  C
  C357     1.0000 0.82690  0.01940  0.87050  Biso   1.000  C
  C358     1.0000 0.76940  0.07690  0.37950  Biso   1.000  C
  C359     1.0000 0.76940  0.92310  0.62050  Biso   1.000  C
  C360     1.0000 0.73060  0.07690  0.12050  Biso   1.000  C
  C361     1.0000 0.23080  0.48080  0.37500  Biso   1.000  C
  C362     1.0000 0.76920  0.48080  0.62500  Biso   1.000  C
  C363     1.0000 0.73080  0.01920  0.62500  Biso   1.000  C
  C364     1.0000 0.73080  0.48080  0.87500  Biso   1.000  C
  C365     1.0000 0.73080  0.98080  0.87500  Biso   1.000  C
  C366     1.0000 0.73080  0.48080  0.12500  Biso   1.000  C
  C367     1.0000 0.73080  0.51920  0.87500  Biso   1.000  C
  C368     1.0000 0.76920  0.48080  0.37500  Biso   1.000  C
  C369     1.0000 0.73080  0.48080  0.62500  Biso   1.000  C
  C370     1.0000 0.23080  0.98080  0.62500  Biso   1.000  C
  C371     1.0000 0.23080  0.01920  0.37500  Biso   1.000  C
  C372     1.0000 0.26920  0.98080  0.87500  Biso   1.000  C
  C373     1.0000 0.76920  0.51920  0.62500  Biso   1.000  C
  C374     1.0000 0.73080  0.01920  0.87500  Biso   1.000  C
  C375     1.0000 0.76920  0.48080  0.87500  Biso   1.000  C
  C376     1.0000 0.76920  0.01920  0.62500  Biso   1.000  C
  C377     1.0000 0.26920  0.01920  0.12500  Biso   1.000  C
  C378     1.0000 0.26920  0.51920  0.87500  Biso   1.000  C
  C379     1.0000 0.26920  0.48080  0.12500  Biso   1.000  C
  C380     1.0000 0.23080  0.51920  0.62500  Biso   1.000  C
  C381     1.0000 0.76920  0.01920  0.87500  Biso   1.000  C
  C382     1.0000 0.76920  0.01920  0.37500  Biso   1.000  C
  C383     1.0000 0.76920  0.98080  0.62500  Biso   1.000  C
  C384     1.0000 0.73080  0.01920  0.12500  Biso   1.000  C
  C385     1.0000 0.17170  0.42170  0.37500  Biso   1.000  C
  C386     1.0000 0.82830  0.42170  0.62500  Biso   1.000  C
  C387     1.0000 0.67170  0.07830  0.62500  Biso   1.000  C
  C388     1.0000 0.67170  0.42170  0.87500  Biso   1.000  C
  C389     1.0000 0.67170  0.92170  0.87500  Biso   1.000  C
  C390     1.0000 0.67170  0.42170  0.12500  Biso   1.000  C
  C391     1.0000 0.67170  0.57830  0.87500  Biso   1.000  C
  C392     1.0000 0.82830  0.42170  0.37500  Biso   1.000  C
  C393     1.0000 0.67170  0.42170  0.62500  Biso   1.000  C
  C394     1.0000 0.17170  0.92170  0.62500  Biso   1.000  C
  C395     1.0000 0.17170  0.07830  0.37500  Biso   1.000  C
  C396     1.0000 0.32830  0.92170  0.87500  Biso   1.000  C
  C397     1.0000 0.82830  0.57830  0.62500  Biso   1.000  C
  C398     1.0000 0.67170  0.07830  0.87500  Biso   1.000  C
  C399     1.0000 0.82830  0.42170  0.87500  Biso   1.000  C
  C400     1.0000 0.82830  0.07830  0.62500  Biso   1.000  C
  C401     1.0000 0.32830  0.07830  0.12500  Biso   1.000  C
  C402     1.0000 0.32830  0.57830  0.87500  Biso   1.000  C
  C403     1.0000 0.32830  0.42170  0.12500  Biso   1.000  C
  C404     1.0000 0.17170  0.57830  0.62500  Biso   1.000  C
  C405     1.0000 0.82830  0.07830  0.87500  Biso   1.000  C
  C406     1.0000 0.82830  0.07830  0.37500  Biso   1.000  C
  C407     1.0000 0.82830  0.92170  0.62500  Biso   1.000  C
  C408     1.0000 0.67170  0.07830  0.12500  Biso   1.000  C
  C409     1.0000 0.47050  0.51070  0.47340  Biso   1.000  C
  C410     1.0000 0.73930  0.72050  0.72340  Biso   1.000  C
  C411     1.0000 0.76070  0.77950  0.72340  Biso   1.000  C
  C412     1.0000 0.76070  0.72050  0.77660  Biso   1.000  C
  C413     1.0000 0.97050  0.01070  0.97340  Biso   1.000  C
  C414     1.0000 0.97050  0.51070  0.02660  Biso   1.000  C
  C415     1.0000 0.97050  0.48930  0.97340  Biso   1.000  C
  C416     1.0000 0.52950  0.51070  0.47340  Biso   1.000  C
  C417     1.0000 0.76070  0.72050  0.72340  Biso   1.000  C
  C418     1.0000 0.47050  0.01070  0.52660  Biso   1.000  C
  C419     1.0000 0.47050  0.98930  0.47340  Biso   1.000  C
  C420     1.0000 0.02950  0.01070  0.97340  Biso   1.000  C
  C421     1.0000 0.52950  0.48930  0.52660  Biso   1.000  C
  C422     1.0000 0.76070  0.77950  0.77660  Biso   1.000  C
  C423     1.0000 0.73930  0.72050  0.77660  Biso   1.000  C
  C424     1.0000 0.73930  0.77950  0.72340  Biso   1.000  C
  C425     1.0000 0.02950  0.98930  0.02660  Biso   1.000  C
  C426     1.0000 0.02950  0.48930  0.97340  Biso   1.000  C
  C427     1.0000 0.02950  0.51070  0.02660  Biso   1.000  C
  C428     1.0000 0.47050  0.48930  0.52660  Biso   1.000  C
  C429     1.0000 0.73930  0.77950  0.77660  Biso   1.000  C
  C430     1.0000 0.52950  0.98930  0.47340  Biso   1.000  C
  C431     1.0000 0.52950  0.01070  0.52660  Biso   1.000  C
  C432     1.0000 0.97050  0.98930  0.02660  Biso   1.000  C
  N1       1.0000 0.38660  0.41120  0.34050  Biso   1.000  N
  N2       1.0000 0.83880  0.63660  0.59050  Biso   1.000  N
  N3       1.0000 0.66120  0.86340  0.59050  Biso   1.000  N
  N4       1.0000 0.66120  0.63660  0.90950  Biso   1.000  N
  N5       1.0000 0.88660  0.91120  0.84050  Biso   1.000  N
  N6       1.0000 0.88660  0.41120  0.15950  Biso   1.000  N
  N7       1.0000 0.88660  0.58880  0.84050  Biso   1.000  N
  N8       1.0000 0.61340  0.41120  0.34050  Biso   1.000  N
  N9       1.0000 0.66120  0.63660  0.59050  Biso   1.000  N
  N10      1.0000 0.38660  0.91120  0.65950  Biso   1.000  N
  N11      1.0000 0.38660  0.08880  0.34050  Biso   1.000  N
  N12      1.0000 0.11340  0.91120  0.84050  Biso   1.000  N
  N13      1.0000 0.61340  0.58880  0.65950  Biso   1.000  N
  N14      1.0000 0.66120  0.86340  0.90950  Biso   1.000  N
  N15      1.0000 0.83880  0.63660  0.90950  Biso   1.000  N
  N16      1.0000 0.83880  0.86340  0.59050  Biso   1.000  N
  N17      1.0000 0.11340  0.08880  0.15950  Biso   1.000  N
  N18      1.0000 0.11340  0.58880  0.84050  Biso   1.000  N
  N19      1.0000 0.11340  0.41120  0.15950  Biso   1.000  N
  N20      1.0000 0.38660  0.58880  0.65950  Biso   1.000  N
  N21      1.0000 0.83880  0.86340  0.90950  Biso   1.000  N
  N22      1.0000 0.61340  0.08880  0.34050  Biso   1.000  N
  N23      1.0000 0.61340  0.91120  0.65950  Biso   1.000  N
  N24      1.0000 0.88660  0.08880  0.15950  Biso   1.000  N
  N25      1.0000 0.44310  0.38740  0.42790  Biso   1.000  N
  N26      1.0000 0.86260  0.69310  0.67790  Biso   1.000  N
  N27      1.0000 0.63740  0.80690  0.67790  Biso   1.000  N
  N28      1.0000 0.63740  0.69310  0.82210  Biso   1.000  N
  N29      1.0000 0.94310  0.88740  0.92790  Biso   1.000  N
  N30      1.0000 0.94310  0.38740  0.07210  Biso   1.000  N
  N31      1.0000 0.94310  0.61260  0.92790  Biso   1.000  N
  N32      1.0000 0.55690  0.38740  0.42790  Biso   1.000  N
  N33      1.0000 0.63740  0.69310  0.67790  Biso   1.000  N
  N34      1.0000 0.44310  0.88740  0.57210  Biso   1.000  N
  N35      1.0000 0.44310  0.11260  0.42790  Biso   1.000  N
  N36      1.0000 0.05690  0.88740  0.92790  Biso   1.000  N
  N37      1.0000 0.55690  0.61260  0.57210  Biso   1.000  N
  N38      1.0000 0.63740  0.80690  0.82210  Biso   1.000  N
  N39      1.0000 0.86260  0.69310  0.82210  Biso   1.000  N
  N40      1.0000 0.86260  0.80690  0.67790  Biso   1.000  N
  N41      1.0000 0.05690  0.11260  0.07210  Biso   1.000  N
  N42      1.0000 0.05690  0.61260  0.92790  Biso   1.000  N
  N43      1.0000 0.05690  0.38740  0.07210  Biso   1.000  N
  N44      1.0000 0.44310  0.61260  0.57210  Biso   1.000  N
  N45      1.0000 0.86260  0.80690  0.82210  Biso   1.000  N
  N46      1.0000 0.55690  0.11260  0.42790  Biso   1.000  N
  N47      1.0000 0.55690  0.88740  0.57210  Biso   1.000  N
  N48      1.0000 0.94310  0.11260  0.07210  Biso   1.000  N
  N49      1.0000 0.35560  0.30670  0.39320  Biso   1.000  N
  N50      1.0000 0.94330  0.60560  0.64320  Biso   1.000  N
  N51      1.0000 0.55670  0.89440  0.64320  Biso   1.000  N
  N52      1.0000 0.55670  0.60560  0.85680  Biso   1.000  N
  N53      1.0000 0.85560  0.80670  0.89320  Biso   1.000  N
  N54      1.0000 0.85560  0.30670  0.10680  Biso   1.000  N
  N55      1.0000 0.85560  0.69330  0.89320  Biso   1.000  N
  N56      1.0000 0.64440  0.30670  0.39320  Biso   1.000  N
  N57      1.0000 0.55670  0.60560  0.64320  Biso   1.000  N
  N58      1.0000 0.35560  0.80670  0.60680  Biso   1.000  N
  N59      1.0000 0.35560  0.19330  0.39320  Biso   1.000  N
  N60      1.0000 0.14440  0.80670  0.89320  Biso   1.000  N
  N61      1.0000 0.64440  0.69330  0.60680  Biso   1.000  N
  N62      1.0000 0.55670  0.89440  0.85680  Biso   1.000  N
  N63      1.0000 0.94330  0.60560  0.85680  Biso   1.000  N
  N64      1.0000 0.94330  0.89440  0.64320  Biso   1.000  N
  N65      1.0000 0.14440  0.19330  0.10680  Biso   1.000  N
  N66      1.0000 0.14440  0.69330  0.89320  Biso   1.000  N
  N67      1.0000 0.14440  0.30670  0.10680  Biso   1.000  N
  N68      1.0000 0.35560  0.69330  0.60680  Biso   1.000  N
  N69      1.0000 0.94330  0.89440  0.85680  Biso   1.000  N
  N70      1.0000 0.64440  0.19330  0.39320  Biso   1.000  N
  N71      1.0000 0.64440  0.80670  0.60680  Biso   1.000  N
  N72      1.0000 0.85560  0.19330  0.10680  Biso   1.000  N
  N73      1.0000 0.33290  0.36180  0.48000  Biso   1.000  N
  N74      1.0000 0.88820  0.58290  0.73000  Biso   1.000  N
  N75      1.0000 0.61180  0.91710  0.73000  Biso   1.000  N
  N76      1.0000 0.61180  0.58290  0.77000  Biso   1.000  N
  N77      1.0000 0.83290  0.86180  0.98000  Biso   1.000  N
  N78      1.0000 0.83290  0.36180  0.02000  Biso   1.000  N
  N79      1.0000 0.83290  0.63820  0.98000  Biso   1.000  N
  N80      1.0000 0.66710  0.36180  0.48000  Biso   1.000  N
  N81      1.0000 0.61180  0.58290  0.73000  Biso   1.000  N
  N82      1.0000 0.33290  0.86180  0.52000  Biso   1.000  N
  N83      1.0000 0.33290  0.13820  0.48000  Biso   1.000  N
  N84      1.0000 0.16710  0.86180  0.98000  Biso   1.000  N
  N85      1.0000 0.66710  0.63820  0.52000  Biso   1.000  N
  N86      1.0000 0.61180  0.91710  0.77000  Biso   1.000  N
  N87      1.0000 0.88820  0.58290  0.77000  Biso   1.000  N
  N88      1.0000 0.88820  0.91710  0.73000  Biso   1.000  N
  N89      1.0000 0.16710  0.13820  0.02000  Biso   1.000  N
  N90      1.0000 0.16710  0.63820  0.98000  Biso   1.000  N
  N91      1.0000 0.16710  0.36180  0.02000  Biso   1.000  N
  N92      1.0000 0.33290  0.63820  0.52000  Biso   1.000  N
  N93      1.0000 0.88820  0.91710  0.77000  Biso   1.000  N
  N94      1.0000 0.66710  0.13820  0.48000  Biso   1.000  N
  N95      1.0000 0.66710  0.86180  0.52000  Biso   1.000  N
  N96      1.0000 0.83290  0.13820  0.02000  Biso   1.000  N
  O1       1.0000 0.34250  0.46970  0.43260  Biso   1.000  O
  O2       1.0000 0.78030  0.59250  0.68260  Biso   1.000  O
  O3       1.0000 0.71970  0.90750  0.68260  Biso   1.000  O
  O4       1.0000 0.71970  0.59250  0.81740  Biso   1.000  O
  O5       1.0000 0.84250  0.96970  0.93260  Biso   1.000  O
  O6       1.0000 0.84250  0.46970  0.06740  Biso   1.000  O
  O7       1.0000 0.84250  0.53030  0.93260  Biso   1.000  O
  O8       1.0000 0.65750  0.46970  0.43260  Biso   1.000  O
  O9       1.0000 0.71970  0.59250  0.68260  Biso   1.000  O
  O10      1.0000 0.34250  0.96970  0.56740  Biso   1.000  O
  O11      1.0000 0.34250  0.03030  0.43260  Biso   1.000  O
  O12      1.0000 0.15750  0.96970  0.93260  Biso   1.000  O
  O13      1.0000 0.65750  0.53030  0.56740  Biso   1.000  O
  O14      1.0000 0.71970  0.90750  0.81740  Biso   1.000  O
  O15      1.0000 0.78030  0.59250  0.81740  Biso   1.000  O
  O16      1.0000 0.78030  0.90750  0.68260  Biso   1.000  O
  O17      1.0000 0.15750  0.03030  0.06740  Biso   1.000  O
  O18      1.0000 0.15750  0.53030  0.93260  Biso   1.000  O
  O19      1.0000 0.15750  0.46970  0.06740  Biso   1.000  O
  O20      1.0000 0.34250  0.53030  0.56740  Biso   1.000  O
  O21      1.0000 0.78030  0.90750  0.81740  Biso   1.000  O
  O22      1.0000 0.65750  0.03030  0.43260  Biso   1.000  O
  O23      1.0000 0.65750  0.96970  0.56740  Biso   1.000  O
  O24      1.0000 0.84250  0.03030  0.06740  Biso   1.000  O
  H189     1.0000 0.31520  0.49100  0.41210  Biso   1.000  H
  H190     1.0000 0.75900  0.56520  0.66210  Biso   1.000  H
  H191     1.0000 0.74100  0.93480  0.66210  Biso   1.000  H
  H192     1.0000 0.74100  0.56520  0.83790  Biso   1.000  H
  H193     1.0000 0.81520  0.99100  0.91210  Biso   1.000  H
  H194     1.0000 0.81520  0.49100  0.08790  Biso   1.000  H
  H195     1.0000 0.81520  0.50900  0.91210  Biso   1.000  H
  H196     1.0000 0.68480  0.49100  0.41210  Biso   1.000  H
  H197     1.0000 0.74100  0.56520  0.66210  Biso   1.000  H
  H198     1.0000 0.31520  0.99100  0.58790  Biso   1.000  H
  H199     1.0000 0.31520  0.00900  0.41210  Biso   1.000  H
  H200     1.0000 0.18480  0.99100  0.91210  Biso   1.000  H
  H201     1.0000 0.68480  0.50900  0.58790  Biso   1.000  H
  H202     1.0000 0.74100  0.93480  0.83790  Biso   1.000  H
  H203     1.0000 0.75900  0.56520  0.83790  Biso   1.000  H
  H204     1.0000 0.75900  0.93480  0.66210  Biso   1.000  H
  H205     1.0000 0.18480  0.00900  0.08790  Biso   1.000  H
  H206     1.0000 0.18480  0.50900  0.91210  Biso   1.000  H
  H207     1.0000 0.18480  0.49100  0.08790  Biso   1.000  H
  H208     1.0000 0.31520  0.50900  0.58790  Biso   1.000  H
  H209     1.0000 0.75900  0.93480  0.83790  Biso   1.000  H
  H210     1.0000 0.68480  0.00900  0.41210  Biso   1.000  H
  H211     1.0000 0.68480  0.99100  0.58790  Biso   1.000  H
  H212     1.0000 0.81520  0.00900  0.08790  Biso   1.000  H
  H213     1.0000 0.37360  0.48790  0.43550  Biso   1.000  H
  H214     1.0000 0.76210  0.62360  0.68550  Biso   1.000  H
  H215     1.0000 0.73790  0.87640  0.68550  Biso   1.000  H
  H216     1.0000 0.73790  0.62360  0.81450  Biso   1.000  H
  H217     1.0000 0.87360  0.98790  0.93550  Biso   1.000  H
  H218     1.0000 0.87360  0.48790  0.06450  Biso   1.000  H
  H219     1.0000 0.87360  0.51210  0.93550  Biso   1.000  H
  H220     1.0000 0.62640  0.48790  0.43550  Biso   1.000  H
  H221     1.0000 0.73790  0.62360  0.68550  Biso   1.000  H
  H222     1.0000 0.37360  0.98790  0.56450  Biso   1.000  H
  H223     1.0000 0.37360  0.01210  0.43550  Biso   1.000  H
  H224     1.0000 0.12640  0.98790  0.93550  Biso   1.000  H
  H225     1.0000 0.62640  0.51210  0.56450  Biso   1.000  H
  H226     1.0000 0.73790  0.87640  0.81450  Biso   1.000  H
  H227     1.0000 0.76210  0.62360  0.81450  Biso   1.000  H
  H228     1.0000 0.76210  0.87640  0.68550  Biso   1.000  H
  H229     1.0000 0.12640  0.01210  0.06450  Biso   1.000  H
  H230     1.0000 0.12640  0.51210  0.93550  Biso   1.000  H
  H231     1.0000 0.12640  0.48790  0.06450  Biso   1.000  H
  H232     1.0000 0.37360  0.51210  0.56450  Biso   1.000  H
  H233     1.0000 0.76210  0.87640  0.81450  Biso   1.000  H
  H234     1.0000 0.62640  0.01210  0.43550  Biso   1.000  H
  H235     1.0000 0.62640  0.98790  0.56450  Biso   1.000  H
  H236     1.0000 0.87360  0.01210  0.06450  Biso   1.000  H
  O25      1.0000 0.26560  0.38570  0.38430  Biso   1.000  O
  O26      1.0000 0.86430  0.51560  0.63430  Biso   1.000  O
  O27      1.0000 0.63570  0.98440  0.63430  Biso   1.000  O
  O28      1.0000 0.63570  0.51560  0.86570  Biso   1.000  O
  O29      1.0000 0.76560  0.88570  0.88430  Biso   1.000  O
  O30      1.0000 0.76560  0.38570  0.11570  Biso   1.000  O
  O31      1.0000 0.76560  0.61430  0.88430  Biso   1.000  O
  O32      1.0000 0.73440  0.38570  0.38430  Biso   1.000  O
  O33      1.0000 0.63570  0.51560  0.63430  Biso   1.000  O
  O34      1.0000 0.26560  0.88570  0.61570  Biso   1.000  O
  O35      1.0000 0.26560  0.11430  0.38430  Biso   1.000  O
  O36      1.0000 0.23440  0.88570  0.88430  Biso   1.000  O
  O37      1.0000 0.73440  0.61430  0.61570  Biso   1.000  O
  O38      1.0000 0.63570  0.98440  0.86570  Biso   1.000  O
  O39      1.0000 0.86430  0.51560  0.86570  Biso   1.000  O
  O40      1.0000 0.86430  0.98440  0.63430  Biso   1.000  O
  O41      1.0000 0.23440  0.11430  0.11570  Biso   1.000  O
  O42      1.0000 0.23440  0.61430  0.88430  Biso   1.000  O
  O43      1.0000 0.23440  0.38570  0.11570  Biso   1.000  O
  O44      1.0000 0.26560  0.61430  0.61570  Biso   1.000  O
  O45      1.0000 0.86430  0.98440  0.86570  Biso   1.000  O
  O46      1.0000 0.73440  0.11430  0.38430  Biso   1.000  O
  O47      1.0000 0.73440  0.88570  0.61570  Biso   1.000  O
  O48      1.0000 0.76560  0.11430  0.11570  Biso   1.000  O
  O49      1.0000 0.26670  0.51670  0.37500  Biso   1.000  O
  O50      1.0000 0.73330  0.51670  0.62500  Biso   1.000  O
  O51      1.0000 0.76670  0.98330  0.62500  Biso   1.000  O
  O52      1.0000 0.76670  0.51670  0.87500  Biso   1.000  O
  O53      1.0000 0.76670  0.01670  0.87500  Biso   1.000  O
  O54      1.0000 0.76670  0.51670  0.12500  Biso   1.000  O
  O55      1.0000 0.76670  0.48330  0.87500  Biso   1.000  O
  O56      1.0000 0.73330  0.51670  0.37500  Biso   1.000  O
  O57      1.0000 0.76670  0.51670  0.62500  Biso   1.000  O
  O58      1.0000 0.26670  0.01670  0.62500  Biso   1.000  O
  O59      1.0000 0.26670  0.98330  0.37500  Biso   1.000  O
  O60      1.0000 0.23330  0.01670  0.87500  Biso   1.000  O
  O61      1.0000 0.73330  0.48330  0.62500  Biso   1.000  O
  O62      1.0000 0.76670  0.98330  0.87500  Biso   1.000  O
  O63      1.0000 0.73330  0.51670  0.87500  Biso   1.000  O
  O64      1.0000 0.73330  0.98330  0.62500  Biso   1.000  O
  O65      1.0000 0.23330  0.98330  0.12500  Biso   1.000  O
  O66      1.0000 0.23330  0.48330  0.87500  Biso   1.000  O
  O67      1.0000 0.23330  0.51670  0.12500  Biso   1.000  O
  O68      1.0000 0.26670  0.48330  0.62500  Biso   1.000  O
  O69      1.0000 0.73330  0.98330  0.87500  Biso   1.000  O
  O70      1.0000 0.73330  0.98330  0.37500  Biso   1.000  O
  O71      1.0000 0.73330  0.01670  0.62500  Biso   1.000  O
  O72      1.0000 0.76670  0.98330  0.12500  Biso   1.000  O
  O73      1.0000 0.13510  0.38510  0.37500  Biso   1.000  O
  O74      1.0000 0.86490  0.38510  0.62500  Biso   1.000  O
  O75      1.0000 0.63510  0.11490  0.62500  Biso   1.000  O
  O76      1.0000 0.63510  0.38510  0.87500  Biso   1.000  O
  O77      1.0000 0.63510  0.88510  0.87500  Biso   1.000  O
  O78      1.0000 0.63510  0.38510  0.12500  Biso   1.000  O
  O79      1.0000 0.63510  0.61490  0.87500  Biso   1.000  O
  O80      1.0000 0.86490  0.38510  0.37500  Biso   1.000  O
  O81      1.0000 0.63510  0.38510  0.62500  Biso   1.000  O
  O82      1.0000 0.13510  0.88510  0.62500  Biso   1.000  O
  O83      1.0000 0.13510  0.11490  0.37500  Biso   1.000  O
  O84      1.0000 0.36490  0.88510  0.87500  Biso   1.000  O
  O85      1.0000 0.86490  0.61490  0.62500  Biso   1.000  O
  O86      1.0000 0.63510  0.11490  0.87500  Biso   1.000  O
  O87      1.0000 0.86490  0.38510  0.87500  Biso   1.000  O
  O88      1.0000 0.86490  0.11490  0.62500  Biso   1.000  O
  O89      1.0000 0.36490  0.11490  0.12500  Biso   1.000  O
  O90      1.0000 0.36490  0.61490  0.87500  Biso   1.000  O
  O91      1.0000 0.36490  0.38510  0.12500  Biso   1.000  O
  O92      1.0000 0.13510  0.61490  0.62500  Biso   1.000  O
  O93      1.0000 0.86490  0.11490  0.87500  Biso   1.000  O
  O94      1.0000 0.86490  0.11490  0.37500  Biso   1.000  O
  O95      1.0000 0.86490  0.88510  0.62500  Biso   1.000  O
  O96      1.0000 0.63510  0.11490  0.12500  Biso   1.000  O
  O97      1.0000 0.43400  0.52390  0.44150  Biso   1.000  O
  O98      1.0000 0.72610  0.68400  0.69150  Biso   1.000  O
  O99      1.0000 0.77390  0.81600  0.69150  Biso   1.000  O
  O100     1.0000 0.77390  0.68400  0.80850  Biso   1.000  O
  O101     1.0000 0.93400  0.02390  0.94150  Biso   1.000  O
  O102     1.0000 0.93400  0.52390  0.05850  Biso   1.000  O
  O103     1.0000 0.93400  0.47610  0.94150  Biso   1.000  O
  O104     1.0000 0.56600  0.52390  0.44150  Biso   1.000  O
  O105     1.0000 0.77390  0.68400  0.69150  Biso   1.000  O
  O106     1.0000 0.43400  0.02390  0.55850  Biso   1.000  O
  O107     1.0000 0.43400  0.97610  0.44150  Biso   1.000  O
  O108     1.0000 0.06600  0.02390  0.94150  Biso   1.000  O
  O109     1.0000 0.56600  0.47610  0.55850  Biso   1.000  O
  O110     1.0000 0.77390  0.81600  0.80850  Biso   1.000  O
  O111     1.0000 0.72610  0.68400  0.80850  Biso   1.000  O
  O112     1.0000 0.72610  0.81600  0.69150  Biso   1.000  O
  O113     1.0000 0.06600  0.97610  0.05850  Biso   1.000  O
  O114     1.0000 0.06600  0.47610  0.94150  Biso   1.000  O
  O115     1.0000 0.06600  0.52390  0.05850  Biso   1.000  O
  O116     1.0000 0.43400  0.47610  0.55850  Biso   1.000  O
  O117     1.0000 0.72610  0.81600  0.80850  Biso   1.000  O
  O118     1.0000 0.56600  0.97610  0.44150  Biso   1.000  O
  O119     1.0000 0.56600  0.02390  0.55850  Biso   1.000  O
  O120     1.0000 0.93400  0.97610  0.05850  Biso   1.000  O
  O121     1.0000 0.23280  0.27050  0.38740  Biso   1.000  O
  O122     1.0000 0.97950  0.48280  0.63740  Biso   1.000  O
  O123     1.0000 0.52050  0.01720  0.63740  Biso   1.000  O
  O124     1.0000 0.52050  0.48280  0.86260  Biso   1.000  O
  O125     1.0000 0.73280  0.77050  0.88740  Biso   1.000  O
  O126     1.0000 0.73280  0.27050  0.11260  Biso   1.000  O
  O127     1.0000 0.73280  0.72950  0.88740  Biso   1.000  O
  O128     1.0000 0.76720  0.27050  0.38740  Biso   1.000  O
  O129     1.0000 0.52050  0.48280  0.63740  Biso   1.000  O
  O130     1.0000 0.23280  0.77050  0.61260  Biso   1.000  O
  O131     1.0000 0.23280  0.22950  0.38740  Biso   1.000  O
  O132     1.0000 0.26720  0.77050  0.88740  Biso   1.000  O
  O133     1.0000 0.76720  0.72950  0.61260  Biso   1.000  O
  O134     1.0000 0.52050  0.01720  0.86260  Biso   1.000  O
  O135     1.0000 0.97950  0.48280  0.86260  Biso   1.000  O
  O136     1.0000 0.97950  0.01720  0.63740  Biso   1.000  O
  O137     1.0000 0.26720  0.22950  0.11260  Biso   1.000  O
  O138     1.0000 0.26720  0.72950  0.88740  Biso   1.000  O
  O139     1.0000 0.26720  0.27050  0.11260  Biso   1.000  O
  O140     1.0000 0.23280  0.72950  0.61260  Biso   1.000  O
  O141     1.0000 0.97950  0.01720  0.86260  Biso   1.000  O
  O142     1.0000 0.76720  0.22950  0.38740  Biso   1.000  O
  O143     1.0000 0.76720  0.77050  0.61260  Biso   1.000  O
  O144     1.0000 0.73280  0.22950  0.11260  Biso   1.000  O
  O145     1.0000 0.19040  0.31140  0.29320  Biso   1.000  O
  O146     1.0000 0.93860  0.44040  0.54320  Biso   1.000  O
  O147     1.0000 0.56140  0.05960  0.54320  Biso   1.000  O
  O148     1.0000 0.56140  0.44040  0.95680  Biso   1.000  O
  O149     1.0000 0.69040  0.81140  0.79320  Biso   1.000  O
  O150     1.0000 0.69040  0.31140  0.20680  Biso   1.000  O
  O151     1.0000 0.69040  0.68860  0.79320  Biso   1.000  O
  O152     1.0000 0.80960  0.31140  0.29320  Biso   1.000  O
  O153     1.0000 0.56140  0.44040  0.54320  Biso   1.000  O
  O154     1.0000 0.19040  0.81140  0.70680  Biso   1.000  O
  O155     1.0000 0.19040  0.18860  0.29320  Biso   1.000  O
  O156     1.0000 0.30960  0.81140  0.79320  Biso   1.000  O
  O157     1.0000 0.80960  0.68860  0.70680  Biso   1.000  O
  O158     1.0000 0.56140  0.05960  0.95680  Biso   1.000  O
  O159     1.0000 0.93860  0.44040  0.95680  Biso   1.000  O
  O160     1.0000 0.93860  0.05960  0.54320  Biso   1.000  O
  O161     1.0000 0.30960  0.18860  0.20680  Biso   1.000  O
  O162     1.0000 0.30960  0.68860  0.79320  Biso   1.000  O
  O163     1.0000 0.30960  0.31140  0.20680  Biso   1.000  O
  O164     1.0000 0.19040  0.68860  0.70680  Biso   1.000  O
  O165     1.0000 0.93860  0.05960  0.95680  Biso   1.000  O
  O166     1.0000 0.80960  0.18860  0.29320  Biso   1.000  O
  O167     1.0000 0.80960  0.81140  0.70680  Biso   1.000  O
  O168     1.0000 0.69040  0.18860  0.20680  Biso   1.000  O
  O169     1.0000 0.45830  0.34180  0.58700  Biso   1.000  O
  O170     1.0000 0.90820  0.70830  0.83700  Biso   1.000  O
  O171     1.0000 0.59180  0.79170  0.83700  Biso   1.000  O
  O172     1.0000 0.59180  0.70830  0.66300  Biso   1.000  O
  O173     1.0000 0.95830  0.84180  0.08700  Biso   1.000  O
  O174     1.0000 0.95830  0.34180  0.91300  Biso   1.000  O
  O175     1.0000 0.95830  0.65820  0.08700  Biso   1.000  O
  O176     1.0000 0.54170  0.34180  0.58700  Biso   1.000  O
  O177     1.0000 0.59180  0.70830  0.83700  Biso   1.000  O
  O178     1.0000 0.45830  0.84180  0.41300  Biso   1.000  O
  O179     1.0000 0.45830  0.15820  0.58700  Biso   1.000  O
  O180     1.0000 0.04170  0.84180  0.08700  Biso   1.000  O
  O181     1.0000 0.54170  0.65820  0.41300  Biso   1.000  O
  O182     1.0000 0.59180  0.79170  0.66300  Biso   1.000  O
  O183     1.0000 0.90820  0.70830  0.66300  Biso   1.000  O
  O184     1.0000 0.90820  0.79170  0.83700  Biso   1.000  O
  O185     1.0000 0.04170  0.15820  0.91300  Biso   1.000  O
  O186     1.0000 0.04170  0.65820  0.08700  Biso   1.000  O
  O187     1.0000 0.04170  0.34180  0.91300  Biso   1.000  O
  O188     1.0000 0.45830  0.65820  0.41300  Biso   1.000  O
  O189     1.0000 0.90820  0.79170  0.66300  Biso   1.000  O
  O190     1.0000 0.54170  0.15820  0.58700  Biso   1.000  O
  O191     1.0000 0.54170  0.84180  0.41300  Biso   1.000  O
  O192     1.0000 0.95830  0.15820  0.91300  Biso   1.000  O
  O193     1.0000 0.25000  0.36100  0.25000  Biso   1.000  O
  O194     1.0000 0.88900  0.50000  0.50000  Biso   1.000  O
  O195     1.0000 0.61100  0.00000  0.50000  Biso   1.000  O
  O196     1.0000 0.61100  0.50000  0.00000  Biso   1.000  O
  O197     1.0000 0.75000  0.86100  0.75000  Biso   1.000  O
  O198     1.0000 0.75000  0.36100  0.25000  Biso   1.000  O
  O199     1.0000 0.75000  0.63900  0.75000  Biso   1.000  O
  O200     1.0000 0.61100  0.50000  0.50000  Biso   1.000  O
  O201     1.0000 0.25000  0.86100  0.75000  Biso   1.000  O
  O202     1.0000 0.25000  0.13900  0.25000  Biso   1.000  O
  O203     1.0000 0.61100  0.00000  0.00000  Biso   1.000  O
  O204     1.0000 0.88900  0.50000  0.00000  Biso   1.000  O
  O205     1.0000 0.88900  0.00000  0.50000  Biso   1.000  O
  O206     1.0000 0.25000  0.63900  0.75000  Biso   1.000  O
  O207     1.0000 0.88900  0.00000  0.00000  Biso   1.000  O
  O208     1.0000 0.75000  0.13900  0.25000  Biso   1.000  O
  O209     1.0000 0.10250  0.27240  0.40570  Biso   1.000  O
  O210     1.0000 0.97760  0.35250  0.65570  Biso   1.000  O
  O211     1.0000 0.52240  0.14750  0.65570  Biso   1.000  O
  O212     1.0000 0.52240  0.35250  0.84430  Biso   1.000  O
  O213     1.0000 0.60250  0.77240  0.90570  Biso   1.000  O
  O214     1.0000 0.60250  0.27240  0.09430  Biso   1.000  O
  O215     1.0000 0.60250  0.72760  0.90570  Biso   1.000  O
  O216     1.0000 0.89750  0.27240  0.40570  Biso   1.000  O
  O217     1.0000 0.52240  0.35250  0.65570  Biso   1.000  O
  O218     1.0000 0.10250  0.77240  0.59430  Biso   1.000  O
  O219     1.0000 0.10250  0.22760  0.40570  Biso   1.000  O
  O220     1.0000 0.39750  0.77240  0.90570  Biso   1.000  O
  O221     1.0000 0.89750  0.72760  0.59430  Biso   1.000  O
  O222     1.0000 0.52240  0.14750  0.84430  Biso   1.000  O
  O223     1.0000 0.97760  0.35250  0.84430  Biso   1.000  O
  O224     1.0000 0.97760  0.14750  0.65570  Biso   1.000  O
  O225     1.0000 0.39750  0.22760  0.09430  Biso   1.000  O
  O226     1.0000 0.39750  0.72760  0.90570  Biso   1.000  O
  O227     1.0000 0.39750  0.27240  0.09430  Biso   1.000  O
  O228     1.0000 0.10250  0.72760  0.59430  Biso   1.000  O
  O229     1.0000 0.97760  0.14750  0.84430  Biso   1.000  O
  O230     1.0000 0.89750  0.22760  0.40570  Biso   1.000  O
  O231     1.0000 0.89750  0.77240  0.59430  Biso   1.000  O
  O232     1.0000 0.60250  0.22760  0.09430  Biso   1.000  O
  O233     1.0000 0.13480  0.30070  0.27680  Biso   1.000  O
  O234     1.0000 0.94930  0.38480  0.52680  Biso   1.000  O
  O235     1.0000 0.55070  0.11520  0.52680  Biso   1.000  O
  O236     1.0000 0.55070  0.38480  0.97320  Biso   1.000  O
  O237     1.0000 0.63480  0.80070  0.77680  Biso   1.000  O
  O238     1.0000 0.63480  0.30070  0.22320  Biso   1.000  O
  O239     1.0000 0.63480  0.69930  0.77680  Biso   1.000  O
  O240     1.0000 0.86520  0.30070  0.27680  Biso   1.000  O
  O241     1.0000 0.55070  0.38480  0.52680  Biso   1.000  O
  O242     1.0000 0.13480  0.80070  0.72320  Biso   1.000  O
  O243     1.0000 0.13480  0.19930  0.27680  Biso   1.000  O
  O244     1.0000 0.36520  0.80070  0.77680  Biso   1.000  O
  O245     1.0000 0.86520  0.69930  0.72320  Biso   1.000  O
  O246     1.0000 0.55070  0.11520  0.97320  Biso   1.000  O
  O247     1.0000 0.94930  0.38480  0.97320  Biso   1.000  O
  O248     1.0000 0.94930  0.11520  0.52680  Biso   1.000  O
  O249     1.0000 0.36520  0.19930  0.22320  Biso   1.000  O
  O250     1.0000 0.36520  0.69930  0.77680  Biso   1.000  O
  O251     1.0000 0.36520  0.30070  0.22320  Biso   1.000  O
  O252     1.0000 0.13480  0.69930  0.72320  Biso   1.000  O
  O253     1.0000 0.94930  0.11520  0.97320  Biso   1.000  O
  O254     1.0000 0.86520  0.19930  0.27680  Biso   1.000  O
  O255     1.0000 0.86520  0.80070  0.72320  Biso   1.000  O
  O256     1.0000 0.63480  0.19930  0.22320  Biso   1.000  O
  C433     1.0000 0.02900  0.61410  0.59990  Biso   1.000  C
  C434     1.0000 0.47100  0.88590  0.59990  Biso   1.000  C
  C435     1.0000 0.47100  0.61410  0.90010  Biso   1.000  C
  C436     1.0000 0.47100  0.61410  0.59990  Biso   1.000  C
  C437     1.0000 0.47100  0.88590  0.90010  Biso   1.000  C
  C438     1.0000 0.02900  0.61410  0.90010  Biso   1.000  C
  C439     1.0000 0.02900  0.88590  0.59990  Biso   1.000  C
  C440     1.0000 0.02900  0.88590  0.90010  Biso   1.000  C
  H237     1.0000 0.04760  0.62020  0.56910  Biso   1.000  H
  H238     1.0000 0.45240  0.87980  0.56910  Biso   1.000  H
  H239     1.0000 0.45240  0.62020  0.93090  Biso   1.000  H
  H240     1.0000 0.45240  0.62020  0.56910  Biso   1.000  H
  H241     1.0000 0.45240  0.87980  0.93090  Biso   1.000  H
  H242     1.0000 0.04760  0.62020  0.93090  Biso   1.000  H
  H243     1.0000 0.04760  0.87980  0.56910  Biso   1.000  H
  H244     1.0000 0.04760  0.87980  0.93090  Biso   1.000  H
  N97      1.0000 0.05670  0.60560  0.64320  Biso   1.000  N
  N98      1.0000 0.44330  0.89440  0.64320  Biso   1.000  N
  N99      1.0000 0.44330  0.60560  0.85680  Biso   1.000  N
  N100     1.0000 0.44330  0.60560  0.64320  Biso   1.000  N
  N101     1.0000 0.44330  0.89440  0.85680  Biso   1.000  N
  N102     1.0000 0.05670  0.60560  0.85680  Biso   1.000  N
  N103     1.0000 0.05670  0.89440  0.64320  Biso   1.000  N
  N104     1.0000 0.05670  0.89440  0.85680  Biso   1.000  N
  C441     1.0000 0.02880  0.59390  0.68650  Biso   1.000  C
  C442     1.0000 0.47120  0.90610  0.68650  Biso   1.000  C
  C443     1.0000 0.47120  0.59390  0.81350  Biso   1.000  C
  C444     1.0000 0.47120  0.59390  0.68650  Biso   1.000  C
  C445     1.0000 0.47120  0.90610  0.81350  Biso   1.000  C
  C446     1.0000 0.02880  0.59390  0.81350  Biso   1.000  C
  C447     1.0000 0.02880  0.90610  0.68650  Biso   1.000  C
  C448     1.0000 0.02880  0.90610  0.81350  Biso   1.000  C
  C449     1.0000 0.02930  0.57200  0.77960  Biso   1.000  C
  C450     1.0000 0.47070  0.92800  0.77960  Biso   1.000  C
  C451     1.0000 0.47070  0.57200  0.72040  Biso   1.000  C
  C452     1.0000 0.47070  0.57200  0.77960  Biso   1.000  C
  C453     1.0000 0.47070  0.92800  0.72040  Biso   1.000  C
  C454     1.0000 0.02930  0.57200  0.72040  Biso   1.000  C
  C455     1.0000 0.02930  0.92800  0.77960  Biso   1.000  C
  C456     1.0000 0.02930  0.92800  0.72040  Biso   1.000  C
  C457     1.0000 0.05780  0.58270  0.73380  Biso   1.000  C
  C458     1.0000 0.44220  0.91730  0.73380  Biso   1.000  C
  C459     1.0000 0.44220  0.58270  0.76620  Biso   1.000  C
  C460     1.0000 0.44220  0.58270  0.73380  Biso   1.000  C
  C461     1.0000 0.44220  0.91730  0.76620  Biso   1.000  C
  C462     1.0000 0.05780  0.58270  0.76620  Biso   1.000  C
  C463     1.0000 0.05780  0.91730  0.73380  Biso   1.000  C
  C464     1.0000 0.05780  0.91730  0.76620  Biso   1.000  C
  N105     1.0000 0.11180  0.58290  0.73000  Biso   1.000  N
  N106     1.0000 0.38820  0.91710  0.73000  Biso   1.000  N
  N107     1.0000 0.38820  0.58290  0.77000  Biso   1.000  N
  N108     1.0000 0.38820  0.58290  0.73000  Biso   1.000  N
  N109     1.0000 0.38820  0.91710  0.77000  Biso   1.000  N
  N110     1.0000 0.11180  0.58290  0.77000  Biso   1.000  N
  N111     1.0000 0.11180  0.91710  0.73000  Biso   1.000  N
  N112     1.0000 0.11180  0.91710  0.77000  Biso   1.000  N
  C465     1.0000 0.14200  0.57080  0.77280  Biso   1.000  C
  C466     1.0000 0.35800  0.92920  0.77280  Biso   1.000  C
  C467     1.0000 0.35800  0.57080  0.72720  Biso   1.000  C
  C468     1.0000 0.35800  0.57080  0.77280  Biso   1.000  C
  C469     1.0000 0.35800  0.92920  0.72720  Biso   1.000  C
  C470     1.0000 0.14200  0.57080  0.72720  Biso   1.000  C
  C471     1.0000 0.14200  0.92920  0.77280  Biso   1.000  C
  C472     1.0000 0.14200  0.92920  0.72720  Biso   1.000  C
  C473     1.0000 0.11530  0.56000  0.82040  Biso   1.000  C
  C474     1.0000 0.38470  0.94000  0.82040  Biso   1.000  C
  C475     1.0000 0.38470  0.56000  0.67960  Biso   1.000  C
  C476     1.0000 0.38470  0.56000  0.82040  Biso   1.000  C
  C477     1.0000 0.38470  0.94000  0.67960  Biso   1.000  C
  C478     1.0000 0.11530  0.56000  0.67960  Biso   1.000  C
  C479     1.0000 0.11530  0.94000  0.82040  Biso   1.000  C
  C480     1.0000 0.11530  0.94000  0.67960  Biso   1.000  C
  C481     1.0000 0.06190  0.56070  0.82390  Biso   1.000  C
  C482     1.0000 0.43810  0.93930  0.82390  Biso   1.000  C
  C483     1.0000 0.43810  0.56070  0.67610  Biso   1.000  C
  C484     1.0000 0.43810  0.56070  0.82390  Biso   1.000  C
  C485     1.0000 0.43810  0.93930  0.67610  Biso   1.000  C
  C486     1.0000 0.06190  0.56070  0.67610  Biso   1.000  C
  C487     1.0000 0.06190  0.93930  0.82390  Biso   1.000  C
  C488     1.0000 0.06190  0.93930  0.67610  Biso   1.000  C
  H245     1.0000 0.04530  0.55370  0.85550  Biso   1.000  H
  H246     1.0000 0.45470  0.94630  0.85550  Biso   1.000  H
  H247     1.0000 0.45470  0.55370  0.64450  Biso   1.000  H
  H248     1.0000 0.45470  0.55370  0.85550  Biso   1.000  H
  H249     1.0000 0.45470  0.94630  0.64450  Biso   1.000  H
  H250     1.0000 0.04530  0.55370  0.64450  Biso   1.000  H
  H251     1.0000 0.04530  0.94630  0.85550  Biso   1.000  H
  H252     1.0000 0.04530  0.94630  0.64450  Biso   1.000  H
  H253     1.0000 0.13590  0.55240  0.84980  Biso   1.000  H
  H254     1.0000 0.36410  0.94760  0.84980  Biso   1.000  H
  H255     1.0000 0.36410  0.55240  0.65020  Biso   1.000  H
  H256     1.0000 0.36410  0.55240  0.84980  Biso   1.000  H
  H257     1.0000 0.36410  0.94760  0.65020  Biso   1.000  H
  H258     1.0000 0.13590  0.55240  0.65020  Biso   1.000  H
  H259     1.0000 0.13590  0.94760  0.84980  Biso   1.000  H
  H260     1.0000 0.13590  0.94760  0.65020  Biso   1.000  H
  H261     1.0000 0.17980  0.56960  0.77070  Biso   1.000  H
  H262     1.0000 0.32020  0.93040  0.77070  Biso   1.000  H
  H263     1.0000 0.32020  0.56960  0.72930  Biso   1.000  H
  H264     1.0000 0.32020  0.56960  0.77070  Biso   1.000  H
  H265     1.0000 0.32020  0.93040  0.72930  Biso   1.000  H
  H266     1.0000 0.17980  0.56960  0.72930  Biso   1.000  H
  H267     1.0000 0.17980  0.93040  0.77070  Biso   1.000  H
  H268     1.0000 0.17980  0.93040  0.72930  Biso   1.000  H
  C489     1.0000 0.17310  0.48060  0.37050  Biso   1.000  C
  C490     1.0000 0.76940  0.42310  0.62050  Biso   1.000  C
  C491     1.0000 0.73060  0.07690  0.62050  Biso   1.000  C
  C492     1.0000 0.73060  0.42310  0.87950  Biso   1.000  C
  C493     1.0000 0.67310  0.98060  0.87050  Biso   1.000  C
  C494     1.0000 0.67310  0.48060  0.12950  Biso   1.000  C
  C495     1.0000 0.67310  0.51940  0.87050  Biso   1.000  C
  C496     1.0000 0.82690  0.48060  0.37050  Biso   1.000  C
  C497     1.0000 0.73060  0.42310  0.62050  Biso   1.000  C
  C498     1.0000 0.17310  0.98060  0.62950  Biso   1.000  C
  C499     1.0000 0.17310  0.01940  0.37050  Biso   1.000  C
  C500     1.0000 0.32690  0.98060  0.87050  Biso   1.000  C
  C501     1.0000 0.82690  0.51940  0.62950  Biso   1.000  C
  C502     1.0000 0.73060  0.07690  0.87950  Biso   1.000  C
  C503     1.0000 0.76940  0.42310  0.87950  Biso   1.000  C
  C504     1.0000 0.76940  0.07690  0.62050  Biso   1.000  C
  C505     1.0000 0.32690  0.01940  0.12950  Biso   1.000  C
  C506     1.0000 0.32690  0.51940  0.87050  Biso   1.000  C
  C507     1.0000 0.32690  0.48060  0.12950  Biso   1.000  C
  C508     1.0000 0.17310  0.51940  0.62950  Biso   1.000  C
  C509     1.0000 0.76940  0.07690  0.87950  Biso   1.000  C
  C510     1.0000 0.82690  0.01940  0.37050  Biso   1.000  C
  C511     1.0000 0.82690  0.98060  0.62950  Biso   1.000  C
  C512     1.0000 0.67310  0.01940  0.12950  Biso   1.000  C
  O257     1.0000 0.13570  0.51560  0.36570  Biso   1.000  O
  O258     1.0000 0.73440  0.38570  0.61570  Biso   1.000  O
  O259     1.0000 0.76560  0.11430  0.61570  Biso   1.000  O
  O260     1.0000 0.76560  0.38570  0.88430  Biso   1.000  O
  O261     1.0000 0.63570  0.01560  0.86570  Biso   1.000  O
  O262     1.0000 0.63570  0.51560  0.13430  Biso   1.000  O
  O263     1.0000 0.63570  0.48440  0.86570  Biso   1.000  O
  O264     1.0000 0.86430  0.51560  0.36570  Biso   1.000  O
  O265     1.0000 0.76560  0.38570  0.61570  Biso   1.000  O
  O266     1.0000 0.13570  0.01560  0.63430  Biso   1.000  O
  O267     1.0000 0.13570  0.98440  0.36570  Biso   1.000  O
  O268     1.0000 0.36430  0.01560  0.86570  Biso   1.000  O
  O269     1.0000 0.86430  0.48440  0.63430  Biso   1.000  O
  O270     1.0000 0.76560  0.11430  0.88430  Biso   1.000  O
  O271     1.0000 0.73440  0.38570  0.88430  Biso   1.000  O
  O272     1.0000 0.73440  0.11430  0.61570  Biso   1.000  O
  O273     1.0000 0.36430  0.98440  0.13430  Biso   1.000  O
  O274     1.0000 0.36430  0.48440  0.86570  Biso   1.000  O
  O275     1.0000 0.36430  0.51560  0.13430  Biso   1.000  O
  O276     1.0000 0.13570  0.48440  0.63430  Biso   1.000  O
  O277     1.0000 0.73440  0.11430  0.88430  Biso   1.000  O
  O278     1.0000 0.86430  0.98440  0.36570  Biso   1.000  O
  O279     1.0000 0.86430  0.01560  0.63430  Biso   1.000  O
  O280     1.0000 0.63570  0.98440  0.13430  Biso   1.000  O
  O281     1.0000 0.02050  0.48280  0.63740  Biso   1.000  O
  O282     1.0000 0.47950  0.01720  0.63740  Biso   1.000  O
  O283     1.0000 0.47950  0.48280  0.86260  Biso   1.000  O
  O284     1.0000 0.47950  0.48280  0.63740  Biso   1.000  O
  O285     1.0000 0.47950  0.01720  0.86260  Biso   1.000  O
  O286     1.0000 0.02050  0.48280  0.86260  Biso   1.000  O
  O287     1.0000 0.02050  0.01720  0.63740  Biso   1.000  O
  O288     1.0000 0.02050  0.01720  0.86260  Biso   1.000  O
  O289     1.0000 0.02240  0.35250  0.65570  Biso   1.000  O
  O290     1.0000 0.47760  0.14750  0.65570  Biso   1.000  O
  O291     1.0000 0.47760  0.35250  0.84430  Biso   1.000  O
  O292     1.0000 0.47760  0.35250  0.65570  Biso   1.000  O
  O293     1.0000 0.47760  0.14750  0.84430  Biso   1.000  O
  O294     1.0000 0.02240  0.35250  0.84430  Biso   1.000  O
  O295     1.0000 0.02240  0.14750  0.65570  Biso   1.000  O
  O296     1.0000 0.02240  0.14750  0.84430  Biso   1.000  O
  Cu25     1.0000 0.14100  0.60262  0.65964  Biso   1.000  Cu
  Cu26     1.0000 0.35900  0.89738  0.65964  Biso   1.000  Cu
  Cu27     1.0000 0.35900  0.60262  0.84036  Biso   1.000  Cu
  Cu28     1.0000 0.35900  0.60262  0.65964  Biso   1.000  Cu
  Cu29     1.0000 0.35900  0.89738  0.84036  Biso   1.000  Cu
  Cu30     1.0000 0.14100  0.60262  0.84036  Biso   1.000  Cu
  Cu31     1.0000 0.14100  0.89738  0.65964  Biso   1.000  Cu
  Cu32     1.0000 0.14100  0.89738  0.84036  Biso   1.000  Cu
  Cu33     1.0000 0.14100  0.60262  0.34036  Biso   1.000  Cu
  Cu34     1.0000 0.64738  0.39100  0.59036  Biso   1.000  Cu
  Cu35     1.0000 0.85262  0.10900  0.59036  Biso   1.000  Cu
  Cu36     1.0000 0.85262  0.39100  0.90964  Biso   1.000  Cu
  Cu37     1.0000 0.64100  0.10262  0.84036  Biso   1.000  Cu
  Cu38     1.0000 0.64100  0.60262  0.15964  Biso   1.000  Cu
  Cu39     1.0000 0.64100  0.39738  0.84036  Biso   1.000  Cu
  Cu40     1.0000 0.85900  0.60262  0.34036  Biso   1.000  Cu
  Cu41     1.0000 0.85262  0.39100  0.59036  Biso   1.000  Cu
  Cu42     1.0000 0.14100  0.10262  0.65964  Biso   1.000  Cu
  Cu43     1.0000 0.14100  0.89738  0.34036  Biso   1.000  Cu
  Cu44     1.0000 0.35900  0.10262  0.84036  Biso   1.000  Cu
  Cu45     1.0000 0.85900  0.39738  0.65964  Biso   1.000  Cu
  Cu46     1.0000 0.85262  0.10900  0.90964  Biso   1.000  Cu
  Cu47     1.0000 0.64738  0.39100  0.90964  Biso   1.000  Cu
  Cu48     1.0000 0.64738  0.10900  0.59036  Biso   1.000  Cu
  Cu49     1.0000 0.35900  0.89738  0.15964  Biso   1.000  Cu
  Cu50     1.0000 0.35900  0.39738  0.84036  Biso   1.000  Cu
  Cu51     1.0000 0.35900  0.60262  0.15964  Biso   1.000  Cu
  Cu52     1.0000 0.14100  0.39738  0.65964  Biso   1.000  Cu
  Cu53     1.0000 0.64738  0.10900  0.90964  Biso   1.000  Cu
  Cu54     1.0000 0.85900  0.89738  0.34036  Biso   1.000  Cu
  Cu55     1.0000 0.85900  0.10262  0.65964  Biso   1.000  Cu
  Cu56     1.0000 0.64100  0.89738  0.15964  Biso   1.000  Cu
  C513     1.0000 0.17210  0.60920  0.54800  Biso   1.000  C
  C514     1.0000 0.32790  0.89080  0.54800  Biso   1.000  C
  C515     1.0000 0.32790  0.60920  0.95200  Biso   1.000  C
  C516     1.0000 0.32790  0.60920  0.54800  Biso   1.000  C
  C517     1.0000 0.32790  0.89080  0.95200  Biso   1.000  C
  C518     1.0000 0.17210  0.60920  0.95200  Biso   1.000  C
  C519     1.0000 0.17210  0.89080  0.54800  Biso   1.000  C
  C520     1.0000 0.17210  0.89080  0.95200  Biso   1.000  C
  H269     1.0000 0.17140  0.57150  0.55010  Biso   1.000  H
  H270     1.0000 0.32860  0.92850  0.55010  Biso   1.000  H
  H271     1.0000 0.32860  0.57150  0.94990  Biso   1.000  H
  H272     1.0000 0.32860  0.57150  0.55010  Biso   1.000  H
  H273     1.0000 0.32860  0.92850  0.94990  Biso   1.000  H
  H274     1.0000 0.17140  0.57150  0.94990  Biso   1.000  H
  H275     1.0000 0.17140  0.92850  0.55010  Biso   1.000  H
  H276     1.0000 0.17140  0.92850  0.94990  Biso   1.000  H
  C521     1.0000 0.18420  0.63140  0.50170  Biso   1.000  C
  C522     1.0000 0.31580  0.86860  0.50170  Biso   1.000  C
  C523     1.0000 0.31580  0.63140  0.99830  Biso   1.000  C
  C524     1.0000 0.31580  0.63140  0.50170  Biso   1.000  C
  C525     1.0000 0.31580  0.86860  0.99830  Biso   1.000  C
  C526     1.0000 0.18420  0.63140  0.99830  Biso   1.000  C
  C527     1.0000 0.18420  0.86860  0.50170  Biso   1.000  C
  C528     1.0000 0.18420  0.86860  0.99830  Biso   1.000  C
  H277     1.0000 0.19110  0.60950  0.47300  Biso   1.000  H
  H278     1.0000 0.30890  0.89050  0.47300  Biso   1.000  H
  H279     1.0000 0.30890  0.60950  0.02700  Biso   1.000  H
  H280     1.0000 0.30890  0.60950  0.47300  Biso   1.000  H
  H281     1.0000 0.30890  0.89050  0.02700  Biso   1.000  H
  H282     1.0000 0.19110  0.60950  0.02700  Biso   1.000  H
  H283     1.0000 0.19110  0.89050  0.47300  Biso   1.000  H
  H284     1.0000 0.19110  0.89050  0.02700  Biso   1.000  H
  C529     1.0000 0.18610  0.68760  0.49790  Biso   1.000  C
  C530     1.0000 0.31390  0.81240  0.49790  Biso   1.000  C
  C531     1.0000 0.31390  0.68760  0.00210  Biso   1.000  C
  C532     1.0000 0.31390  0.68760  0.49790  Biso   1.000  C
  C533     1.0000 0.31390  0.81240  0.00210  Biso   1.000  C
  C534     1.0000 0.18610  0.68760  0.00210  Biso   1.000  C
  C535     1.0000 0.18610  0.81240  0.49790  Biso   1.000  C
  C536     1.0000 0.18610  0.81240  0.00210  Biso   1.000  C
  H285     1.0000 0.19470  0.70360  0.46630  Biso   1.000  H
  H286     1.0000 0.30530  0.79640  0.46630  Biso   1.000  H
  H287     1.0000 0.30530  0.70360  0.03370  Biso   1.000  H
  H288     1.0000 0.30530  0.70360  0.46630  Biso   1.000  H
  H289     1.0000 0.30530  0.79640  0.03370  Biso   1.000  H
  H290     1.0000 0.19470  0.70360  0.03370  Biso   1.000  H
  H291     1.0000 0.19470  0.79640  0.46630  Biso   1.000  H
  H292     1.0000 0.19470  0.79640  0.03370  Biso   1.000  H
  C537     1.0000 0.17500  0.72150  0.54210  Biso   1.000  C
  C538     1.0000 0.32500  0.77850  0.54210  Biso   1.000  C
  C539     1.0000 0.32500  0.72150  0.95790  Biso   1.000  C
  C540     1.0000 0.32500  0.72150  0.54210  Biso   1.000  C
  C541     1.0000 0.32500  0.77850  0.95790  Biso   1.000  C
  C542     1.0000 0.17500  0.72150  0.95790  Biso   1.000  C
  C543     1.0000 0.17500  0.77850  0.54210  Biso   1.000  C
  C544     1.0000 0.17500  0.77850  0.95790  Biso   1.000  C
  C545     1.0000 0.16250  0.69240  0.58880  Biso   1.000  C
  C546     1.0000 0.33750  0.80760  0.58880  Biso   1.000  C
  C547     1.0000 0.33750  0.69240  0.91120  Biso   1.000  C
  C548     1.0000 0.33750  0.69240  0.58880  Biso   1.000  C
  C549     1.0000 0.33750  0.80760  0.91120  Biso   1.000  C
  C550     1.0000 0.16250  0.69240  0.91120  Biso   1.000  C
  C551     1.0000 0.16250  0.80760  0.58880  Biso   1.000  C
  C552     1.0000 0.16250  0.80760  0.91120  Biso   1.000  C
  C553     1.0000 0.15020  0.72160  0.63450  Biso   1.000  C
  C554     1.0000 0.34980  0.77840  0.63450  Biso   1.000  C
  C555     1.0000 0.34980  0.72160  0.86550  Biso   1.000  C
  C556     1.0000 0.34980  0.72160  0.63450  Biso   1.000  C
  C557     1.0000 0.34980  0.77840  0.86550  Biso   1.000  C
  C558     1.0000 0.15020  0.72160  0.86550  Biso   1.000  C
  C559     1.0000 0.15020  0.77840  0.63450  Biso   1.000  C
  C560     1.0000 0.15020  0.77840  0.86550  Biso   1.000  C
  C561     1.0000 0.12510  0.72240  0.71930  Biso   1.000  C
  C562     1.0000 0.37490  0.77760  0.71930  Biso   1.000  C
  C563     1.0000 0.37490  0.72240  0.78070  Biso   1.000  C
  C564     1.0000 0.37490  0.72240  0.71930  Biso   1.000  C
  C565     1.0000 0.37490  0.77760  0.78070  Biso   1.000  C
  C566     1.0000 0.12510  0.72240  0.78070  Biso   1.000  C
  C567     1.0000 0.12510  0.77760  0.71930  Biso   1.000  C
  C568     1.0000 0.12510  0.77760  0.78070  Biso   1.000  C
  H293     1.0000 0.11610  0.70430  0.74980  Biso   1.000  H
  H294     1.0000 0.38390  0.79570  0.74980  Biso   1.000  H
  H295     1.0000 0.38390  0.70430  0.75020  Biso   1.000  H
  H296     1.0000 0.11610  0.79570  0.74980  Biso   1.000  H
  N113     1.0000 0.16120  0.63660  0.59050  Biso   1.000  N
  N114     1.0000 0.33880  0.86340  0.59050  Biso   1.000  N
  N115     1.0000 0.33880  0.63660  0.90950  Biso   1.000  N
  N116     1.0000 0.33880  0.63660  0.59050  Biso   1.000  N
  N117     1.0000 0.33880  0.86340  0.90950  Biso   1.000  N
  N118     1.0000 0.16120  0.63660  0.90950  Biso   1.000  N
  N119     1.0000 0.16120  0.86340  0.59050  Biso   1.000  N
  N120     1.0000 0.16120  0.86340  0.90950  Biso   1.000  N
  N121     1.0000 0.13740  0.69310  0.67790  Biso   1.000  N
  N122     1.0000 0.36260  0.80690  0.67790  Biso   1.000  N
  N123     1.0000 0.36260  0.69310  0.82210  Biso   1.000  N
  N124     1.0000 0.36260  0.69310  0.67790  Biso   1.000  N
  N125     1.0000 0.36260  0.80690  0.82210  Biso   1.000  N
  N126     1.0000 0.13740  0.69310  0.82210  Biso   1.000  N
  N127     1.0000 0.13740  0.80690  0.67790  Biso   1.000  N
  N128     1.0000 0.13740  0.80690  0.82210  Biso   1.000  N
  O297     1.0000 0.21970  0.59250  0.68260  Biso   1.000  O
  O298     1.0000 0.28030  0.90750  0.68260  Biso   1.000  O
  O299     1.0000 0.28030  0.59250  0.81740  Biso   1.000  O
  O300     1.0000 0.28030  0.59250  0.68260  Biso   1.000  O
  O301     1.0000 0.28030  0.90750  0.81740  Biso   1.000  O
  O302     1.0000 0.21970  0.59250  0.81740  Biso   1.000  O
  O303     1.0000 0.21970  0.90750  0.68260  Biso   1.000  O
  O304     1.0000 0.21970  0.90750  0.81740  Biso   1.000  O
  H297     1.0000 0.24100  0.56520  0.66210  Biso   1.000  H
  H298     1.0000 0.25900  0.93480  0.66210  Biso   1.000  H
  H299     1.0000 0.25900  0.56520  0.83790  Biso   1.000  H
  H300     1.0000 0.25900  0.56520  0.66210  Biso   1.000  H
  H301     1.0000 0.25900  0.93480  0.83790  Biso   1.000  H
  H302     1.0000 0.24100  0.56520  0.83790  Biso   1.000  H
  H303     1.0000 0.24100  0.93480  0.66210  Biso   1.000  H
  H304     1.0000 0.24100  0.93480  0.83790  Biso   1.000  H
  H305     1.0000 0.23790  0.62360  0.68550  Biso   1.000  H
  H306     1.0000 0.26210  0.87640  0.68550  Biso   1.000  H
  H307     1.0000 0.26210  0.62360  0.81450  Biso   1.000  H
  H308     1.0000 0.26210  0.62360  0.68550  Biso   1.000  H
  H309     1.0000 0.26210  0.87640  0.81450  Biso   1.000  H
  H310     1.0000 0.23790  0.62360  0.81450  Biso   1.000  H
  H311     1.0000 0.23790  0.87640  0.68550  Biso   1.000  H
  H312     1.0000 0.23790  0.87640  0.81450  Biso   1.000  H
  O305     1.0000 0.21970  0.59250  0.31740  Biso   1.000  O
  O306     1.0000 0.65750  0.46970  0.56740  Biso   1.000  O
  O307     1.0000 0.84250  0.03030  0.56740  Biso   1.000  O
  O308     1.0000 0.84250  0.46970  0.93260  Biso   1.000  O
  O309     1.0000 0.71970  0.09250  0.81740  Biso   1.000  O
  O310     1.0000 0.71970  0.59250  0.18260  Biso   1.000  O
  O311     1.0000 0.71970  0.40750  0.81740  Biso   1.000  O
  O312     1.0000 0.78030  0.59250  0.31740  Biso   1.000  O
  O313     1.0000 0.84250  0.46970  0.56740  Biso   1.000  O
  O314     1.0000 0.21970  0.09250  0.68260  Biso   1.000  O
  O315     1.0000 0.21970  0.90750  0.31740  Biso   1.000  O
  O316     1.0000 0.28030  0.09250  0.81740  Biso   1.000  O
  O317     1.0000 0.78030  0.40750  0.68260  Biso   1.000  O
  O318     1.0000 0.84250  0.03030  0.93260  Biso   1.000  O
  O319     1.0000 0.65750  0.46970  0.93260  Biso   1.000  O
  O320     1.0000 0.65750  0.03030  0.56740  Biso   1.000  O
  O321     1.0000 0.28030  0.90750  0.18260  Biso   1.000  O
  O322     1.0000 0.28030  0.40750  0.81740  Biso   1.000  O
  O323     1.0000 0.28030  0.59250  0.18260  Biso   1.000  O
  O324     1.0000 0.21970  0.40750  0.68260  Biso   1.000  O
  O325     1.0000 0.65750  0.03030  0.93260  Biso   1.000  O
  O326     1.0000 0.78030  0.90750  0.31740  Biso   1.000  O
  O327     1.0000 0.78030  0.09250  0.68260  Biso   1.000  O
  O328     1.0000 0.71970  0.90750  0.18260  Biso   1.000  O
  H313     1.0000 0.24100  0.56520  0.33790  Biso   1.000  H
  H314     1.0000 0.68480  0.49100  0.58790  Biso   1.000  H
  H315     1.0000 0.81520  0.00900  0.58790  Biso   1.000  H
  H316     1.0000 0.81520  0.49100  0.91210  Biso   1.000  H
  H317     1.0000 0.74100  0.06520  0.83790  Biso   1.000  H
  H318     1.0000 0.74100  0.56520  0.16210  Biso   1.000  H
  H319     1.0000 0.74100  0.43480  0.83790  Biso   1.000  H
  H320     1.0000 0.75900  0.56520  0.33790  Biso   1.000  H
  H321     1.0000 0.81520  0.49100  0.58790  Biso   1.000  H
  H322     1.0000 0.24100  0.06520  0.66210  Biso   1.000  H
  H323     1.0000 0.24100  0.93480  0.33790  Biso   1.000  H
  H324     1.0000 0.25900  0.06520  0.83790  Biso   1.000  H
  H325     1.0000 0.75900  0.43480  0.66210  Biso   1.000  H
  H326     1.0000 0.81520  0.00900  0.91210  Biso   1.000  H
  H327     1.0000 0.68480  0.49100  0.91210  Biso   1.000  H
  H328     1.0000 0.68480  0.00900  0.58790  Biso   1.000  H
  H329     1.0000 0.25900  0.93480  0.16210  Biso   1.000  H
  H330     1.0000 0.25900  0.43480  0.83790  Biso   1.000  H
  H331     1.0000 0.25900  0.56520  0.16210  Biso   1.000  H
  H332     1.0000 0.24100  0.43480  0.66210  Biso   1.000  H
  H333     1.0000 0.68480  0.00900  0.91210  Biso   1.000  H
  H334     1.0000 0.75900  0.93480  0.33790  Biso   1.000  H
  H335     1.0000 0.75900  0.06520  0.66210  Biso   1.000  H
  H336     1.0000 0.74100  0.93480  0.16210  Biso   1.000  H
  H337     1.0000 0.23790  0.62360  0.31450  Biso   1.000  H
  H338     1.0000 0.62640  0.48790  0.56450  Biso   1.000  H
  H339     1.0000 0.87360  0.01210  0.56450  Biso   1.000  H
  H340     1.0000 0.87360  0.48790  0.93550  Biso   1.000  H
  H341     1.0000 0.73790  0.12360  0.81450  Biso   1.000  H
  H342     1.0000 0.73790  0.62360  0.18550  Biso   1.000  H
  H343     1.0000 0.73790  0.37640  0.81450  Biso   1.000  H
  H344     1.0000 0.76210  0.62360  0.31450  Biso   1.000  H
  H345     1.0000 0.87360  0.48790  0.56450  Biso   1.000  H
  H346     1.0000 0.23790  0.12360  0.68550  Biso   1.000  H
  H347     1.0000 0.23790  0.87640  0.31450  Biso   1.000  H
  H348     1.0000 0.26210  0.12360  0.81450  Biso   1.000  H
  H349     1.0000 0.76210  0.37640  0.68550  Biso   1.000  H
  H350     1.0000 0.87360  0.01210  0.93550  Biso   1.000  H
  H351     1.0000 0.62640  0.48790  0.93550  Biso   1.000  H
  H352     1.0000 0.62640  0.01210  0.56450  Biso   1.000  H
  H353     1.0000 0.26210  0.87640  0.18550  Biso   1.000  H
  H354     1.0000 0.26210  0.37640  0.81450  Biso   1.000  H
  H355     1.0000 0.26210  0.62360  0.18550  Biso   1.000  H
  H356     1.0000 0.23790  0.37640  0.68550  Biso   1.000  H
  H357     1.0000 0.62640  0.01210  0.93550  Biso   1.000  H
  H358     1.0000 0.76210  0.87640  0.31450  Biso   1.000  H
  H359     1.0000 0.76210  0.12360  0.68550  Biso   1.000  H
  H360     1.0000 0.73790  0.87640  0.18550  Biso   1.000  H
  O329     1.0000 0.13570  0.51560  0.63430  Biso   1.000  O
  O330     1.0000 0.36430  0.98440  0.63430  Biso   1.000  O
  O331     1.0000 0.36430  0.51560  0.86570  Biso   1.000  O
  O332     1.0000 0.36430  0.51560  0.63430  Biso   1.000  O
  O333     1.0000 0.36430  0.98440  0.86570  Biso   1.000  O
  O334     1.0000 0.13570  0.51560  0.86570  Biso   1.000  O
  O335     1.0000 0.13570  0.98440  0.63430  Biso   1.000  O
  O336     1.0000 0.13570  0.98440  0.86570  Biso   1.000  O
  N129     1.0000 0.16120  0.63660  0.40950  Biso   1.000  N
  N130     1.0000 0.61340  0.41120  0.65950  Biso   1.000  N
  N131     1.0000 0.88660  0.08880  0.65950  Biso   1.000  N
  N132     1.0000 0.88660  0.41120  0.84050  Biso   1.000  N
  N133     1.0000 0.66120  0.13660  0.90950  Biso   1.000  N
  N134     1.0000 0.66120  0.63660  0.09050  Biso   1.000  N
  N135     1.0000 0.66120  0.36340  0.90950  Biso   1.000  N
  N136     1.0000 0.83880  0.63660  0.40950  Biso   1.000  N
  N137     1.0000 0.88660  0.41120  0.65950  Biso   1.000  N
  N138     1.0000 0.16120  0.13660  0.59050  Biso   1.000  N
  N139     1.0000 0.16120  0.86340  0.40950  Biso   1.000  N
  N140     1.0000 0.33880  0.13660  0.90950  Biso   1.000  N
  N141     1.0000 0.83880  0.36340  0.59050  Biso   1.000  N
  N142     1.0000 0.88660  0.08880  0.84050  Biso   1.000  N
  N143     1.0000 0.61340  0.41120  0.84050  Biso   1.000  N
  N144     1.0000 0.61340  0.08880  0.65950  Biso   1.000  N
  N145     1.0000 0.33880  0.86340  0.09050  Biso   1.000  N
  N146     1.0000 0.33880  0.36340  0.90950  Biso   1.000  N
  N147     1.0000 0.33880  0.63660  0.09050  Biso   1.000  N
  N148     1.0000 0.16120  0.36340  0.59050  Biso   1.000  N
  N149     1.0000 0.61340  0.08880  0.84050  Biso   1.000  N
  N150     1.0000 0.83880  0.86340  0.40950  Biso   1.000  N
  N151     1.0000 0.83880  0.13660  0.59050  Biso   1.000  N
  N152     1.0000 0.66120  0.86340  0.09050  Biso   1.000  N
  N153     1.0000 0.13740  0.69310  0.32210  Biso   1.000  N
  N154     1.0000 0.55690  0.38740  0.57210  Biso   1.000  N
  N155     1.0000 0.94310  0.11260  0.57210  Biso   1.000  N
  N156     1.0000 0.94310  0.38740  0.92790  Biso   1.000  N
  N157     1.0000 0.63740  0.19310  0.82210  Biso   1.000  N
  N158     1.0000 0.63740  0.69310  0.17790  Biso   1.000  N
  N159     1.0000 0.63740  0.30690  0.82210  Biso   1.000  N
  N160     1.0000 0.86260  0.69310  0.32210  Biso   1.000  N
  N161     1.0000 0.94310  0.38740  0.57210  Biso   1.000  N
  N162     1.0000 0.13740  0.19310  0.67790  Biso   1.000  N
  N163     1.0000 0.13740  0.80690  0.32210  Biso   1.000  N
  N164     1.0000 0.36260  0.19310  0.82210  Biso   1.000  N
  N165     1.0000 0.86260  0.30690  0.67790  Biso   1.000  N
  N166     1.0000 0.94310  0.11260  0.92790  Biso   1.000  N
  N167     1.0000 0.55690  0.38740  0.92790  Biso   1.000  N
  N168     1.0000 0.55690  0.11260  0.57210  Biso   1.000  N
  N169     1.0000 0.36260  0.80690  0.17790  Biso   1.000  N
  N170     1.0000 0.36260  0.30690  0.82210  Biso   1.000  N
  N171     1.0000 0.36260  0.69310  0.17790  Biso   1.000  N
  N172     1.0000 0.13740  0.30690  0.67790  Biso   1.000  N
  N173     1.0000 0.55690  0.11260  0.92790  Biso   1.000  N
  N174     1.0000 0.86260  0.80690  0.32210  Biso   1.000  N
  N175     1.0000 0.86260  0.19310  0.67790  Biso   1.000  N
  N176     1.0000 0.63740  0.80690  0.17790  Biso   1.000  N
  N177     1.0000 0.05670  0.60560  0.35680  Biso   1.000  N
  N178     1.0000 0.64440  0.30670  0.60680  Biso   1.000  N
  N179     1.0000 0.85560  0.19330  0.60680  Biso   1.000  N
  N180     1.0000 0.85560  0.30670  0.89320  Biso   1.000  N
  N181     1.0000 0.55670  0.10560  0.85680  Biso   1.000  N
  N182     1.0000 0.55670  0.60560  0.14320  Biso   1.000  N
  N183     1.0000 0.55670  0.39440  0.85680  Biso   1.000  N
  N184     1.0000 0.94330  0.60560  0.35680  Biso   1.000  N
  N185     1.0000 0.85560  0.30670  0.60680  Biso   1.000  N
  N186     1.0000 0.05670  0.10560  0.64320  Biso   1.000  N
  N187     1.0000 0.05670  0.89440  0.35680  Biso   1.000  N
  N188     1.0000 0.44330  0.10560  0.85680  Biso   1.000  N
  N189     1.0000 0.94330  0.39440  0.64320  Biso   1.000  N
  N190     1.0000 0.85560  0.19330  0.89320  Biso   1.000  N
  N191     1.0000 0.64440  0.30670  0.89320  Biso   1.000  N
  N192     1.0000 0.64440  0.19330  0.60680  Biso   1.000  N
  N193     1.0000 0.44330  0.89440  0.14320  Biso   1.000  N
  N194     1.0000 0.44330  0.39440  0.85680  Biso   1.000  N
  N195     1.0000 0.44330  0.60560  0.14320  Biso   1.000  N
  N196     1.0000 0.05670  0.39440  0.64320  Biso   1.000  N
  N197     1.0000 0.64440  0.19330  0.89320  Biso   1.000  N
  N198     1.0000 0.94330  0.89440  0.35680  Biso   1.000  N
  N199     1.0000 0.94330  0.10560  0.64320  Biso   1.000  N
  N200     1.0000 0.55670  0.89440  0.14320  Biso   1.000  N
  N201     1.0000 0.11180  0.58290  0.27000  Biso   1.000  N
  N202     1.0000 0.66710  0.36180  0.52000  Biso   1.000  N
  N203     1.0000 0.83290  0.13820  0.52000  Biso   1.000  N
  N204     1.0000 0.83290  0.36180  0.98000  Biso   1.000  N
  N205     1.0000 0.61180  0.08290  0.77000  Biso   1.000  N
  N206     1.0000 0.61180  0.58290  0.23000  Biso   1.000  N
  N207     1.0000 0.61180  0.41710  0.77000  Biso   1.000  N
  N208     1.0000 0.88820  0.58290  0.27000  Biso   1.000  N
  N209     1.0000 0.83290  0.36180  0.52000  Biso   1.000  N
  N210     1.0000 0.11180  0.08290  0.73000  Biso   1.000  N
  N211     1.0000 0.11180  0.91710  0.27000  Biso   1.000  N
  N212     1.0000 0.38820  0.08290  0.77000  Biso   1.000  N
  N213     1.0000 0.88820  0.41710  0.73000  Biso   1.000  N
  N214     1.0000 0.83290  0.13820  0.98000  Biso   1.000  N
  N215     1.0000 0.66710  0.36180  0.98000  Biso   1.000  N
  N216     1.0000 0.66710  0.13820  0.52000  Biso   1.000  N
  N217     1.0000 0.38820  0.91710  0.23000  Biso   1.000  N
  N218     1.0000 0.38820  0.41710  0.77000  Biso   1.000  N
  N219     1.0000 0.38820  0.58290  0.23000  Biso   1.000  N
  N220     1.0000 0.11180  0.41710  0.73000  Biso   1.000  N
  N221     1.0000 0.66710  0.13820  0.98000  Biso   1.000  N
  N222     1.0000 0.88820  0.91710  0.27000  Biso   1.000  N
  N223     1.0000 0.88820  0.08290  0.73000  Biso   1.000  N
  N224     1.0000 0.61180  0.91710  0.23000  Biso   1.000  N
