data_image0
_cell_length_a       37.709
_cell_length_b       12.302
_cell_length_c       16.303
_cell_angle_alpha    90
_cell_angle_beta     90
_cell_angle_gamma    90

_symmetry_space_group_name_H-M    "P 1"
_symmetry_int_tables_number       1

loop_
  _symmetry_equiv_pos_as_xyz
  'x, y, z'

loop_
  _atom_site_label
  _atom_site_occupancy
  _atom_site_fract_x
  _atom_site_fract_y
  _atom_site_fract_z
  _atom_site_thermal_displace_type
  _atom_site_B_iso_or_equiv
  _atom_site_type_symbol
  Cu1      1.0000 0.62512  0.75036  0.21012  Biso   1.000  Cu
  Cu2      1.0000 0.37488  0.24964  0.21012  Biso   1.000  Cu
  Cu3      1.0000 0.37488  0.75036  0.71012  Biso   1.000  Cu
  Cu4      1.0000 0.62512  0.24964  0.71012  Biso   1.000  Cu
  Cu5      1.0000 0.12512  0.25036  0.71012  Biso   1.000  Cu
  Cu6      1.0000 0.87488  0.74964  0.71012  Biso   1.000  Cu
  Cu7      1.0000 0.87488  0.25036  0.21012  Biso   1.000  Cu
  Cu8      1.0000 0.12512  0.74964  0.21012  Biso   1.000  Cu
  C1       1.0000 0.50449  0.74940  0.35730  Biso   1.000  C
  C2       1.0000 0.49551  0.25060  0.35730  Biso   1.000  C
  C3       1.0000 0.49551  0.74940  0.85730  Biso   1.000  C
  C4       1.0000 0.50449  0.25060  0.85730  Biso   1.000  C
  C5       1.0000 0.00449  0.24940  0.85730  Biso   1.000  C
  C6       1.0000 0.99551  0.75060  0.85730  Biso   1.000  C
  C7       1.0000 0.99551  0.24940  0.35730  Biso   1.000  C
  C8       1.0000 0.00449  0.75060  0.35730  Biso   1.000  C
  C9       1.0000 0.49296  0.85570  0.36720  Biso   1.000  C
  C10      1.0000 0.50704  0.14430  0.36720  Biso   1.000  C
  C11      1.0000 0.50704  0.85570  0.86720  Biso   1.000  C
  C12      1.0000 0.49296  0.14430  0.86720  Biso   1.000  C
  C13      1.0000 0.99296  0.35570  0.86720  Biso   1.000  C
  C14      1.0000 0.00704  0.64430  0.86720  Biso   1.000  C
  C15      1.0000 0.00704  0.35570  0.36720  Biso   1.000  C
  C16      1.0000 0.99296  0.64430  0.36720  Biso   1.000  C
  H1       1.0000 0.50880  0.91050  0.38140  Biso   1.000  H
  H2       1.0000 0.49120  0.08950  0.38140  Biso   1.000  H
  H3       1.0000 0.49120  0.91050  0.88140  Biso   1.000  H
  H4       1.0000 0.50880  0.08950  0.88140  Biso   1.000  H
  H5       1.0000 0.00880  0.41050  0.88140  Biso   1.000  H
  H6       1.0000 0.99120  0.58950  0.88140  Biso   1.000  H
  H7       1.0000 0.99120  0.41050  0.38140  Biso   1.000  H
  H8       1.0000 0.00880  0.58950  0.38140  Biso   1.000  H
  C17      1.0000 0.45710  0.87890  0.35530  Biso   1.000  C
  C18      1.0000 0.54290  0.12110  0.35530  Biso   1.000  C
  C19      1.0000 0.54290  0.87890  0.85530  Biso   1.000  C
  C20      1.0000 0.45710  0.12110  0.85530  Biso   1.000  C
  C21      1.0000 0.95710  0.37890  0.85530  Biso   1.000  C
  C22      1.0000 0.04290  0.62110  0.85530  Biso   1.000  C
  C23      1.0000 0.04290  0.37890  0.35530  Biso   1.000  C
  C24      1.0000 0.95710  0.62110  0.35530  Biso   1.000  C
  H9       1.0000 0.45030  0.95160  0.35650  Biso   1.000  H
  H10      1.0000 0.54970  0.04840  0.35650  Biso   1.000  H
  H11      1.0000 0.54970  0.95160  0.85650  Biso   1.000  H
  H12      1.0000 0.45030  0.04840  0.85650  Biso   1.000  H
  H13      1.0000 0.95030  0.45160  0.85650  Biso   1.000  H
  H14      1.0000 0.04970  0.54840  0.85650  Biso   1.000  H
  H15      1.0000 0.04970  0.45160  0.35650  Biso   1.000  H
  H16      1.0000 0.95030  0.54840  0.35650  Biso   1.000  H
  C25      1.0000 0.43058  0.80150  0.34170  Biso   1.000  C
  C26      1.0000 0.56942  0.19850  0.34170  Biso   1.000  C
  C27      1.0000 0.56942  0.80150  0.84170  Biso   1.000  C
  C28      1.0000 0.43058  0.19850  0.84170  Biso   1.000  C
  C29      1.0000 0.93058  0.30150  0.84170  Biso   1.000  C
  C30      1.0000 0.06942  0.69850  0.84170  Biso   1.000  C
  C31      1.0000 0.06942  0.30150  0.34170  Biso   1.000  C
  C32      1.0000 0.93058  0.69850  0.34170  Biso   1.000  C
  C33      1.0000 0.44492  0.69100  0.33660  Biso   1.000  C
  C34      1.0000 0.55508  0.30900  0.33660  Biso   1.000  C
  C35      1.0000 0.55508  0.69100  0.83660  Biso   1.000  C
  C36      1.0000 0.44492  0.30900  0.83660  Biso   1.000  C
  C37      1.0000 0.94492  0.19100  0.83660  Biso   1.000  C
  C38      1.0000 0.05508  0.80900  0.83660  Biso   1.000  C
  C39      1.0000 0.05508  0.19100  0.33660  Biso   1.000  C
  C40      1.0000 0.94492  0.80900  0.33660  Biso   1.000  C
  C41      1.0000 0.47866  0.67020  0.34430  Biso   1.000  C
  C42      1.0000 0.52134  0.32980  0.34430  Biso   1.000  C
  C43      1.0000 0.52134  0.67020  0.84430  Biso   1.000  C
  C44      1.0000 0.47866  0.32980  0.84430  Biso   1.000  C
  C45      1.0000 0.97866  0.17020  0.84430  Biso   1.000  C
  C46      1.0000 0.02134  0.82980  0.84430  Biso   1.000  C
  C47      1.0000 0.02134  0.17020  0.34430  Biso   1.000  C
  C48      1.0000 0.97866  0.82980  0.34430  Biso   1.000  C
  H17      1.0000 0.48590  0.59810  0.34090  Biso   1.000  H
  H18      1.0000 0.51410  0.40190  0.34090  Biso   1.000  H
  H19      1.0000 0.51410  0.59810  0.84090  Biso   1.000  H
  H20      1.0000 0.48590  0.40190  0.84090  Biso   1.000  H
  H21      1.0000 0.98590  0.09810  0.84090  Biso   1.000  H
  H22      1.0000 0.01410  0.90190  0.84090  Biso   1.000  H
  H23      1.0000 0.01410  0.09810  0.34090  Biso   1.000  H
  H24      1.0000 0.98590  0.90190  0.34090  Biso   1.000  H
  C49      1.0000 0.58956  0.98800  0.04050  Biso   1.000  C
  C50      1.0000 0.41044  0.01200  0.04050  Biso   1.000  C
  C51      1.0000 0.41044  0.98800  0.54050  Biso   1.000  C
  C52      1.0000 0.58956  0.01200  0.54050  Biso   1.000  C
  C53      1.0000 0.08956  0.48800  0.54050  Biso   1.000  C
  C54      1.0000 0.91044  0.51200  0.54050  Biso   1.000  C
  C55      1.0000 0.91044  0.48800  0.04050  Biso   1.000  C
  C56      1.0000 0.08956  0.51200  0.04050  Biso   1.000  C
  H25      1.0000 0.58780  0.02230  0.98980  Biso   1.000  H
  H26      1.0000 0.41220  0.97770  0.98980  Biso   1.000  H
  H27      1.0000 0.41220  0.02230  0.48980  Biso   1.000  H
  H28      1.0000 0.58780  0.97770  0.48980  Biso   1.000  H
  H29      1.0000 0.08780  0.52230  0.48980  Biso   1.000  H
  H30      1.0000 0.91220  0.47770  0.48980  Biso   1.000  H
  H31      1.0000 0.91220  0.52230  0.98980  Biso   1.000  H
  H32      1.0000 0.08780  0.47770  0.98980  Biso   1.000  H
  C57      1.0000 0.61110  0.90630  0.06360  Biso   1.000  C
  C58      1.0000 0.38890  0.09370  0.06360  Biso   1.000  C
  C59      1.0000 0.38890  0.90630  0.56360  Biso   1.000  C
  C60      1.0000 0.61110  0.09370  0.56360  Biso   1.000  C
  C61      1.0000 0.11110  0.40630  0.56360  Biso   1.000  C
  C62      1.0000 0.88890  0.59370  0.56360  Biso   1.000  C
  C63      1.0000 0.88890  0.40630  0.06360  Biso   1.000  C
  C64      1.0000 0.11110  0.59370  0.06360  Biso   1.000  C
  H33      1.0000 0.62780  0.87400  0.02950  Biso   1.000  H
  H34      1.0000 0.37220  0.12600  0.02950  Biso   1.000  H
  H35      1.0000 0.37220  0.87400  0.52950  Biso   1.000  H
  H36      1.0000 0.62780  0.12600  0.52950  Biso   1.000  H
  H37      1.0000 0.12780  0.37400  0.52950  Biso   1.000  H
  H38      1.0000 0.87220  0.62600  0.52950  Biso   1.000  H
  H39      1.0000 0.87220  0.37400  0.02950  Biso   1.000  H
  H40      1.0000 0.12780  0.62600  0.02950  Biso   1.000  H
  C65      1.0000 0.58130  0.94040  0.16980  Biso   1.000  C
  C66      1.0000 0.41870  0.05960  0.16980  Biso   1.000  C
  C67      1.0000 0.41870  0.94040  0.66980  Biso   1.000  C
  C68      1.0000 0.58130  0.05960  0.66980  Biso   1.000  C
  C69      1.0000 0.08130  0.44040  0.66980  Biso   1.000  C
  C70      1.0000 0.91870  0.55960  0.66980  Biso   1.000  C
  C71      1.0000 0.91870  0.44040  0.16980  Biso   1.000  C
  C72      1.0000 0.08130  0.55960  0.16980  Biso   1.000  C
  H41      1.0000 0.57260  0.93900  0.22320  Biso   1.000  H
  H42      1.0000 0.42740  0.06100  0.22320  Biso   1.000  H
  H43      1.0000 0.42740  0.93900  0.72320  Biso   1.000  H
  H44      1.0000 0.57260  0.06100  0.72320  Biso   1.000  H
  H45      1.0000 0.07260  0.43900  0.72320  Biso   1.000  H
  H46      1.0000 0.92740  0.56100  0.72320  Biso   1.000  H
  H47      1.0000 0.92740  0.43900  0.22320  Biso   1.000  H
  H48      1.0000 0.07260  0.56100  0.22320  Biso   1.000  H
  C73      1.0000 0.58700  0.53770  0.02710  Biso   1.000  C
  C74      1.0000 0.41300  0.46230  0.02710  Biso   1.000  C
  C75      1.0000 0.41300  0.53770  0.52710  Biso   1.000  C
  C76      1.0000 0.58700  0.46230  0.52710  Biso   1.000  C
  C77      1.0000 0.08700  0.03770  0.52710  Biso   1.000  C
  C78      1.0000 0.91300  0.96230  0.52710  Biso   1.000  C
  C79      1.0000 0.91300  0.03770  0.02710  Biso   1.000  C
  C80      1.0000 0.08700  0.96230  0.02710  Biso   1.000  C
  H49      1.0000 0.58490  0.50720  0.97510  Biso   1.000  H
  H50      1.0000 0.41510  0.49280  0.97510  Biso   1.000  H
  H51      1.0000 0.41510  0.50720  0.47510  Biso   1.000  H
  H52      1.0000 0.58490  0.49280  0.47510  Biso   1.000  H
  H53      1.0000 0.08490  0.00720  0.47510  Biso   1.000  H
  H54      1.0000 0.91510  0.99280  0.47510  Biso   1.000  H
  H55      1.0000 0.91510  0.00720  0.97510  Biso   1.000  H
  H56      1.0000 0.08490  0.99280  0.97510  Biso   1.000  H
  C81      1.0000 0.60770  0.62650  0.05170  Biso   1.000  C
  C82      1.0000 0.39230  0.37350  0.05170  Biso   1.000  C
  C83      1.0000 0.39230  0.62650  0.55170  Biso   1.000  C
  C84      1.0000 0.60770  0.37350  0.55170  Biso   1.000  C
  C85      1.0000 0.10770  0.12650  0.55170  Biso   1.000  C
  C86      1.0000 0.89230  0.87350  0.55170  Biso   1.000  C
  C87      1.0000 0.89230  0.12650  0.05170  Biso   1.000  C
  C88      1.0000 0.10770  0.87350  0.05170  Biso   1.000  C
  H57      1.0000 0.62230  0.66780  0.01780  Biso   1.000  H
  H58      1.0000 0.37770  0.33220  0.01780  Biso   1.000  H
  H59      1.0000 0.37770  0.66780  0.51780  Biso   1.000  H
  H60      1.0000 0.62230  0.33220  0.51780  Biso   1.000  H
  H61      1.0000 0.12230  0.16780  0.51780  Biso   1.000  H
  H62      1.0000 0.87770  0.83220  0.51780  Biso   1.000  H
  H63      1.0000 0.87770  0.16780  0.01780  Biso   1.000  H
  H64      1.0000 0.12230  0.83220  0.01780  Biso   1.000  H
  C89      1.0000 0.83291  0.05170  0.24490  Biso   1.000  C
  C90      1.0000 0.16709  0.94830  0.24490  Biso   1.000  C
  C91      1.0000 0.16709  0.05170  0.74490  Biso   1.000  C
  C92      1.0000 0.83291  0.94830  0.74490  Biso   1.000  C
  C93      1.0000 0.33291  0.55170  0.74490  Biso   1.000  C
  C94      1.0000 0.66709  0.44830  0.74490  Biso   1.000  C
  C95      1.0000 0.66709  0.55170  0.24490  Biso   1.000  C
  C96      1.0000 0.33291  0.44830  0.24490  Biso   1.000  C
  H65      1.0000 0.82490  0.05110  0.19100  Biso   1.000  H
  H66      1.0000 0.17510  0.94890  0.19100  Biso   1.000  H
  H67      1.0000 0.17510  0.05110  0.69100  Biso   1.000  H
  H68      1.0000 0.82490  0.94890  0.69100  Biso   1.000  H
  H69      1.0000 0.32490  0.55110  0.69100  Biso   1.000  H
  H70      1.0000 0.67510  0.44890  0.69100  Biso   1.000  H
  H71      1.0000 0.67510  0.55110  0.19100  Biso   1.000  H
  H72      1.0000 0.32490  0.44890  0.19100  Biso   1.000  H
  C97      1.0000 0.85860  0.09860  0.35600  Biso   1.000  C
  C98      1.0000 0.14140  0.90140  0.35600  Biso   1.000  C
  C99      1.0000 0.14140  0.09860  0.85600  Biso   1.000  C
  C100     1.0000 0.85860  0.90140  0.85600  Biso   1.000  C
  C101     1.0000 0.35860  0.59860  0.85600  Biso   1.000  C
  C102     1.0000 0.64140  0.40140  0.85600  Biso   1.000  C
  C103     1.0000 0.64140  0.59860  0.35600  Biso   1.000  C
  C104     1.0000 0.35860  0.40140  0.35600  Biso   1.000  C
  H73      1.0000 0.87180  0.13660  0.39480  Biso   1.000  H
  H74      1.0000 0.12820  0.86340  0.39480  Biso   1.000  H
  H75      1.0000 0.12820  0.13660  0.89480  Biso   1.000  H
  H76      1.0000 0.87180  0.86340  0.89480  Biso   1.000  H
  H77      1.0000 0.37180  0.63660  0.89480  Biso   1.000  H
  H78      1.0000 0.62820  0.36340  0.89480  Biso   1.000  H
  H79      1.0000 0.62820  0.63660  0.39480  Biso   1.000  H
  H80      1.0000 0.37180  0.36340  0.39480  Biso   1.000  H
  C105     1.0000 0.83992  0.00620  0.36970  Biso   1.000  C
  C106     1.0000 0.16008  0.99380  0.36970  Biso   1.000  C
  C107     1.0000 0.16008  0.00620  0.86970  Biso   1.000  C
  C108     1.0000 0.83992  0.99380  0.86970  Biso   1.000  C
  C109     1.0000 0.33992  0.50620  0.86970  Biso   1.000  C
  C110     1.0000 0.66008  0.49380  0.86970  Biso   1.000  C
  C111     1.0000 0.66008  0.50620  0.36970  Biso   1.000  C
  C112     1.0000 0.33992  0.49380  0.36970  Biso   1.000  C
  H81      1.0000 0.83870  0.96950  0.41950  Biso   1.000  H
  H82      1.0000 0.16130  0.03050  0.41950  Biso   1.000  H
  H83      1.0000 0.16130  0.96950  0.91950  Biso   1.000  H
  H84      1.0000 0.83870  0.03050  0.91950  Biso   1.000  H
  H85      1.0000 0.33870  0.46950  0.91950  Biso   1.000  H
  H86      1.0000 0.66130  0.53050  0.91950  Biso   1.000  H
  H87      1.0000 0.66130  0.46950  0.41950  Biso   1.000  H
  H88      1.0000 0.33870  0.53050  0.41950  Biso   1.000  H
  C113     1.0000 0.79669  0.89040  0.29610  Biso   1.000  C
  C114     1.0000 0.20331  0.10960  0.29610  Biso   1.000  C
  C115     1.0000 0.20331  0.89040  0.79610  Biso   1.000  C
  C116     1.0000 0.79669  0.10960  0.79610  Biso   1.000  C
  C117     1.0000 0.29669  0.39040  0.79610  Biso   1.000  C
  C118     1.0000 0.70331  0.60960  0.79610  Biso   1.000  C
  C119     1.0000 0.70331  0.39040  0.29610  Biso   1.000  C
  C120     1.0000 0.29669  0.60960  0.29610  Biso   1.000  C
  H89      1.0000 0.79790  0.84500  0.34470  Biso   1.000  H
  H90      1.0000 0.20210  0.15500  0.34470  Biso   1.000  H
  H91      1.0000 0.20210  0.84500  0.84470  Biso   1.000  H
  H92      1.0000 0.79790  0.15500  0.84470  Biso   1.000  H
  H93      1.0000 0.29790  0.34500  0.84470  Biso   1.000  H
  H94      1.0000 0.70210  0.65500  0.84470  Biso   1.000  H
  H95      1.0000 0.70210  0.34500  0.34470  Biso   1.000  H
  H96      1.0000 0.29790  0.65500  0.34470  Biso   1.000  H
  H97      1.0000 0.80230  0.84500  0.24920  Biso   1.000  H
  H98      1.0000 0.19770  0.15500  0.24920  Biso   1.000  H
  H99      1.0000 0.19770  0.84500  0.74920  Biso   1.000  H
  H100     1.0000 0.80230  0.15500  0.74920  Biso   1.000  H
  H101     1.0000 0.30230  0.34500  0.74920  Biso   1.000  H
  H102     1.0000 0.69770  0.65500  0.74920  Biso   1.000  H
  H103     1.0000 0.69770  0.34500  0.24920  Biso   1.000  H
  H104     1.0000 0.30230  0.65500  0.24920  Biso   1.000  H
  C121     1.0000 0.76122  0.92970  0.28750  Biso   1.000  C
  C122     1.0000 0.23878  0.07030  0.28750  Biso   1.000  C
  C123     1.0000 0.23878  0.92970  0.78750  Biso   1.000  C
  C124     1.0000 0.76122  0.07030  0.78750  Biso   1.000  C
  C125     1.0000 0.26122  0.42970  0.78750  Biso   1.000  C
  C126     1.0000 0.73878  0.57030  0.78750  Biso   1.000  C
  C127     1.0000 0.73878  0.42970  0.28750  Biso   1.000  C
  C128     1.0000 0.26122  0.57030  0.28750  Biso   1.000  C
  H105     1.0000 0.75910  0.96080  0.23300  Biso   1.000  H
  H106     1.0000 0.24090  0.03920  0.23300  Biso   1.000  H
  H107     1.0000 0.24090  0.96080  0.73300  Biso   1.000  H
  H108     1.0000 0.75910  0.03920  0.73300  Biso   1.000  H
  H109     1.0000 0.25910  0.46080  0.73300  Biso   1.000  H
  H110     1.0000 0.74090  0.53920  0.73300  Biso   1.000  H
  H111     1.0000 0.74090  0.46080  0.23300  Biso   1.000  H
  H112     1.0000 0.25910  0.53920  0.23300  Biso   1.000  H
  H113     1.0000 0.74550  0.86740  0.28950  Biso   1.000  H
  H114     1.0000 0.25450  0.13260  0.28950  Biso   1.000  H
  H115     1.0000 0.25450  0.86740  0.78950  Biso   1.000  H
  H116     1.0000 0.74550  0.13260  0.78950  Biso   1.000  H
  H117     1.0000 0.24550  0.36740  0.78950  Biso   1.000  H
  H118     1.0000 0.75450  0.63260  0.78950  Biso   1.000  H
  H119     1.0000 0.75450  0.36740  0.28950  Biso   1.000  H
  H120     1.0000 0.24550  0.63260  0.28950  Biso   1.000  H
  C129     1.0000 0.74794  0.00960  0.34560  Biso   1.000  C
  C130     1.0000 0.25206  0.99040  0.34560  Biso   1.000  C
  C131     1.0000 0.25206  0.00960  0.84560  Biso   1.000  C
  C132     1.0000 0.74794  0.99040  0.84560  Biso   1.000  C
  C133     1.0000 0.24794  0.50960  0.84560  Biso   1.000  C
  C134     1.0000 0.75206  0.49040  0.84560  Biso   1.000  C
  C135     1.0000 0.75206  0.50960  0.34560  Biso   1.000  C
  C136     1.0000 0.24794  0.49040  0.34560  Biso   1.000  C
  H121     1.0000 0.74550  0.97420  0.39850  Biso   1.000  H
  H122     1.0000 0.25450  0.02580  0.39850  Biso   1.000  H
  H123     1.0000 0.25450  0.97420  0.89850  Biso   1.000  H
  H124     1.0000 0.74550  0.02580  0.89850  Biso   1.000  H
  H125     1.0000 0.24550  0.47420  0.89850  Biso   1.000  H
  H126     1.0000 0.75450  0.52580  0.89850  Biso   1.000  H
  H127     1.0000 0.75450  0.47420  0.39850  Biso   1.000  H
  H128     1.0000 0.24550  0.52580  0.39850  Biso   1.000  H
  H129     1.0000 0.76580  0.06580  0.35160  Biso   1.000  H
  H130     1.0000 0.23420  0.93420  0.35160  Biso   1.000  H
  H131     1.0000 0.23420  0.06580  0.85160  Biso   1.000  H
  H132     1.0000 0.76580  0.93420  0.85160  Biso   1.000  H
  H133     1.0000 0.26580  0.56580  0.85160  Biso   1.000  H
  H134     1.0000 0.73420  0.43420  0.85160  Biso   1.000  H
  H135     1.0000 0.73420  0.56580  0.35160  Biso   1.000  H
  H136     1.0000 0.26580  0.43420  0.35160  Biso   1.000  H
  C137     1.0000 0.71271  0.06470  0.32540  Biso   1.000  C
  C138     1.0000 0.28729  0.93530  0.32540  Biso   1.000  C
  C139     1.0000 0.28729  0.06470  0.82540  Biso   1.000  C
  C140     1.0000 0.71271  0.93530  0.82540  Biso   1.000  C
  C141     1.0000 0.21271  0.56470  0.82540  Biso   1.000  C
  C142     1.0000 0.78729  0.43530  0.82540  Biso   1.000  C
  C143     1.0000 0.78729  0.56470  0.32540  Biso   1.000  C
  C144     1.0000 0.21271  0.43530  0.32540  Biso   1.000  C
  H137     1.0000 0.71370  0.09620  0.27090  Biso   1.000  H
  H138     1.0000 0.28630  0.90380  0.27090  Biso   1.000  H
  H139     1.0000 0.28630  0.09620  0.77090  Biso   1.000  H
  H140     1.0000 0.71370  0.90380  0.77090  Biso   1.000  H
  H141     1.0000 0.21370  0.59620  0.77090  Biso   1.000  H
  H142     1.0000 0.78630  0.40380  0.77090  Biso   1.000  H
  H143     1.0000 0.78630  0.59620  0.27090  Biso   1.000  H
  H144     1.0000 0.21370  0.40380  0.27090  Biso   1.000  H
  H145     1.0000 0.70810  0.12260  0.36440  Biso   1.000  H
  H146     1.0000 0.29190  0.87740  0.36440  Biso   1.000  H
  H147     1.0000 0.29190  0.12260  0.86440  Biso   1.000  H
  H148     1.0000 0.70810  0.87740  0.86440  Biso   1.000  H
  H149     1.0000 0.20810  0.62260  0.86440  Biso   1.000  H
  H150     1.0000 0.79190  0.37740  0.86440  Biso   1.000  H
  H151     1.0000 0.79190  0.62260  0.36440  Biso   1.000  H
  H152     1.0000 0.20810  0.37740  0.36440  Biso   1.000  H
  C145     1.0000 0.58050  0.57060  0.15990  Biso   1.000  C
  C146     1.0000 0.41950  0.42940  0.15990  Biso   1.000  C
  C147     1.0000 0.41950  0.57060  0.65990  Biso   1.000  C
  C148     1.0000 0.58050  0.42940  0.65990  Biso   1.000  C
  C149     1.0000 0.08050  0.07060  0.65990  Biso   1.000  C
  C150     1.0000 0.91950  0.92940  0.65990  Biso   1.000  C
  C151     1.0000 0.91950  0.07060  0.15990  Biso   1.000  C
  C152     1.0000 0.08050  0.92940  0.15990  Biso   1.000  C
  H153     1.0000 0.57260  0.56440  0.21370  Biso   1.000  H
  H154     1.0000 0.42740  0.43560  0.21370  Biso   1.000  H
  H155     1.0000 0.42740  0.56440  0.71370  Biso   1.000  H
  H156     1.0000 0.57260  0.43560  0.71370  Biso   1.000  H
  H157     1.0000 0.07260  0.06440  0.71370  Biso   1.000  H
  H158     1.0000 0.92740  0.93560  0.71370  Biso   1.000  H
  H159     1.0000 0.92740  0.06440  0.21370  Biso   1.000  H
  H160     1.0000 0.07260  0.93560  0.21370  Biso   1.000  H
  C153     1.0000 0.67313  0.92210  0.26650  Biso   1.000  C
  C154     1.0000 0.32687  0.07790  0.26650  Biso   1.000  C
  C155     1.0000 0.32687  0.92210  0.76650  Biso   1.000  C
  C156     1.0000 0.67313  0.07790  0.76650  Biso   1.000  C
  C157     1.0000 0.17313  0.42210  0.76650  Biso   1.000  C
  C158     1.0000 0.82687  0.57790  0.76650  Biso   1.000  C
  C159     1.0000 0.82687  0.42210  0.26650  Biso   1.000  C
  C160     1.0000 0.17313  0.57790  0.26650  Biso   1.000  C
  H161     1.0000 0.68270  0.92650  0.21410  Biso   1.000  H
  H162     1.0000 0.31730  0.07350  0.21410  Biso   1.000  H
  H163     1.0000 0.31730  0.92650  0.71410  Biso   1.000  H
  H164     1.0000 0.68270  0.07350  0.71410  Biso   1.000  H
  H165     1.0000 0.18270  0.42650  0.71410  Biso   1.000  H
  H166     1.0000 0.81730  0.57350  0.71410  Biso   1.000  H
  H167     1.0000 0.81730  0.42650  0.21410  Biso   1.000  H
  H168     1.0000 0.18270  0.57350  0.21410  Biso   1.000  H
  C161     1.0000 0.66470  0.95110  0.39310  Biso   1.000  C
  C162     1.0000 0.33530  0.04890  0.39310  Biso   1.000  C
  C163     1.0000 0.33530  0.95110  0.89310  Biso   1.000  C
  C164     1.0000 0.66470  0.04890  0.89310  Biso   1.000  C
  C165     1.0000 0.16470  0.45110  0.89310  Biso   1.000  C
  C166     1.0000 0.83530  0.54890  0.89310  Biso   1.000  C
  C167     1.0000 0.83530  0.45110  0.39310  Biso   1.000  C
  C168     1.0000 0.16470  0.54890  0.39310  Biso   1.000  C
  H169     1.0000 0.66710  0.97790  0.44620  Biso   1.000  H
  H170     1.0000 0.33290  0.02210  0.44620  Biso   1.000  H
  H171     1.0000 0.33290  0.97790  0.94620  Biso   1.000  H
  H172     1.0000 0.66710  0.02210  0.94620  Biso   1.000  H
  H173     1.0000 0.16710  0.47790  0.94620  Biso   1.000  H
  H174     1.0000 0.83290  0.52210  0.94620  Biso   1.000  H
  H175     1.0000 0.83290  0.47790  0.44620  Biso   1.000  H
  H176     1.0000 0.16710  0.52210  0.44620  Biso   1.000  H
  C169     1.0000 0.64170  0.87590  0.37060  Biso   1.000  C
  C170     1.0000 0.35830  0.12410  0.37060  Biso   1.000  C
  C171     1.0000 0.35830  0.87590  0.87060  Biso   1.000  C
  C172     1.0000 0.64170  0.12410  0.87060  Biso   1.000  C
  C173     1.0000 0.14170  0.37590  0.87060  Biso   1.000  C
  C174     1.0000 0.85830  0.62410  0.87060  Biso   1.000  C
  C175     1.0000 0.85830  0.37590  0.37060  Biso   1.000  C
  C176     1.0000 0.14170  0.62410  0.37060  Biso   1.000  C
  H177     1.0000 0.62490  0.84270  0.40400  Biso   1.000  H
  H178     1.0000 0.37510  0.15730  0.40400  Biso   1.000  H
  H179     1.0000 0.37510  0.84270  0.90400  Biso   1.000  H
  H180     1.0000 0.62490  0.15730  0.90400  Biso   1.000  H
  H181     1.0000 0.12490  0.34270  0.90400  Biso   1.000  H
  H182     1.0000 0.87510  0.65730  0.90400  Biso   1.000  H
  H183     1.0000 0.87510  0.34270  0.40400  Biso   1.000  H
  H184     1.0000 0.12490  0.65730  0.40400  Biso   1.000  H
  C177     1.0000 0.39293  0.82566  0.33098  Biso   1.000  C
  C178     1.0000 0.60707  0.17434  0.33098  Biso   1.000  C
  C179     1.0000 0.60707  0.82566  0.83098  Biso   1.000  C
  C180     1.0000 0.39293  0.17434  0.83098  Biso   1.000  C
  C181     1.0000 0.89293  0.32566  0.83098  Biso   1.000  C
  C182     1.0000 0.10707  0.67434  0.83098  Biso   1.000  C
  C183     1.0000 0.10707  0.32566  0.33098  Biso   1.000  C
  C184     1.0000 0.89293  0.67434  0.33098  Biso   1.000  C
  H185     1.0000 0.37980  0.75890  0.32710  Biso   1.000  H
  H186     1.0000 0.62020  0.24110  0.32710  Biso   1.000  H
  H187     1.0000 0.62020  0.75890  0.82710  Biso   1.000  H
  H188     1.0000 0.37980  0.24110  0.82710  Biso   1.000  H
  H189     1.0000 0.87980  0.25890  0.82710  Biso   1.000  H
  H190     1.0000 0.12020  0.74110  0.82710  Biso   1.000  H
  H191     1.0000 0.12020  0.25890  0.32710  Biso   1.000  H
  H192     1.0000 0.87980  0.74110  0.32710  Biso   1.000  H
  H193     1.0000 0.38970  0.86710  0.28170  Biso   1.000  H
  H194     1.0000 0.61030  0.13290  0.28170  Biso   1.000  H
  H195     1.0000 0.61030  0.86710  0.78170  Biso   1.000  H
  H196     1.0000 0.38970  0.13290  0.78170  Biso   1.000  H
  H197     1.0000 0.88970  0.36710  0.78170  Biso   1.000  H
  H198     1.0000 0.11030  0.63290  0.78170  Biso   1.000  H
  H199     1.0000 0.11030  0.36710  0.28170  Biso   1.000  H
  H200     1.0000 0.88970  0.63290  0.28170  Biso   1.000  H
  H201     1.0000 0.38460  0.86680  0.37710  Biso   1.000  H
  H202     1.0000 0.61540  0.13320  0.37710  Biso   1.000  H
  H203     1.0000 0.61540  0.86680  0.87710  Biso   1.000  H
  H204     1.0000 0.38460  0.13320  0.87710  Biso   1.000  H
  H205     1.0000 0.88460  0.36680  0.87710  Biso   1.000  H
  H206     1.0000 0.11540  0.63320  0.87710  Biso   1.000  H
  H207     1.0000 0.11540  0.36680  0.37710  Biso   1.000  H
  H208     1.0000 0.88460  0.63320  0.37710  Biso   1.000  H
  C185     1.0000 0.74724  0.75915  0.06322  Biso   1.000  C
  C186     1.0000 0.25276  0.24085  0.06322  Biso   1.000  C
  C187     1.0000 0.25276  0.75915  0.56322  Biso   1.000  C
  C188     1.0000 0.74724  0.24085  0.56322  Biso   1.000  C
  C189     1.0000 0.24724  0.25915  0.56322  Biso   1.000  C
  C190     1.0000 0.75276  0.74085  0.56322  Biso   1.000  C
  C191     1.0000 0.75276  0.25915  0.06322  Biso   1.000  C
  C192     1.0000 0.24724  0.74085  0.06322  Biso   1.000  C
  C193     1.0000 0.77176  0.84334  0.05927  Biso   1.000  C
  C194     1.0000 0.22824  0.15666  0.05927  Biso   1.000  C
  C195     1.0000 0.22824  0.84334  0.55927  Biso   1.000  C
  C196     1.0000 0.77176  0.15666  0.55927  Biso   1.000  C
  C197     1.0000 0.27176  0.34334  0.55927  Biso   1.000  C
  C198     1.0000 0.72824  0.65666  0.55927  Biso   1.000  C
  C199     1.0000 0.72824  0.34334  0.05927  Biso   1.000  C
  C200     1.0000 0.27176  0.65666  0.05927  Biso   1.000  C
  C201     1.0000 0.80746  0.82265  0.07369  Biso   1.000  C
  C202     1.0000 0.19254  0.17735  0.07369  Biso   1.000  C
  C203     1.0000 0.19254  0.82265  0.57369  Biso   1.000  C
  C204     1.0000 0.80746  0.17735  0.57369  Biso   1.000  C
  C205     1.0000 0.30746  0.32265  0.57369  Biso   1.000  C
  C206     1.0000 0.69254  0.67735  0.57369  Biso   1.000  C
  C207     1.0000 0.69254  0.32265  0.07369  Biso   1.000  C
  C208     1.0000 0.30746  0.67735  0.07369  Biso   1.000  C
  C209     1.0000 0.81863  0.71777  0.09207  Biso   1.000  C
  C210     1.0000 0.18137  0.28223  0.09207  Biso   1.000  C
  C211     1.0000 0.18137  0.71777  0.59207  Biso   1.000  C
  C212     1.0000 0.81863  0.28223  0.59207  Biso   1.000  C
  C213     1.0000 0.31863  0.21777  0.59207  Biso   1.000  C
  C214     1.0000 0.68137  0.78223  0.59207  Biso   1.000  C
  C215     1.0000 0.68137  0.21777  0.09207  Biso   1.000  C
  C216     1.0000 0.31863  0.78223  0.09207  Biso   1.000  C
  C217     1.0000 0.79411  0.63358  0.09603  Biso   1.000  C
  C218     1.0000 0.20589  0.36642  0.09603  Biso   1.000  C
  C219     1.0000 0.20589  0.63358  0.59603  Biso   1.000  C
  C220     1.0000 0.79411  0.36642  0.59603  Biso   1.000  C
  C221     1.0000 0.29411  0.13358  0.59603  Biso   1.000  C
  C222     1.0000 0.70589  0.86642  0.59603  Biso   1.000  C
  C223     1.0000 0.70589  0.13358  0.09603  Biso   1.000  C
  C224     1.0000 0.29411  0.86642  0.09603  Biso   1.000  C
  C225     1.0000 0.75841  0.65426  0.08160  Biso   1.000  C
  C226     1.0000 0.24159  0.34574  0.08160  Biso   1.000  C
  C227     1.0000 0.24159  0.65426  0.58160  Biso   1.000  C
  C228     1.0000 0.75841  0.34574  0.58160  Biso   1.000  C
  C229     1.0000 0.25841  0.15426  0.58160  Biso   1.000  C
  C230     1.0000 0.74159  0.84574  0.58160  Biso   1.000  C
  C231     1.0000 0.74159  0.15426  0.08160  Biso   1.000  C
  C232     1.0000 0.25841  0.84574  0.08160  Biso   1.000  C
  C233     1.0000 0.79476  0.88684  0.05061  Biso   1.000  C
  C234     1.0000 0.20524  0.11316  0.05061  Biso   1.000  C
  C235     1.0000 0.20524  0.88684  0.55061  Biso   1.000  C
  C236     1.0000 0.79476  0.11316  0.55061  Biso   1.000  C
  C237     1.0000 0.29476  0.38684  0.55061  Biso   1.000  C
  C238     1.0000 0.70524  0.61316  0.55061  Biso   1.000  C
  C239     1.0000 0.70524  0.38684  0.05061  Biso   1.000  C
  C240     1.0000 0.29476  0.61316  0.05061  Biso   1.000  C
  C241     1.0000 0.75806  0.86284  0.04001  Biso   1.000  C
  C242     1.0000 0.24194  0.13716  0.04001  Biso   1.000  C
  C243     1.0000 0.24194  0.86284  0.54001  Biso   1.000  C
  C244     1.0000 0.75806  0.13716  0.54001  Biso   1.000  C
  C245     1.0000 0.25806  0.36284  0.54001  Biso   1.000  C
  C246     1.0000 0.74194  0.63716  0.54001  Biso   1.000  C
  C247     1.0000 0.74194  0.36284  0.04001  Biso   1.000  C
  C248     1.0000 0.25806  0.63716  0.04001  Biso   1.000  C
  C249     1.0000 0.80755  0.69455  0.09371  Biso   1.000  C
  C250     1.0000 0.19245  0.30545  0.09371  Biso   1.000  C
  C251     1.0000 0.19245  0.69455  0.59371  Biso   1.000  C
  C252     1.0000 0.80755  0.30545  0.59371  Biso   1.000  C
  C253     1.0000 0.30755  0.19455  0.59371  Biso   1.000  C
  C254     1.0000 0.69245  0.80545  0.59371  Biso   1.000  C
  C255     1.0000 0.69245  0.19455  0.09371  Biso   1.000  C
  C256     1.0000 0.30755  0.80545  0.09371  Biso   1.000  C
  C257     1.0000 0.81645  0.80204  0.07671  Biso   1.000  C
  C258     1.0000 0.18355  0.19796  0.07671  Biso   1.000  C
  C259     1.0000 0.18355  0.80204  0.57671  Biso   1.000  C
  C260     1.0000 0.81645  0.19796  0.57671  Biso   1.000  C
  C261     1.0000 0.31645  0.30204  0.57671  Biso   1.000  C
  C262     1.0000 0.68355  0.69796  0.57671  Biso   1.000  C
  C263     1.0000 0.68355  0.30204  0.07671  Biso   1.000  C
  C264     1.0000 0.31645  0.69796  0.07671  Biso   1.000  C
  C265     1.0000 0.76975  0.67464  0.08811  Biso   1.000  C
  C266     1.0000 0.23025  0.32536  0.08811  Biso   1.000  C
  C267     1.0000 0.23025  0.67464  0.58811  Biso   1.000  C
  C268     1.0000 0.76975  0.32536  0.58811  Biso   1.000  C
  C269     1.0000 0.26975  0.17464  0.58811  Biso   1.000  C
  C270     1.0000 0.73025  0.82536  0.58811  Biso   1.000  C
  C271     1.0000 0.73025  0.17464  0.08811  Biso   1.000  C
  C272     1.0000 0.26975  0.82536  0.08811  Biso   1.000  C
  N1       1.0000 0.64724  0.85506  0.28682  Biso   1.000  N
  N2       1.0000 0.35276  0.14494  0.28682  Biso   1.000  N
  N3       1.0000 0.35276  0.85506  0.78682  Biso   1.000  N
  N4       1.0000 0.64724  0.14494  0.78682  Biso   1.000  N
  N5       1.0000 0.14724  0.35506  0.78682  Biso   1.000  N
  N6       1.0000 0.85276  0.64494  0.78682  Biso   1.000  N
  N7       1.0000 0.85276  0.35506  0.28682  Biso   1.000  N
  N8       1.0000 0.14724  0.64494  0.28682  Biso   1.000  N
  N9       1.0000 0.68398  0.98302  0.32933  Biso   1.000  N
  N10      1.0000 0.31602  0.01698  0.32933  Biso   1.000  N
  N11      1.0000 0.31602  0.98302  0.82933  Biso   1.000  N
  N12      1.0000 0.68398  0.01698  0.82933  Biso   1.000  N
  N13      1.0000 0.18398  0.48302  0.82933  Biso   1.000  N
  N14      1.0000 0.81602  0.51698  0.82933  Biso   1.000  N
  N15      1.0000 0.81602  0.48302  0.32933  Biso   1.000  N
  N16      1.0000 0.18398  0.51698  0.32933  Biso   1.000  N
  N17      1.0000 0.82394  0.97661  0.30269  Biso   1.000  N
  N18      1.0000 0.17606  0.02339  0.30269  Biso   1.000  N
  N19      1.0000 0.17606  0.97661  0.80269  Biso   1.000  N
  N20      1.0000 0.82394  0.02339  0.80269  Biso   1.000  N
  N21      1.0000 0.32394  0.47661  0.80269  Biso   1.000  N
  N22      1.0000 0.67606  0.52339  0.80269  Biso   1.000  N
  N23      1.0000 0.67606  0.47661  0.30269  Biso   1.000  N
  N24      1.0000 0.32394  0.52339  0.30269  Biso   1.000  N
  N25      1.0000 0.85481  0.12597  0.27615  Biso   1.000  N
  N26      1.0000 0.14519  0.87403  0.27615  Biso   1.000  N
  N27      1.0000 0.14519  0.12597  0.77615  Biso   1.000  N
  N28      1.0000 0.85481  0.87403  0.77615  Biso   1.000  N
  N29      1.0000 0.35481  0.62597  0.77615  Biso   1.000  N
  N30      1.0000 0.64519  0.37403  0.77615  Biso   1.000  N
  N31      1.0000 0.64519  0.62597  0.27615  Biso   1.000  N
  N32      1.0000 0.35481  0.37403  0.27615  Biso   1.000  N
  N33      1.0000 0.60294  0.64211  0.13346  Biso   1.000  N
  N34      1.0000 0.39706  0.35789  0.13346  Biso   1.000  N
  N35      1.0000 0.39706  0.64211  0.63346  Biso   1.000  N
  N36      1.0000 0.60294  0.35789  0.63346  Biso   1.000  N
  N37      1.0000 0.10294  0.14211  0.63346  Biso   1.000  N
  N38      1.0000 0.89706  0.85789  0.63346  Biso   1.000  N
  N39      1.0000 0.89706  0.14211  0.13346  Biso   1.000  N
  N40      1.0000 0.10294  0.85789  0.13346  Biso   1.000  N
  N41      1.0000 0.57065  0.50705  0.09769  Biso   1.000  N
  N42      1.0000 0.42935  0.49295  0.09769  Biso   1.000  N
  N43      1.0000 0.42935  0.50705  0.59769  Biso   1.000  N
  N44      1.0000 0.57065  0.49295  0.59769  Biso   1.000  N
  N45      1.0000 0.07065  0.00705  0.59769  Biso   1.000  N
  N46      1.0000 0.92935  0.99295  0.59769  Biso   1.000  N
  N47      1.0000 0.92935  0.00705  0.09769  Biso   1.000  N
  N48      1.0000 0.07065  0.99295  0.09769  Biso   1.000  N
  N49      1.0000 0.60529  0.87612  0.14378  Biso   1.000  N
  N50      1.0000 0.39471  0.12388  0.14378  Biso   1.000  N
  N51      1.0000 0.39471  0.87612  0.64378  Biso   1.000  N
  N52      1.0000 0.60529  0.12388  0.64378  Biso   1.000  N
  N53      1.0000 0.10529  0.37612  0.64378  Biso   1.000  N
  N54      1.0000 0.89471  0.62388  0.64378  Biso   1.000  N
  N55      1.0000 0.89471  0.37612  0.14378  Biso   1.000  N
  N56      1.0000 0.10529  0.62388  0.14378  Biso   1.000  N
  N57      1.0000 0.57009  0.00826  0.11409  Biso   1.000  N
  N58      1.0000 0.42991  0.99174  0.11409  Biso   1.000  N
  N59      1.0000 0.42991  0.00826  0.61409  Biso   1.000  N
  N60      1.0000 0.57009  0.99174  0.61409  Biso   1.000  N
  N61      1.0000 0.07009  0.50826  0.61409  Biso   1.000  N
  N62      1.0000 0.92991  0.49174  0.61409  Biso   1.000  N
  N63      1.0000 0.92991  0.50826  0.11409  Biso   1.000  N
  N64      1.0000 0.07009  0.49174  0.11409  Biso   1.000  N
  N65      1.0000 0.41961  0.61290  0.31547  Biso   1.000  N
  N66      1.0000 0.58039  0.38710  0.31547  Biso   1.000  N
  N67      1.0000 0.58039  0.61290  0.81547  Biso   1.000  N
  N68      1.0000 0.41961  0.38710  0.81547  Biso   1.000  N
  N69      1.0000 0.91961  0.11290  0.81547  Biso   1.000  N
  N70      1.0000 0.08039  0.88710  0.81547  Biso   1.000  N
  N71      1.0000 0.08039  0.11290  0.31547  Biso   1.000  N
  N72      1.0000 0.91961  0.88710  0.31547  Biso   1.000  N
  H209     1.0000 0.39960  0.62260  0.33880  Biso   1.000  H
  H210     1.0000 0.60040  0.37740  0.33880  Biso   1.000  H
  H211     1.0000 0.60040  0.62260  0.83880  Biso   1.000  H
  H212     1.0000 0.39960  0.37740  0.83880  Biso   1.000  H
  H213     1.0000 0.89960  0.12260  0.83880  Biso   1.000  H
  H214     1.0000 0.10040  0.87740  0.83880  Biso   1.000  H
  H215     1.0000 0.10040  0.12260  0.33880  Biso   1.000  H
  H216     1.0000 0.89960  0.87740  0.33880  Biso   1.000  H
  H217     1.0000 0.42920  0.55810  0.33780  Biso   1.000  H
  H218     1.0000 0.57080  0.44190  0.33780  Biso   1.000  H
  H219     1.0000 0.57080  0.55810  0.83780  Biso   1.000  H
  H220     1.0000 0.42920  0.44190  0.83780  Biso   1.000  H
  H221     1.0000 0.92920  0.05810  0.83780  Biso   1.000  H
  H222     1.0000 0.07080  0.94190  0.83780  Biso   1.000  H
  H223     1.0000 0.07080  0.05810  0.33780  Biso   1.000  H
  H224     1.0000 0.92920  0.94190  0.33780  Biso   1.000  H
  O1       1.0000 0.56589  0.76298  0.29166  Biso   1.000  O
  O2       1.0000 0.43411  0.23702  0.29166  Biso   1.000  O
  O3       1.0000 0.43411  0.76298  0.79166  Biso   1.000  O
  O4       1.0000 0.56589  0.23702  0.79166  Biso   1.000  O
  O5       1.0000 0.06589  0.26298  0.79166  Biso   1.000  O
  O6       1.0000 0.93411  0.73702  0.79166  Biso   1.000  O
  O7       1.0000 0.93411  0.26298  0.29166  Biso   1.000  O
  O8       1.0000 0.06589  0.73702  0.29166  Biso   1.000  O
  O9       1.0000 0.55108  0.59880  0.37017  Biso   1.000  O
  O10      1.0000 0.44892  0.40120  0.37017  Biso   1.000  O
  O11      1.0000 0.44892  0.59880  0.87017  Biso   1.000  O
  O12      1.0000 0.55108  0.40120  0.87017  Biso   1.000  O
  O13      1.0000 0.05108  0.09880  0.87017  Biso   1.000  O
  O14      1.0000 0.94892  0.90120  0.87017  Biso   1.000  O
  O15      1.0000 0.94892  0.09880  0.37017  Biso   1.000  O
  O16      1.0000 0.05108  0.90120  0.37017  Biso   1.000  O
  O17      1.0000 0.56263  0.77142  0.44111  Biso   1.000  O
  O18      1.0000 0.43737  0.22858  0.44111  Biso   1.000  O
  O19      1.0000 0.43737  0.77142  0.94111  Biso   1.000  O
  O20      1.0000 0.56263  0.22858  0.94111  Biso   1.000  O
  O21      1.0000 0.06263  0.27142  0.94111  Biso   1.000  O
  O22      1.0000 0.93737  0.72858  0.94111  Biso   1.000  O
  O23      1.0000 0.93737  0.27142  0.44111  Biso   1.000  O
  O24      1.0000 0.06263  0.72858  0.44111  Biso   1.000  O
  O25      1.0000 0.68243  0.75163  0.12170  Biso   1.000  O
  O26      1.0000 0.31757  0.24837  0.12170  Biso   1.000  O
  O27      1.0000 0.31757  0.75163  0.62170  Biso   1.000  O
  O28      1.0000 0.68243  0.24837  0.62170  Biso   1.000  O
  O29      1.0000 0.18243  0.25163  0.62170  Biso   1.000  O
  O30      1.0000 0.81757  0.74837  0.62170  Biso   1.000  O
  O31      1.0000 0.81757  0.25163  0.12170  Biso   1.000  O
  O32      1.0000 0.18243  0.74837  0.12170  Biso   1.000  O
  O33      1.0000 0.68851  0.76008  0.97930  Biso   1.000  O
  O34      1.0000 0.31149  0.23992  0.97930  Biso   1.000  O
  O35      1.0000 0.31149  0.76008  0.47930  Biso   1.000  O
  O36      1.0000 0.68851  0.23992  0.47930  Biso   1.000  O
  O37      1.0000 0.18851  0.26008  0.47930  Biso   1.000  O
  O38      1.0000 0.81149  0.73992  0.47930  Biso   1.000  O
  O39      1.0000 0.81149  0.26008  0.97930  Biso   1.000  O
  O40      1.0000 0.18851  0.73992  0.97930  Biso   1.000  O
  O41      1.0000 0.69631  0.60908  0.05349  Biso   1.000  O
  O42      1.0000 0.30369  0.39092  0.05349  Biso   1.000  O
  O43      1.0000 0.30369  0.60908  0.55349  Biso   1.000  O
  O44      1.0000 0.69631  0.39092  0.55349  Biso   1.000  O
  O45      1.0000 0.19631  0.10908  0.55349  Biso   1.000  O
  O46      1.0000 0.80369  0.89092  0.55349  Biso   1.000  O
  O47      1.0000 0.80369  0.10908  0.05349  Biso   1.000  O
  O48      1.0000 0.19631  0.89092  0.05349  Biso   1.000  O
  O49      1.0000 0.69311  0.89979  0.06632  Biso   1.000  O
  O50      1.0000 0.30689  0.10021  0.06632  Biso   1.000  O
  O51      1.0000 0.30689  0.89979  0.56632  Biso   1.000  O
  O52      1.0000 0.69311  0.10021  0.56632  Biso   1.000  O
  O53      1.0000 0.19311  0.39979  0.56632  Biso   1.000  O
  O54      1.0000 0.80689  0.60021  0.56632  Biso   1.000  O
  O55      1.0000 0.80689  0.39979  0.06632  Biso   1.000  O
  O56      1.0000 0.19311  0.60021  0.06632  Biso   1.000  O
  S1       1.0000 0.54961  0.71702  0.36744  Biso   1.000  S
  S2       1.0000 0.45039  0.28298  0.36744  Biso   1.000  S
  S3       1.0000 0.45039  0.71702  0.86744  Biso   1.000  S
  S4       1.0000 0.54961  0.28298  0.86744  Biso   1.000  S
  S5       1.0000 0.04961  0.21702  0.86744  Biso   1.000  S
  S6       1.0000 0.95039  0.78298  0.86744  Biso   1.000  S
  S7       1.0000 0.95039  0.21702  0.36744  Biso   1.000  S
  S8       1.0000 0.04961  0.78298  0.36744  Biso   1.000  S
  S9       1.0000 0.69998  0.78620  0.05761  Biso   1.000  S
  S10      1.0000 0.30002  0.21380  0.05761  Biso   1.000  S
  S11      1.0000 0.30002  0.78620  0.55761  Biso   1.000  S
  S12      1.0000 0.69998  0.21380  0.55761  Biso   1.000  S
  S13      1.0000 0.19998  0.28620  0.55761  Biso   1.000  S
  S14      1.0000 0.80002  0.71380  0.55761  Biso   1.000  S
  S15      1.0000 0.80002  0.28620  0.05761  Biso   1.000  S
  S16      1.0000 0.19998  0.71380  0.05761  Biso   1.000  S
  S17      1.0000 0.70004  0.72462  0.05077  Biso   1.000  S
  S18      1.0000 0.29996  0.27538  0.05077  Biso   1.000  S
  S19      1.0000 0.29996  0.72462  0.55077  Biso   1.000  S
  S20      1.0000 0.70004  0.27538  0.55077  Biso   1.000  S
  S21      1.0000 0.20004  0.22462  0.55077  Biso   1.000  S
  S22      1.0000 0.79996  0.77538  0.55077  Biso   1.000  S
  S23      1.0000 0.79996  0.22462  0.05077  Biso   1.000  S
  S24      1.0000 0.20004  0.77538  0.05077  Biso   1.000  S
  N73      1.0000 0.83090  0.61610  0.12470  Biso   1.000  N
  N74      1.0000 0.16910  0.38390  0.12470  Biso   1.000  N
  N75      1.0000 0.16910  0.61610  0.62470  Biso   1.000  N
  N76      1.0000 0.83090  0.38390  0.62470  Biso   1.000  N
  N77      1.0000 0.33090  0.11610  0.62470  Biso   1.000  N
  N78      1.0000 0.66910  0.88390  0.62470  Biso   1.000  N
  N79      1.0000 0.66910  0.11610  0.12470  Biso   1.000  N
  N80      1.0000 0.33090  0.88390  0.12470  Biso   1.000  N
  N81      1.0000 0.83290  0.90400  0.07680  Biso   1.000  N
  N82      1.0000 0.16710  0.09600  0.07680  Biso   1.000  N
  N83      1.0000 0.16710  0.90400  0.57680  Biso   1.000  N
  N84      1.0000 0.83290  0.09600  0.57680  Biso   1.000  N
  N85      1.0000 0.33290  0.40400  0.57680  Biso   1.000  N
  N86      1.0000 0.66710  0.59600  0.57680  Biso   1.000  N
  N87      1.0000 0.66710  0.40400  0.07680  Biso   1.000  N
  N88      1.0000 0.33290  0.59600  0.07680  Biso   1.000  N
  C273     1.0000 0.85830  0.82100  0.09020  Biso   1.000  C
  C274     1.0000 0.14170  0.17900  0.09020  Biso   1.000  C
  C275     1.0000 0.14170  0.82100  0.59020  Biso   1.000  C
  C276     1.0000 0.85830  0.17900  0.59020  Biso   1.000  C
  C277     1.0000 0.35830  0.32100  0.59020  Biso   1.000  C
  C278     1.0000 0.64170  0.67900  0.59020  Biso   1.000  C
  C279     1.0000 0.64170  0.32100  0.09020  Biso   1.000  C
  C280     1.0000 0.35830  0.67900  0.09020  Biso   1.000  C
  C281     1.0000 0.85670  0.67300  0.10170  Biso   1.000  C
  C282     1.0000 0.14330  0.32700  0.10170  Biso   1.000  C
  C283     1.0000 0.14330  0.67300  0.60170  Biso   1.000  C
  C284     1.0000 0.85670  0.32700  0.60170  Biso   1.000  C
  C285     1.0000 0.35670  0.17300  0.60170  Biso   1.000  C
  C286     1.0000 0.64330  0.82700  0.60170  Biso   1.000  C
  C287     1.0000 0.64330  0.17300  0.10170  Biso   1.000  C
  C288     1.0000 0.35670  0.82700  0.10170  Biso   1.000  C
  C289     1.0000 0.54130  0.09330  0.12030  Biso   1.000  C
  C290     1.0000 0.45870  0.90670  0.12030  Biso   1.000  C
  C291     1.0000 0.45870  0.09330  0.62030  Biso   1.000  C
  C292     1.0000 0.54130  0.90670  0.62030  Biso   1.000  C
  C293     1.0000 0.04130  0.59330  0.62030  Biso   1.000  C
  C294     1.0000 0.95870  0.40670  0.62030  Biso   1.000  C
  C295     1.0000 0.95870  0.59330  0.12030  Biso   1.000  C
  C296     1.0000 0.04130  0.40670  0.12030  Biso   1.000  C
  H225     1.0000 0.54270  0.14210  0.07360  Biso   1.000  H
  H226     1.0000 0.45730  0.85790  0.07360  Biso   1.000  H
  H227     1.0000 0.45730  0.14210  0.57360  Biso   1.000  H
  H228     1.0000 0.54270  0.85790  0.57360  Biso   1.000  H
  H229     1.0000 0.04270  0.64210  0.57360  Biso   1.000  H
  H230     1.0000 0.95730  0.35790  0.57360  Biso   1.000  H
  H231     1.0000 0.95730  0.64210  0.07360  Biso   1.000  H
  H232     1.0000 0.04270  0.35790  0.07360  Biso   1.000  H
  H233     1.0000 0.54460  0.13580  0.16980  Biso   1.000  H
  H234     1.0000 0.45540  0.86420  0.16980  Biso   1.000  H
  H235     1.0000 0.45540  0.13580  0.66980  Biso   1.000  H
  H236     1.0000 0.54460  0.86420  0.66980  Biso   1.000  H
  H237     1.0000 0.04460  0.63580  0.66980  Biso   1.000  H
  H238     1.0000 0.95540  0.36420  0.66980  Biso   1.000  H
  H239     1.0000 0.95540  0.63580  0.16980  Biso   1.000  H
  H240     1.0000 0.04460  0.36420  0.16980  Biso   1.000  H
  C297     1.0000 0.50540  0.03910  0.12200  Biso   1.000  C
  C298     1.0000 0.49460  0.96090  0.12200  Biso   1.000  C
  C299     1.0000 0.49460  0.03910  0.62200  Biso   1.000  C
  C300     1.0000 0.50540  0.96090  0.62200  Biso   1.000  C
  C301     1.0000 0.00540  0.53910  0.62200  Biso   1.000  C
  C302     1.0000 0.99460  0.46090  0.62200  Biso   1.000  C
  C303     1.0000 0.99460  0.53910  0.12200  Biso   1.000  C
  C304     1.0000 0.00540  0.46090  0.12200  Biso   1.000  C
  H241     1.0000 0.49460  0.07140  0.17020  Biso   1.000  H
  H242     1.0000 0.50540  0.92860  0.17020  Biso   1.000  H
  H243     1.0000 0.50540  0.07140  0.67020  Biso   1.000  H
  H244     1.0000 0.49460  0.92860  0.67020  Biso   1.000  H
  H245     1.0000 0.99460  0.57140  0.67020  Biso   1.000  H
  H246     1.0000 0.00540  0.42860  0.67020  Biso   1.000  H
  H247     1.0000 0.00540  0.57140  0.17020  Biso   1.000  H
  H248     1.0000 0.99460  0.42860  0.17020  Biso   1.000  H
  H249     1.0000 0.49350  0.07280  0.07590  Biso   1.000  H
  H250     1.0000 0.50650  0.92720  0.07590  Biso   1.000  H
  H251     1.0000 0.50650  0.07280  0.57590  Biso   1.000  H
  H252     1.0000 0.49350  0.92720  0.57590  Biso   1.000  H
  H253     1.0000 0.99350  0.57280  0.57590  Biso   1.000  H
  H254     1.0000 0.00650  0.42720  0.57590  Biso   1.000  H
  H255     1.0000 0.00650  0.57280  0.07590  Biso   1.000  H
  H256     1.0000 0.99350  0.42720  0.07590  Biso   1.000  H
  C305     1.0000 0.50820  0.45620  0.10700  Biso   1.000  C
  C306     1.0000 0.49180  0.54380  0.10700  Biso   1.000  C
  C307     1.0000 0.49180  0.45620  0.60700  Biso   1.000  C
  C308     1.0000 0.50820  0.54380  0.60700  Biso   1.000  C
  C309     1.0000 0.00820  0.95620  0.60700  Biso   1.000  C
  C310     1.0000 0.99180  0.04380  0.60700  Biso   1.000  C
  C311     1.0000 0.99180  0.95620  0.10700  Biso   1.000  C
  C312     1.0000 0.00820  0.04380  0.10700  Biso   1.000  C
  H257     1.0000 0.49640  0.41540  0.06400  Biso   1.000  H
  H258     1.0000 0.50360  0.58460  0.06400  Biso   1.000  H
  H259     1.0000 0.50360  0.41540  0.56400  Biso   1.000  H
  H260     1.0000 0.49640  0.58460  0.56400  Biso   1.000  H
  H261     1.0000 0.99640  0.91540  0.56400  Biso   1.000  H
  H262     1.0000 0.00360  0.08460  0.56400  Biso   1.000  H
  H263     1.0000 0.00360  0.91540  0.06400  Biso   1.000  H
  H264     1.0000 0.99640  0.08460  0.06400  Biso   1.000  H
  H265     1.0000 0.50050  0.42260  0.15780  Biso   1.000  H
  H266     1.0000 0.49950  0.57740  0.15780  Biso   1.000  H
  H267     1.0000 0.49950  0.42260  0.65780  Biso   1.000  H
  H268     1.0000 0.50050  0.57740  0.65780  Biso   1.000  H
  H269     1.0000 0.00050  0.92260  0.65780  Biso   1.000  H
  H270     1.0000 0.99950  0.07740  0.65780  Biso   1.000  H
  H271     1.0000 0.99950  0.92260  0.15780  Biso   1.000  H
  H272     1.0000 0.00050  0.07740  0.15780  Biso   1.000  H
  C313     1.0000 0.54390  0.42100  0.10010  Biso   1.000  C
  C314     1.0000 0.45610  0.57900  0.10010  Biso   1.000  C
  C315     1.0000 0.45610  0.42100  0.60010  Biso   1.000  C
  C316     1.0000 0.54390  0.57900  0.60010  Biso   1.000  C
  C317     1.0000 0.04390  0.92100  0.60010  Biso   1.000  C
  C318     1.0000 0.95610  0.07900  0.60010  Biso   1.000  C
  C319     1.0000 0.95610  0.92100  0.10010  Biso   1.000  C
  C320     1.0000 0.04390  0.07900  0.10010  Biso   1.000  C
  H273     1.0000 0.54610  0.37780  0.05070  Biso   1.000  H
  H274     1.0000 0.45390  0.62220  0.05070  Biso   1.000  H
  H275     1.0000 0.45390  0.37780  0.55070  Biso   1.000  H
  H276     1.0000 0.54610  0.62220  0.55070  Biso   1.000  H
  H277     1.0000 0.04610  0.87780  0.55070  Biso   1.000  H
  H278     1.0000 0.95390  0.12220  0.55070  Biso   1.000  H
  H279     1.0000 0.95390  0.87780  0.05070  Biso   1.000  H
  H280     1.0000 0.04610  0.12220  0.05070  Biso   1.000  H
  H281     1.0000 0.54910  0.37380  0.14630  Biso   1.000  H
  H282     1.0000 0.45090  0.62620  0.14630  Biso   1.000  H
  H283     1.0000 0.45090  0.37380  0.64630  Biso   1.000  H
  H284     1.0000 0.54910  0.62620  0.64630  Biso   1.000  H
  H285     1.0000 0.04910  0.87380  0.64630  Biso   1.000  H
  H286     1.0000 0.95090  0.12620  0.64630  Biso   1.000  H
  H287     1.0000 0.95090  0.87380  0.14630  Biso   1.000  H
  H288     1.0000 0.04910  0.12620  0.14630  Biso   1.000  H
