data_image0
_cell_length_a       26.9464
_cell_length_b       26.9464
_cell_length_c       26.9464
_cell_angle_alpha    90
_cell_angle_beta     90
_cell_angle_gamma    90

_symmetry_space_group_name_H-M    "P 1"
_symmetry_int_tables_number       1

loop_
  _symmetry_equiv_pos_as_xyz
  'x, y, z'

loop_
  _atom_site_label
  _atom_site_occupancy
  _atom_site_fract_x
  _atom_site_fract_y
  _atom_site_fract_z
  _atom_site_thermal_displace_type
  _atom_site_B_iso_or_equiv
  _atom_site_type_symbol
  O1       1.0000 0.27690  0.00000  0.10300  Biso   1.000  O
  O2       1.0000 0.10300  0.27690  0.00000  Biso   1.000  O
  O3       1.0000 0.00000  0.10300  0.27690  Biso   1.000  O
  O4       1.0000 0.77690  0.50000  0.60300  Biso   1.000  O
  O5       1.0000 0.60300  0.77690  0.50000  Biso   1.000  O
  O6       1.0000 0.50000  0.60300  0.77690  Biso   1.000  O
  O7       1.0000 0.72310  0.00000  0.10300  Biso   1.000  O
  O8       1.0000 0.72310  0.00000  0.89700  Biso   1.000  O
  O9       1.0000 0.27690  0.00000  0.89700  Biso   1.000  O
  O10      1.0000 0.10300  0.72310  0.00000  Biso   1.000  O
  O11      1.0000 0.89700  0.72310  0.00000  Biso   1.000  O
  O12      1.0000 0.89700  0.27690  0.00000  Biso   1.000  O
  O13      1.0000 0.00000  0.10300  0.72310  Biso   1.000  O
  O14      1.0000 0.00000  0.89700  0.72310  Biso   1.000  O
  O15      1.0000 0.00000  0.89700  0.27690  Biso   1.000  O
  O16      1.0000 0.22310  0.50000  0.60300  Biso   1.000  O
  O17      1.0000 0.22310  0.50000  0.39700  Biso   1.000  O
  O18      1.0000 0.77690  0.50000  0.39700  Biso   1.000  O
  O19      1.0000 0.60300  0.22310  0.50000  Biso   1.000  O
  O20      1.0000 0.39700  0.22310  0.50000  Biso   1.000  O
  O21      1.0000 0.39700  0.77690  0.50000  Biso   1.000  O
  O22      1.0000 0.50000  0.60300  0.22310  Biso   1.000  O
  O23      1.0000 0.50000  0.39700  0.22310  Biso   1.000  O
  O24      1.0000 0.50000  0.39700  0.77690  Biso   1.000  O
  O25      1.0000 0.33100  0.19100  0.00000  Biso   1.000  O
  O26      1.0000 0.00000  0.33100  0.19100  Biso   1.000  O
  O27      1.0000 0.19100  0.00000  0.33100  Biso   1.000  O
  O28      1.0000 0.83100  0.69100  0.50000  Biso   1.000  O
  O29      1.0000 0.50000  0.83100  0.69100  Biso   1.000  O
  O30      1.0000 0.69100  0.50000  0.83100  Biso   1.000  O
  O31      1.0000 0.66900  0.80900  0.00000  Biso   1.000  O
  O32      1.0000 0.66900  0.19100  0.00000  Biso   1.000  O
  O33      1.0000 0.33100  0.80900  0.00000  Biso   1.000  O
  O34      1.0000 0.00000  0.66900  0.80900  Biso   1.000  O
  O35      1.0000 0.00000  0.66900  0.19100  Biso   1.000  O
  O36      1.0000 0.00000  0.33100  0.80900  Biso   1.000  O
  O37      1.0000 0.80900  0.00000  0.66900  Biso   1.000  O
  O38      1.0000 0.19100  0.00000  0.66900  Biso   1.000  O
  O39      1.0000 0.80900  0.00000  0.33100  Biso   1.000  O
  O40      1.0000 0.16900  0.30900  0.50000  Biso   1.000  O
  O41      1.0000 0.16900  0.69100  0.50000  Biso   1.000  O
  O42      1.0000 0.83100  0.30900  0.50000  Biso   1.000  O
  O43      1.0000 0.50000  0.16900  0.30900  Biso   1.000  O
  O44      1.0000 0.50000  0.16900  0.69100  Biso   1.000  O
  O45      1.0000 0.50000  0.83100  0.30900  Biso   1.000  O
  O46      1.0000 0.30900  0.50000  0.16900  Biso   1.000  O
  O47      1.0000 0.69100  0.50000  0.16900  Biso   1.000  O
  O48      1.0000 0.30900  0.50000  0.83100  Biso   1.000  O
  O49      1.0000 0.32050  0.31600  0.00000  Biso   1.000  O
  O50      1.0000 0.00000  0.32050  0.31600  Biso   1.000  O
  O51      1.0000 0.31600  0.00000  0.32050  Biso   1.000  O
  O52      1.0000 0.82050  0.81600  0.50000  Biso   1.000  O
  O53      1.0000 0.50000  0.82050  0.81600  Biso   1.000  O
  O54      1.0000 0.81600  0.50000  0.82050  Biso   1.000  O
  O55      1.0000 0.67950  0.68400  0.00000  Biso   1.000  O
  O56      1.0000 0.67950  0.31600  0.00000  Biso   1.000  O
  O57      1.0000 0.32050  0.68400  0.00000  Biso   1.000  O
  O58      1.0000 0.00000  0.67950  0.68400  Biso   1.000  O
  O59      1.0000 0.00000  0.67950  0.31600  Biso   1.000  O
  O60      1.0000 0.00000  0.32050  0.68400  Biso   1.000  O
  O61      1.0000 0.68400  0.00000  0.67950  Biso   1.000  O
  O62      1.0000 0.31600  0.00000  0.67950  Biso   1.000  O
  O63      1.0000 0.68400  0.00000  0.32050  Biso   1.000  O
  O64      1.0000 0.17950  0.18400  0.50000  Biso   1.000  O
  O65      1.0000 0.17950  0.81600  0.50000  Biso   1.000  O
  O66      1.0000 0.82050  0.18400  0.50000  Biso   1.000  O
  O67      1.0000 0.50000  0.17950  0.18400  Biso   1.000  O
  O68      1.0000 0.50000  0.17950  0.81600  Biso   1.000  O
  O69      1.0000 0.50000  0.82050  0.18400  Biso   1.000  O
  O70      1.0000 0.18400  0.50000  0.17950  Biso   1.000  O
  O71      1.0000 0.81600  0.50000  0.17950  Biso   1.000  O
  O72      1.0000 0.18400  0.50000  0.82050  Biso   1.000  O
  O73      1.0000 0.23000  0.00000  0.17700  Biso   1.000  O
  O74      1.0000 0.17700  0.23000  0.00000  Biso   1.000  O
  O75      1.0000 0.00000  0.17700  0.23000  Biso   1.000  O
  O76      1.0000 0.73000  0.50000  0.67700  Biso   1.000  O
  O77      1.0000 0.67700  0.73000  0.50000  Biso   1.000  O
  O78      1.0000 0.50000  0.67700  0.73000  Biso   1.000  O
  O79      1.0000 0.77000  0.00000  0.17700  Biso   1.000  O
  O80      1.0000 0.77000  0.00000  0.82300  Biso   1.000  O
  O81      1.0000 0.23000  0.00000  0.82300  Biso   1.000  O
  O82      1.0000 0.17700  0.77000  0.00000  Biso   1.000  O
  O83      1.0000 0.82300  0.77000  0.00000  Biso   1.000  O
  O84      1.0000 0.82300  0.23000  0.00000  Biso   1.000  O
  O85      1.0000 0.00000  0.17700  0.77000  Biso   1.000  O
  O86      1.0000 0.00000  0.82300  0.77000  Biso   1.000  O
  O87      1.0000 0.00000  0.82300  0.23000  Biso   1.000  O
  O88      1.0000 0.27000  0.50000  0.67700  Biso   1.000  O
  O89      1.0000 0.27000  0.50000  0.32300  Biso   1.000  O
  O90      1.0000 0.73000  0.50000  0.32300  Biso   1.000  O
  O91      1.0000 0.67700  0.27000  0.50000  Biso   1.000  O
  O92      1.0000 0.32300  0.27000  0.50000  Biso   1.000  O
  O93      1.0000 0.32300  0.73000  0.50000  Biso   1.000  O
  O94      1.0000 0.50000  0.67700  0.27000  Biso   1.000  O
  O95      1.0000 0.50000  0.32300  0.27000  Biso   1.000  O
  O96      1.0000 0.50000  0.32300  0.73000  Biso   1.000  O
  O97      1.0000 0.26400  0.15700  0.00000  Biso   1.000  O
  O98      1.0000 0.00000  0.26400  0.15700  Biso   1.000  O
  O99      1.0000 0.15700  0.00000  0.26400  Biso   1.000  O
  O100     1.0000 0.76400  0.65700  0.50000  Biso   1.000  O
  O101     1.0000 0.50000  0.76400  0.65700  Biso   1.000  O
  O102     1.0000 0.65700  0.50000  0.76400  Biso   1.000  O
  O103     1.0000 0.73600  0.84300  0.00000  Biso   1.000  O
  O104     1.0000 0.73600  0.15700  0.00000  Biso   1.000  O
  O105     1.0000 0.26400  0.84300  0.00000  Biso   1.000  O
  O106     1.0000 0.00000  0.73600  0.84300  Biso   1.000  O
  O107     1.0000 0.00000  0.73600  0.15700  Biso   1.000  O
  O108     1.0000 0.00000  0.26400  0.84300  Biso   1.000  O
  O109     1.0000 0.84300  0.00000  0.73600  Biso   1.000  O
  O110     1.0000 0.15700  0.00000  0.73600  Biso   1.000  O
  O111     1.0000 0.84300  0.00000  0.26400  Biso   1.000  O
  O112     1.0000 0.23600  0.34300  0.50000  Biso   1.000  O
  O113     1.0000 0.23600  0.65700  0.50000  Biso   1.000  O
  O114     1.0000 0.76400  0.34300  0.50000  Biso   1.000  O
  O115     1.0000 0.50000  0.23600  0.34300  Biso   1.000  O
  O116     1.0000 0.50000  0.23600  0.65700  Biso   1.000  O
  O117     1.0000 0.50000  0.76400  0.34300  Biso   1.000  O
  O118     1.0000 0.34300  0.50000  0.23600  Biso   1.000  O
  O119     1.0000 0.65700  0.50000  0.23600  Biso   1.000  O
  O120     1.0000 0.34300  0.50000  0.76400  Biso   1.000  O
  O121     1.0000 0.35100  0.00000  0.04800  Biso   1.000  O
  O122     1.0000 0.04800  0.35100  0.00000  Biso   1.000  O
  O123     1.0000 0.00000  0.04800  0.35100  Biso   1.000  O
  O124     1.0000 0.85100  0.50000  0.54800  Biso   1.000  O
  O125     1.0000 0.54800  0.85100  0.50000  Biso   1.000  O
  O126     1.0000 0.50000  0.54800  0.85100  Biso   1.000  O
  O127     1.0000 0.64900  0.00000  0.04800  Biso   1.000  O
  O128     1.0000 0.64900  0.00000  0.95200  Biso   1.000  O
  O129     1.0000 0.35100  0.00000  0.95200  Biso   1.000  O
  O130     1.0000 0.04800  0.64900  0.00000  Biso   1.000  O
  O131     1.0000 0.95200  0.64900  0.00000  Biso   1.000  O
  O132     1.0000 0.95200  0.35100  0.00000  Biso   1.000  O
  O133     1.0000 0.00000  0.04800  0.64900  Biso   1.000  O
  O134     1.0000 0.00000  0.95200  0.64900  Biso   1.000  O
  O135     1.0000 0.00000  0.95200  0.35100  Biso   1.000  O
  O136     1.0000 0.14900  0.50000  0.54800  Biso   1.000  O
  O137     1.0000 0.14900  0.50000  0.45200  Biso   1.000  O
  O138     1.0000 0.85100  0.50000  0.45200  Biso   1.000  O
  O139     1.0000 0.54800  0.14900  0.50000  Biso   1.000  O
  O140     1.0000 0.45200  0.14900  0.50000  Biso   1.000  O
  O141     1.0000 0.45200  0.85100  0.50000  Biso   1.000  O
  O142     1.0000 0.50000  0.54800  0.14900  Biso   1.000  O
  O143     1.0000 0.50000  0.45200  0.14900  Biso   1.000  O
  O144     1.0000 0.50000  0.45200  0.85100  Biso   1.000  O
  O145     1.0000 0.28700  0.09200  0.00000  Biso   1.000  O
  O146     1.0000 0.00000  0.28700  0.09200  Biso   1.000  O
  O147     1.0000 0.09200  0.00000  0.28700  Biso   1.000  O
  O148     1.0000 0.78700  0.59200  0.50000  Biso   1.000  O
  O149     1.0000 0.50000  0.78700  0.59200  Biso   1.000  O
  O150     1.0000 0.59200  0.50000  0.78700  Biso   1.000  O
  O151     1.0000 0.71300  0.90800  0.00000  Biso   1.000  O
  O152     1.0000 0.71300  0.09200  0.00000  Biso   1.000  O
  O153     1.0000 0.28700  0.90800  0.00000  Biso   1.000  O
  O154     1.0000 0.00000  0.71300  0.90800  Biso   1.000  O
  O155     1.0000 0.00000  0.71300  0.09200  Biso   1.000  O
  O156     1.0000 0.00000  0.28700  0.90800  Biso   1.000  O
  O157     1.0000 0.90800  0.00000  0.71300  Biso   1.000  O
  O158     1.0000 0.09200  0.00000  0.71300  Biso   1.000  O
  O159     1.0000 0.90800  0.00000  0.28700  Biso   1.000  O
  O160     1.0000 0.21300  0.40800  0.50000  Biso   1.000  O
  O161     1.0000 0.21300  0.59200  0.50000  Biso   1.000  O
  O162     1.0000 0.78700  0.40800  0.50000  Biso   1.000  O
  O163     1.0000 0.50000  0.21300  0.40800  Biso   1.000  O
  O164     1.0000 0.50000  0.21300  0.59200  Biso   1.000  O
  O165     1.0000 0.50000  0.78700  0.40800  Biso   1.000  O
  O166     1.0000 0.40800  0.50000  0.21300  Biso   1.000  O
  O167     1.0000 0.59200  0.50000  0.21300  Biso   1.000  O
  O168     1.0000 0.40800  0.50000  0.78700  Biso   1.000  O
  O169     1.0000 0.12790  0.12790  0.12790  Biso   1.000  O
  O170     1.0000 0.62790  0.62790  0.62790  Biso   1.000  O
  O171     1.0000 0.87210  0.87210  0.12790  Biso   1.000  O
  O172     1.0000 0.87210  0.12790  0.87210  Biso   1.000  O
  O173     1.0000 0.12790  0.87210  0.87210  Biso   1.000  O
  O174     1.0000 0.37210  0.37210  0.62790  Biso   1.000  O
  O175     1.0000 0.37210  0.62790  0.37210  Biso   1.000  O
  O176     1.0000 0.62790  0.37210  0.37210  Biso   1.000  O
  O177     1.0000 0.87210  0.87210  0.87210  Biso   1.000  O
  O178     1.0000 0.37210  0.37210  0.37210  Biso   1.000  O
  O179     1.0000 0.12790  0.12790  0.87210  Biso   1.000  O
  O180     1.0000 0.12790  0.87210  0.12790  Biso   1.000  O
  O181     1.0000 0.87210  0.12790  0.12790  Biso   1.000  O
  O182     1.0000 0.62790  0.62790  0.37210  Biso   1.000  O
  O183     1.0000 0.62790  0.37210  0.62790  Biso   1.000  O
  O184     1.0000 0.37210  0.62790  0.62790  Biso   1.000  O
  O185     1.0000 0.43200  0.12400  0.00000  Biso   1.000  O
  O186     1.0000 0.00000  0.43200  0.12400  Biso   1.000  O
  O187     1.0000 0.12400  0.00000  0.43200  Biso   1.000  O
  O188     1.0000 0.93200  0.62400  0.50000  Biso   1.000  O
  O189     1.0000 0.50000  0.93200  0.62400  Biso   1.000  O
  O190     1.0000 0.62400  0.50000  0.93200  Biso   1.000  O
  O191     1.0000 0.56800  0.87600  0.00000  Biso   1.000  O
  O192     1.0000 0.56800  0.12400  0.00000  Biso   1.000  O
  O193     1.0000 0.43200  0.87600  0.00000  Biso   1.000  O
  O194     1.0000 0.00000  0.56800  0.87600  Biso   1.000  O
  O195     1.0000 0.00000  0.56800  0.12400  Biso   1.000  O
  O196     1.0000 0.00000  0.43200  0.87600  Biso   1.000  O
  O197     1.0000 0.87600  0.00000  0.56800  Biso   1.000  O
  O198     1.0000 0.12400  0.00000  0.56800  Biso   1.000  O
  O199     1.0000 0.87600  0.00000  0.43200  Biso   1.000  O
  O200     1.0000 0.06800  0.37600  0.50000  Biso   1.000  O
  O201     1.0000 0.06800  0.62400  0.50000  Biso   1.000  O
  O202     1.0000 0.93200  0.37600  0.50000  Biso   1.000  O
  O203     1.0000 0.50000  0.06800  0.37600  Biso   1.000  O
  O204     1.0000 0.50000  0.06800  0.62400  Biso   1.000  O
  O205     1.0000 0.50000  0.93200  0.37600  Biso   1.000  O
  O206     1.0000 0.37600  0.50000  0.06800  Biso   1.000  O
  O207     1.0000 0.62400  0.50000  0.06800  Biso   1.000  O
  O208     1.0000 0.37600  0.50000  0.93200  Biso   1.000  O
  O209     1.0000 0.26600  0.00000  0.23800  Biso   1.000  O
  O210     1.0000 0.23800  0.26600  0.00000  Biso   1.000  O
  O211     1.0000 0.00000  0.23800  0.26600  Biso   1.000  O
  O212     1.0000 0.76600  0.50000  0.73800  Biso   1.000  O
  O213     1.0000 0.73800  0.76600  0.50000  Biso   1.000  O
  O214     1.0000 0.50000  0.73800  0.76600  Biso   1.000  O
  O215     1.0000 0.73400  0.00000  0.23800  Biso   1.000  O
  O216     1.0000 0.73400  0.00000  0.76200  Biso   1.000  O
  O217     1.0000 0.26600  0.00000  0.76200  Biso   1.000  O
  O218     1.0000 0.23800  0.73400  0.00000  Biso   1.000  O
  O219     1.0000 0.76200  0.73400  0.00000  Biso   1.000  O
  O220     1.0000 0.76200  0.26600  0.00000  Biso   1.000  O
  O221     1.0000 0.00000  0.23800  0.73400  Biso   1.000  O
  O222     1.0000 0.00000  0.76200  0.73400  Biso   1.000  O
  O223     1.0000 0.00000  0.76200  0.26600  Biso   1.000  O
  O224     1.0000 0.23400  0.50000  0.73800  Biso   1.000  O
  O225     1.0000 0.23400  0.50000  0.26200  Biso   1.000  O
  O226     1.0000 0.76600  0.50000  0.26200  Biso   1.000  O
  O227     1.0000 0.73800  0.23400  0.50000  Biso   1.000  O
  O228     1.0000 0.26200  0.23400  0.50000  Biso   1.000  O
  O229     1.0000 0.26200  0.76600  0.50000  Biso   1.000  O
  O230     1.0000 0.50000  0.73800  0.23400  Biso   1.000  O
  O231     1.0000 0.50000  0.26200  0.23400  Biso   1.000  O
  O232     1.0000 0.50000  0.26200  0.76600  Biso   1.000  O
  Cu1      1.0000 0.14219  0.50000  0.00000  Biso   1.000  Cu
  Cu2      1.0000 0.00000  0.14219  0.50000  Biso   1.000  Cu
  Cu3      1.0000 0.50000  0.00000  0.14219  Biso   1.000  Cu
  Cu4      1.0000 0.64219  0.00000  0.50000  Biso   1.000  Cu
  Cu5      1.0000 0.50000  0.64219  0.00000  Biso   1.000  Cu
  Cu6      1.0000 0.00000  0.50000  0.64219  Biso   1.000  Cu
  Cu7      1.0000 0.85781  0.50000  0.00000  Biso   1.000  Cu
  Cu8      1.0000 0.00000  0.85781  0.50000  Biso   1.000  Cu
  Cu9      1.0000 0.50000  0.00000  0.85781  Biso   1.000  Cu
  Cu10     1.0000 0.35781  0.00000  0.50000  Biso   1.000  Cu
  Cu11     1.0000 0.50000  0.35781  0.00000  Biso   1.000  Cu
  Cu12     1.0000 0.00000  0.50000  0.35781  Biso   1.000  Cu
  Cu13     1.0000 0.24015  0.50000  0.00000  Biso   1.000  Cu
  Cu14     1.0000 0.00000  0.24015  0.50000  Biso   1.000  Cu
  Cu15     1.0000 0.50000  0.00000  0.24015  Biso   1.000  Cu
  Cu16     1.0000 0.74015  0.00000  0.50000  Biso   1.000  Cu
  Cu17     1.0000 0.50000  0.74015  0.00000  Biso   1.000  Cu
  Cu18     1.0000 0.00000  0.50000  0.74015  Biso   1.000  Cu
  Cu19     1.0000 0.75985  0.50000  0.00000  Biso   1.000  Cu
  Cu20     1.0000 0.00000  0.75985  0.50000  Biso   1.000  Cu
  Cu21     1.0000 0.50000  0.00000  0.75985  Biso   1.000  Cu
  Cu22     1.0000 0.25985  0.00000  0.50000  Biso   1.000  Cu
  Cu23     1.0000 0.50000  0.25985  0.00000  Biso   1.000  Cu
  Cu24     1.0000 0.00000  0.50000  0.25985  Biso   1.000  Cu
  O233     1.0000 0.06370  0.50000  0.01120  Biso   1.000  O
  O234     1.0000 0.01120  0.06370  0.50000  Biso   1.000  O
  O235     1.0000 0.50000  0.01120  0.06370  Biso   1.000  O
  O236     1.0000 0.56370  0.00000  0.51120  Biso   1.000  O
  O237     1.0000 0.51120  0.56370  0.00000  Biso   1.000  O
  O238     1.0000 0.00000  0.51120  0.56370  Biso   1.000  O
  O239     1.0000 0.93630  0.50000  0.01120  Biso   1.000  O
  O240     1.0000 0.93630  0.50000  0.98880  Biso   1.000  O
  O241     1.0000 0.06370  0.50000  0.98880  Biso   1.000  O
  O242     1.0000 0.01120  0.93630  0.50000  Biso   1.000  O
  O243     1.0000 0.98880  0.93630  0.50000  Biso   1.000  O
  O244     1.0000 0.98880  0.06370  0.50000  Biso   1.000  O
  O245     1.0000 0.50000  0.01120  0.93630  Biso   1.000  O
  O246     1.0000 0.50000  0.98880  0.93630  Biso   1.000  O
  O247     1.0000 0.50000  0.98880  0.06370  Biso   1.000  O
  O248     1.0000 0.43630  0.00000  0.51120  Biso   1.000  O
  O249     1.0000 0.43630  0.00000  0.48880  Biso   1.000  O
  O250     1.0000 0.56370  0.00000  0.48880  Biso   1.000  O
  O251     1.0000 0.51120  0.43630  0.00000  Biso   1.000  O
  O252     1.0000 0.48880  0.43630  0.00000  Biso   1.000  O
  O253     1.0000 0.48880  0.56370  0.00000  Biso   1.000  O
  O254     1.0000 0.00000  0.51120  0.43630  Biso   1.000  O
  O255     1.0000 0.00000  0.48880  0.43630  Biso   1.000  O
  O256     1.0000 0.00000  0.48880  0.56370  Biso   1.000  O
  O257     1.0000 0.32010  0.50000  0.00000  Biso   1.000  O
  O258     1.0000 0.00000  0.32010  0.50000  Biso   1.000  O
  O259     1.0000 0.50000  0.00000  0.32010  Biso   1.000  O
  O260     1.0000 0.82010  0.00000  0.50000  Biso   1.000  O
  O261     1.0000 0.50000  0.82010  0.00000  Biso   1.000  O
  O262     1.0000 0.00000  0.50000  0.82010  Biso   1.000  O
  O263     1.0000 0.67990  0.50000  0.00000  Biso   1.000  O
  O264     1.0000 0.00000  0.67990  0.50000  Biso   1.000  O
  O265     1.0000 0.50000  0.00000  0.67990  Biso   1.000  O
  O266     1.0000 0.17990  0.00000  0.50000  Biso   1.000  O
  O267     1.0000 0.50000  0.17990  0.00000  Biso   1.000  O
  O268     1.0000 0.00000  0.50000  0.17990  Biso   1.000  O
  O269     1.0000 0.15001  0.44765  0.05083  Biso   1.000  O
  O270     1.0000 0.05083  0.15001  0.44765  Biso   1.000  O
  O271     1.0000 0.44765  0.05083  0.15001  Biso   1.000  O
  O272     1.0000 0.65001  0.94765  0.55083  Biso   1.000  O
  O273     1.0000 0.55083  0.65001  0.94765  Biso   1.000  O
  O274     1.0000 0.94765  0.55083  0.65001  Biso   1.000  O
  O275     1.0000 0.84999  0.55235  0.05083  Biso   1.000  O
  O276     1.0000 0.84999  0.44765  0.94917  Biso   1.000  O
  O277     1.0000 0.15001  0.55235  0.94917  Biso   1.000  O
  O278     1.0000 0.05083  0.84999  0.55235  Biso   1.000  O
  O279     1.0000 0.94917  0.84999  0.44765  Biso   1.000  O
  O280     1.0000 0.94917  0.15001  0.55235  Biso   1.000  O
  O281     1.0000 0.55235  0.05083  0.84999  Biso   1.000  O
  O282     1.0000 0.44765  0.94917  0.84999  Biso   1.000  O
  O283     1.0000 0.55235  0.94917  0.15001  Biso   1.000  O
  O284     1.0000 0.34999  0.05235  0.55083  Biso   1.000  O
  O285     1.0000 0.34999  0.94765  0.44917  Biso   1.000  O
  O286     1.0000 0.65001  0.05235  0.44917  Biso   1.000  O
  O287     1.0000 0.55083  0.34999  0.05235  Biso   1.000  O
  O288     1.0000 0.44917  0.34999  0.94765  Biso   1.000  O
  O289     1.0000 0.44917  0.65001  0.05235  Biso   1.000  O
  O290     1.0000 0.05235  0.55083  0.34999  Biso   1.000  O
  O291     1.0000 0.94765  0.44917  0.34999  Biso   1.000  O
  O292     1.0000 0.05235  0.44917  0.65001  Biso   1.000  O
  O293     1.0000 0.84999  0.55235  0.94917  Biso   1.000  O
  O294     1.0000 0.94917  0.84999  0.55235  Biso   1.000  O
  O295     1.0000 0.55235  0.94917  0.84999  Biso   1.000  O
  O296     1.0000 0.34999  0.05235  0.44917  Biso   1.000  O
  O297     1.0000 0.44917  0.34999  0.05235  Biso   1.000  O
  O298     1.0000 0.05235  0.44917  0.34999  Biso   1.000  O
  O299     1.0000 0.15001  0.44765  0.94917  Biso   1.000  O
  O300     1.0000 0.15001  0.55235  0.05083  Biso   1.000  O
  O301     1.0000 0.84999  0.44765  0.05083  Biso   1.000  O
  O302     1.0000 0.94917  0.15001  0.44765  Biso   1.000  O
  O303     1.0000 0.05083  0.15001  0.55235  Biso   1.000  O
  O304     1.0000 0.05083  0.84999  0.44765  Biso   1.000  O
  O305     1.0000 0.44765  0.94917  0.15001  Biso   1.000  O
  O306     1.0000 0.55235  0.05083  0.15001  Biso   1.000  O
  O307     1.0000 0.44765  0.05083  0.84999  Biso   1.000  O
  O308     1.0000 0.65001  0.94765  0.44917  Biso   1.000  O
  O309     1.0000 0.65001  0.05235  0.55083  Biso   1.000  O
  O310     1.0000 0.34999  0.94765  0.55083  Biso   1.000  O
  O311     1.0000 0.44917  0.65001  0.94765  Biso   1.000  O
  O312     1.0000 0.55083  0.65001  0.05235  Biso   1.000  O
  O313     1.0000 0.55083  0.34999  0.94765  Biso   1.000  O
  O314     1.0000 0.94765  0.44917  0.65001  Biso   1.000  O
  O315     1.0000 0.05235  0.55083  0.65001  Biso   1.000  O
  O316     1.0000 0.94765  0.55083  0.34999  Biso   1.000  O
  O317     1.0000 0.23263  0.44878  0.05010  Biso   1.000  O
  O318     1.0000 0.05010  0.23263  0.44878  Biso   1.000  O
  O319     1.0000 0.44878  0.05010  0.23263  Biso   1.000  O
  O320     1.0000 0.73263  0.94878  0.55010  Biso   1.000  O
  O321     1.0000 0.55010  0.73263  0.94878  Biso   1.000  O
  O322     1.0000 0.94878  0.55010  0.73263  Biso   1.000  O
  O323     1.0000 0.76737  0.55122  0.05010  Biso   1.000  O
  O324     1.0000 0.76737  0.44878  0.94990  Biso   1.000  O
  O325     1.0000 0.23263  0.55122  0.94990  Biso   1.000  O
  O326     1.0000 0.05010  0.76737  0.55122  Biso   1.000  O
  O327     1.0000 0.94990  0.76737  0.44878  Biso   1.000  O
  O328     1.0000 0.94990  0.23263  0.55122  Biso   1.000  O
  O329     1.0000 0.55122  0.05010  0.76737  Biso   1.000  O
  O330     1.0000 0.44878  0.94990  0.76737  Biso   1.000  O
  O331     1.0000 0.55122  0.94990  0.23263  Biso   1.000  O
  O332     1.0000 0.26737  0.05122  0.55010  Biso   1.000  O
  O333     1.0000 0.26737  0.94878  0.44990  Biso   1.000  O
  O334     1.0000 0.73263  0.05122  0.44990  Biso   1.000  O
  O335     1.0000 0.55010  0.26737  0.05122  Biso   1.000  O
  O336     1.0000 0.44990  0.26737  0.94878  Biso   1.000  O
  O337     1.0000 0.44990  0.73263  0.05122  Biso   1.000  O
  O338     1.0000 0.05122  0.55010  0.26737  Biso   1.000  O
  O339     1.0000 0.94878  0.44990  0.26737  Biso   1.000  O
  O340     1.0000 0.05122  0.44990  0.73263  Biso   1.000  O
  O341     1.0000 0.76737  0.55122  0.94990  Biso   1.000  O
  O342     1.0000 0.94990  0.76737  0.55122  Biso   1.000  O
  O343     1.0000 0.55122  0.94990  0.76737  Biso   1.000  O
  O344     1.0000 0.26737  0.05122  0.44990  Biso   1.000  O
  O345     1.0000 0.44990  0.26737  0.05122  Biso   1.000  O
  O346     1.0000 0.05122  0.44990  0.26737  Biso   1.000  O
  O347     1.0000 0.23263  0.44878  0.94990  Biso   1.000  O
  O348     1.0000 0.23263  0.55122  0.05010  Biso   1.000  O
  O349     1.0000 0.76737  0.44878  0.05010  Biso   1.000  O
  O350     1.0000 0.94990  0.23263  0.44878  Biso   1.000  O
  O351     1.0000 0.05010  0.23263  0.55122  Biso   1.000  O
  O352     1.0000 0.05010  0.76737  0.44878  Biso   1.000  O
  O353     1.0000 0.44878  0.94990  0.23263  Biso   1.000  O
  O354     1.0000 0.55122  0.05010  0.23263  Biso   1.000  O
  O355     1.0000 0.44878  0.05010  0.76737  Biso   1.000  O
  O356     1.0000 0.73263  0.94878  0.44990  Biso   1.000  O
  O357     1.0000 0.73263  0.05122  0.55010  Biso   1.000  O
  O358     1.0000 0.26737  0.94878  0.55010  Biso   1.000  O
  O359     1.0000 0.44990  0.73263  0.94878  Biso   1.000  O
  O360     1.0000 0.55010  0.73263  0.05122  Biso   1.000  O
  O361     1.0000 0.55010  0.26737  0.94878  Biso   1.000  O
  O362     1.0000 0.94878  0.44990  0.73263  Biso   1.000  O
  O363     1.0000 0.05122  0.55010  0.73263  Biso   1.000  O
  O364     1.0000 0.94878  0.55010  0.26737  Biso   1.000  O
  C1       1.0000 0.19240  0.43060  0.06250  Biso   1.000  C
  C2       1.0000 0.06250  0.19240  0.43060  Biso   1.000  C
  C3       1.0000 0.43060  0.06250  0.19240  Biso   1.000  C
  C4       1.0000 0.69240  0.93060  0.56250  Biso   1.000  C
  C5       1.0000 0.56250  0.69240  0.93060  Biso   1.000  C
  C6       1.0000 0.93060  0.56250  0.69240  Biso   1.000  C
  C7       1.0000 0.80760  0.56940  0.06250  Biso   1.000  C
  C8       1.0000 0.80760  0.43060  0.93750  Biso   1.000  C
  C9       1.0000 0.19240  0.56940  0.93750  Biso   1.000  C
  C10      1.0000 0.06250  0.80760  0.56940  Biso   1.000  C
  C11      1.0000 0.93750  0.80760  0.43060  Biso   1.000  C
  C12      1.0000 0.93750  0.19240  0.56940  Biso   1.000  C
  C13      1.0000 0.56940  0.06250  0.80760  Biso   1.000  C
  C14      1.0000 0.43060  0.93750  0.80760  Biso   1.000  C
  C15      1.0000 0.56940  0.93750  0.19240  Biso   1.000  C
  C16      1.0000 0.30760  0.06940  0.56250  Biso   1.000  C
  C17      1.0000 0.30760  0.93060  0.43750  Biso   1.000  C
  C18      1.0000 0.69240  0.06940  0.43750  Biso   1.000  C
  C19      1.0000 0.56250  0.30760  0.06940  Biso   1.000  C
  C20      1.0000 0.43750  0.30760  0.93060  Biso   1.000  C
  C21      1.0000 0.43750  0.69240  0.06940  Biso   1.000  C
  C22      1.0000 0.06940  0.56250  0.30760  Biso   1.000  C
  C23      1.0000 0.93060  0.43750  0.30760  Biso   1.000  C
  C24      1.0000 0.06940  0.43750  0.69240  Biso   1.000  C
  C25      1.0000 0.80760  0.56940  0.93750  Biso   1.000  C
  C26      1.0000 0.93750  0.80760  0.56940  Biso   1.000  C
  C27      1.0000 0.56940  0.93750  0.80760  Biso   1.000  C
  C28      1.0000 0.30760  0.06940  0.43750  Biso   1.000  C
  C29      1.0000 0.43750  0.30760  0.06940  Biso   1.000  C
  C30      1.0000 0.06940  0.43750  0.30760  Biso   1.000  C
  C31      1.0000 0.19240  0.43060  0.93750  Biso   1.000  C
  C32      1.0000 0.19240  0.56940  0.06250  Biso   1.000  C
  C33      1.0000 0.80760  0.43060  0.06250  Biso   1.000  C
  C34      1.0000 0.93750  0.19240  0.43060  Biso   1.000  C
  C35      1.0000 0.06250  0.19240  0.56940  Biso   1.000  C
  C36      1.0000 0.06250  0.80760  0.43060  Biso   1.000  C
  C37      1.0000 0.43060  0.93750  0.19240  Biso   1.000  C
  C38      1.0000 0.56940  0.06250  0.19240  Biso   1.000  C
  C39      1.0000 0.43060  0.06250  0.80760  Biso   1.000  C
  C40      1.0000 0.69240  0.93060  0.43750  Biso   1.000  C
  C41      1.0000 0.69240  0.06940  0.56250  Biso   1.000  C
  C42      1.0000 0.30760  0.93060  0.56250  Biso   1.000  C
  C43      1.0000 0.43750  0.69240  0.93060  Biso   1.000  C
  C44      1.0000 0.56250  0.69240  0.06940  Biso   1.000  C
  C45      1.0000 0.56250  0.30760  0.93060  Biso   1.000  C
  C46      1.0000 0.93060  0.43750  0.69240  Biso   1.000  C
  C47      1.0000 0.06940  0.56250  0.69240  Biso   1.000  C
  C48      1.0000 0.93060  0.56250  0.30760  Biso   1.000  C
  C49      1.0000 0.19310  0.38410  0.09250  Biso   1.000  C
  C50      1.0000 0.09250  0.19310  0.38410  Biso   1.000  C
  C51      1.0000 0.38410  0.09250  0.19310  Biso   1.000  C
  C52      1.0000 0.69310  0.88410  0.59250  Biso   1.000  C
  C53      1.0000 0.59250  0.69310  0.88410  Biso   1.000  C
  C54      1.0000 0.88410  0.59250  0.69310  Biso   1.000  C
  C55      1.0000 0.80690  0.61590  0.09250  Biso   1.000  C
  C56      1.0000 0.80690  0.38410  0.90750  Biso   1.000  C
  C57      1.0000 0.19310  0.61590  0.90750  Biso   1.000  C
  C58      1.0000 0.09250  0.80690  0.61590  Biso   1.000  C
  C59      1.0000 0.90750  0.80690  0.38410  Biso   1.000  C
  C60      1.0000 0.90750  0.19310  0.61590  Biso   1.000  C
  C61      1.0000 0.61590  0.09250  0.80690  Biso   1.000  C
  C62      1.0000 0.38410  0.90750  0.80690  Biso   1.000  C
  C63      1.0000 0.61590  0.90750  0.19310  Biso   1.000  C
  C64      1.0000 0.30690  0.11590  0.59250  Biso   1.000  C
  C65      1.0000 0.30690  0.88410  0.40750  Biso   1.000  C
  C66      1.0000 0.69310  0.11590  0.40750  Biso   1.000  C
  C67      1.0000 0.59250  0.30690  0.11590  Biso   1.000  C
  C68      1.0000 0.40750  0.30690  0.88410  Biso   1.000  C
  C69      1.0000 0.40750  0.69310  0.11590  Biso   1.000  C
  C70      1.0000 0.11590  0.59250  0.30690  Biso   1.000  C
  C71      1.0000 0.88410  0.40750  0.30690  Biso   1.000  C
  C72      1.0000 0.11590  0.40750  0.69310  Biso   1.000  C
  C73      1.0000 0.80690  0.61590  0.90750  Biso   1.000  C
  C74      1.0000 0.90750  0.80690  0.61590  Biso   1.000  C
  C75      1.0000 0.61590  0.90750  0.80690  Biso   1.000  C
  C76      1.0000 0.30690  0.11590  0.40750  Biso   1.000  C
  C77      1.0000 0.40750  0.30690  0.11590  Biso   1.000  C
  C78      1.0000 0.11590  0.40750  0.30690  Biso   1.000  C
  C79      1.0000 0.19310  0.38410  0.90750  Biso   1.000  C
  C80      1.0000 0.19310  0.61590  0.09250  Biso   1.000  C
  C81      1.0000 0.80690  0.38410  0.09250  Biso   1.000  C
  C82      1.0000 0.90750  0.19310  0.38410  Biso   1.000  C
  C83      1.0000 0.09250  0.19310  0.61590  Biso   1.000  C
  C84      1.0000 0.09250  0.80690  0.38410  Biso   1.000  C
  C85      1.0000 0.38410  0.90750  0.19310  Biso   1.000  C
  C86      1.0000 0.61590  0.09250  0.19310  Biso   1.000  C
  C87      1.0000 0.38410  0.09250  0.80690  Biso   1.000  C
  C88      1.0000 0.69310  0.88410  0.40750  Biso   1.000  C
  C89      1.0000 0.69310  0.11590  0.59250  Biso   1.000  C
  C90      1.0000 0.30690  0.88410  0.59250  Biso   1.000  C
  C91      1.0000 0.40750  0.69310  0.88410  Biso   1.000  C
  C92      1.0000 0.59250  0.69310  0.11590  Biso   1.000  C
  C93      1.0000 0.59250  0.30690  0.88410  Biso   1.000  C
  C94      1.0000 0.88410  0.40750  0.69310  Biso   1.000  C
  C95      1.0000 0.11590  0.59250  0.69310  Biso   1.000  C
  C96      1.0000 0.88410  0.59250  0.30690  Biso   1.000  C
  C97      1.0000 0.14990  0.36020  0.10800  Biso   1.000  C
  C98      1.0000 0.10800  0.14990  0.36020  Biso   1.000  C
  C99      1.0000 0.36020  0.10800  0.14990  Biso   1.000  C
  C100     1.0000 0.64990  0.86020  0.60800  Biso   1.000  C
  C101     1.0000 0.60800  0.64990  0.86020  Biso   1.000  C
  C102     1.0000 0.86020  0.60800  0.64990  Biso   1.000  C
  C103     1.0000 0.85010  0.63980  0.10800  Biso   1.000  C
  C104     1.0000 0.85010  0.36020  0.89200  Biso   1.000  C
  C105     1.0000 0.14990  0.63980  0.89200  Biso   1.000  C
  C106     1.0000 0.10800  0.85010  0.63980  Biso   1.000  C
  C107     1.0000 0.89200  0.85010  0.36020  Biso   1.000  C
  C108     1.0000 0.89200  0.14990  0.63980  Biso   1.000  C
  C109     1.0000 0.63980  0.10800  0.85010  Biso   1.000  C
  C110     1.0000 0.36020  0.89200  0.85010  Biso   1.000  C
  C111     1.0000 0.63980  0.89200  0.14990  Biso   1.000  C
  C112     1.0000 0.35010  0.13980  0.60800  Biso   1.000  C
  C113     1.0000 0.35010  0.86020  0.39200  Biso   1.000  C
  C114     1.0000 0.64990  0.13980  0.39200  Biso   1.000  C
  C115     1.0000 0.60800  0.35010  0.13980  Biso   1.000  C
  C116     1.0000 0.39200  0.35010  0.86020  Biso   1.000  C
  C117     1.0000 0.39200  0.64990  0.13980  Biso   1.000  C
  C118     1.0000 0.13980  0.60800  0.35010  Biso   1.000  C
  C119     1.0000 0.86020  0.39200  0.35010  Biso   1.000  C
  C120     1.0000 0.13980  0.39200  0.64990  Biso   1.000  C
  C121     1.0000 0.85010  0.63980  0.89200  Biso   1.000  C
  C122     1.0000 0.89200  0.85010  0.63980  Biso   1.000  C
  C123     1.0000 0.63980  0.89200  0.85010  Biso   1.000  C
  C124     1.0000 0.35010  0.13980  0.39200  Biso   1.000  C
  C125     1.0000 0.39200  0.35010  0.13980  Biso   1.000  C
  C126     1.0000 0.13980  0.39200  0.35010  Biso   1.000  C
  C127     1.0000 0.14990  0.36020  0.89200  Biso   1.000  C
  C128     1.0000 0.14990  0.63980  0.10800  Biso   1.000  C
  C129     1.0000 0.85010  0.36020  0.10800  Biso   1.000  C
  C130     1.0000 0.89200  0.14990  0.36020  Biso   1.000  C
  C131     1.0000 0.10800  0.14990  0.63980  Biso   1.000  C
  C132     1.0000 0.10800  0.85010  0.36020  Biso   1.000  C
  C133     1.0000 0.36020  0.89200  0.14990  Biso   1.000  C
  C134     1.0000 0.63980  0.10800  0.14990  Biso   1.000  C
  C135     1.0000 0.36020  0.10800  0.85010  Biso   1.000  C
  C136     1.0000 0.64990  0.86020  0.39200  Biso   1.000  C
  C137     1.0000 0.64990  0.13980  0.60800  Biso   1.000  C
  C138     1.0000 0.35010  0.86020  0.60800  Biso   1.000  C
  C139     1.0000 0.39200  0.64990  0.86020  Biso   1.000  C
  C140     1.0000 0.60800  0.64990  0.13980  Biso   1.000  C
  C141     1.0000 0.60800  0.35010  0.86020  Biso   1.000  C
  C142     1.0000 0.86020  0.39200  0.64990  Biso   1.000  C
  C143     1.0000 0.13980  0.60800  0.64990  Biso   1.000  C
  C144     1.0000 0.86020  0.60800  0.35010  Biso   1.000  C
  H1       1.0000 0.11840  0.37400  0.10020  Biso   1.000  H
  H2       1.0000 0.10020  0.11840  0.37400  Biso   1.000  H
  H3       1.0000 0.37400  0.10020  0.11840  Biso   1.000  H
  H4       1.0000 0.61840  0.87400  0.60020  Biso   1.000  H
  H5       1.0000 0.60020  0.61840  0.87400  Biso   1.000  H
  H6       1.0000 0.87400  0.60020  0.61840  Biso   1.000  H
  H7       1.0000 0.88160  0.62600  0.10020  Biso   1.000  H
  H8       1.0000 0.88160  0.37400  0.89980  Biso   1.000  H
  H9       1.0000 0.11840  0.62600  0.89980  Biso   1.000  H
  H10      1.0000 0.10020  0.88160  0.62600  Biso   1.000  H
  H11      1.0000 0.89980  0.88160  0.37400  Biso   1.000  H
  H12      1.0000 0.89980  0.11840  0.62600  Biso   1.000  H
  H13      1.0000 0.62600  0.10020  0.88160  Biso   1.000  H
  H14      1.0000 0.37400  0.89980  0.88160  Biso   1.000  H
  H15      1.0000 0.62600  0.89980  0.11840  Biso   1.000  H
  H16      1.0000 0.38160  0.12600  0.60020  Biso   1.000  H
  H17      1.0000 0.38160  0.87400  0.39980  Biso   1.000  H
  H18      1.0000 0.61840  0.12600  0.39980  Biso   1.000  H
  H19      1.0000 0.60020  0.38160  0.12600  Biso   1.000  H
  H20      1.0000 0.39980  0.38160  0.87400  Biso   1.000  H
  H21      1.0000 0.39980  0.61840  0.12600  Biso   1.000  H
  H22      1.0000 0.12600  0.60020  0.38160  Biso   1.000  H
  H23      1.0000 0.87400  0.39980  0.38160  Biso   1.000  H
  H24      1.0000 0.12600  0.39980  0.61840  Biso   1.000  H
  H25      1.0000 0.88160  0.62600  0.89980  Biso   1.000  H
  H26      1.0000 0.89980  0.88160  0.62600  Biso   1.000  H
  H27      1.0000 0.62600  0.89980  0.88160  Biso   1.000  H
  H28      1.0000 0.38160  0.12600  0.39980  Biso   1.000  H
  H29      1.0000 0.39980  0.38160  0.12600  Biso   1.000  H
  H30      1.0000 0.12600  0.39980  0.38160  Biso   1.000  H
  H31      1.0000 0.11840  0.37400  0.89980  Biso   1.000  H
  H32      1.0000 0.11840  0.62600  0.10020  Biso   1.000  H
  H33      1.0000 0.88160  0.37400  0.10020  Biso   1.000  H
  H34      1.0000 0.89980  0.11840  0.37400  Biso   1.000  H
  H35      1.0000 0.10020  0.11840  0.62600  Biso   1.000  H
  H36      1.0000 0.10020  0.88160  0.37400  Biso   1.000  H
  H37      1.0000 0.37400  0.89980  0.11840  Biso   1.000  H
  H38      1.0000 0.62600  0.10020  0.11840  Biso   1.000  H
  H39      1.0000 0.37400  0.10020  0.88160  Biso   1.000  H
  H40      1.0000 0.61840  0.87400  0.39980  Biso   1.000  H
  H41      1.0000 0.61840  0.12600  0.60020  Biso   1.000  H
  H42      1.0000 0.38160  0.87400  0.60020  Biso   1.000  H
  H43      1.0000 0.39980  0.61840  0.87400  Biso   1.000  H
  H44      1.0000 0.60020  0.61840  0.12600  Biso   1.000  H
  H45      1.0000 0.60020  0.38160  0.87400  Biso   1.000  H
  H46      1.0000 0.87400  0.39980  0.61840  Biso   1.000  H
  H47      1.0000 0.12600  0.60020  0.61840  Biso   1.000  H
  H48      1.0000 0.87400  0.60020  0.38160  Biso   1.000  H
  C145     1.0000 0.15270  0.31700  0.13420  Biso   1.000  C
  C146     1.0000 0.13420  0.15270  0.31700  Biso   1.000  C
  C147     1.0000 0.31700  0.13420  0.15270  Biso   1.000  C
  C148     1.0000 0.65270  0.81700  0.63420  Biso   1.000  C
  C149     1.0000 0.63420  0.65270  0.81700  Biso   1.000  C
  C150     1.0000 0.81700  0.63420  0.65270  Biso   1.000  C
  C151     1.0000 0.84730  0.68300  0.13420  Biso   1.000  C
  C152     1.0000 0.84730  0.31700  0.86580  Biso   1.000  C
  C153     1.0000 0.15270  0.68300  0.86580  Biso   1.000  C
  C154     1.0000 0.13420  0.84730  0.68300  Biso   1.000  C
  C155     1.0000 0.86580  0.84730  0.31700  Biso   1.000  C
  C156     1.0000 0.86580  0.15270  0.68300  Biso   1.000  C
  C157     1.0000 0.68300  0.13420  0.84730  Biso   1.000  C
  C158     1.0000 0.31700  0.86580  0.84730  Biso   1.000  C
  C159     1.0000 0.68300  0.86580  0.15270  Biso   1.000  C
  C160     1.0000 0.34730  0.18300  0.63420  Biso   1.000  C
  C161     1.0000 0.34730  0.81700  0.36580  Biso   1.000  C
  C162     1.0000 0.65270  0.18300  0.36580  Biso   1.000  C
  C163     1.0000 0.63420  0.34730  0.18300  Biso   1.000  C
  C164     1.0000 0.36580  0.34730  0.81700  Biso   1.000  C
  C165     1.0000 0.36580  0.65270  0.18300  Biso   1.000  C
  C166     1.0000 0.18300  0.63420  0.34730  Biso   1.000  C
  C167     1.0000 0.81700  0.36580  0.34730  Biso   1.000  C
  C168     1.0000 0.18300  0.36580  0.65270  Biso   1.000  C
  C169     1.0000 0.84730  0.68300  0.86580  Biso   1.000  C
  C170     1.0000 0.86580  0.84730  0.68300  Biso   1.000  C
  C171     1.0000 0.68300  0.86580  0.84730  Biso   1.000  C
  C172     1.0000 0.34730  0.18300  0.36580  Biso   1.000  C
  C173     1.0000 0.36580  0.34730  0.18300  Biso   1.000  C
  C174     1.0000 0.18300  0.36580  0.34730  Biso   1.000  C
  C175     1.0000 0.15270  0.31700  0.86580  Biso   1.000  C
  C176     1.0000 0.15270  0.68300  0.13420  Biso   1.000  C
  C177     1.0000 0.84730  0.31700  0.13420  Biso   1.000  C
  C178     1.0000 0.86580  0.15270  0.31700  Biso   1.000  C
  C179     1.0000 0.13420  0.15270  0.68300  Biso   1.000  C
  C180     1.0000 0.13420  0.84730  0.31700  Biso   1.000  C
  C181     1.0000 0.31700  0.86580  0.15270  Biso   1.000  C
  C182     1.0000 0.68300  0.13420  0.15270  Biso   1.000  C
  C183     1.0000 0.31700  0.13420  0.84730  Biso   1.000  C
  C184     1.0000 0.65270  0.81700  0.36580  Biso   1.000  C
  C185     1.0000 0.65270  0.18300  0.63420  Biso   1.000  C
  C186     1.0000 0.34730  0.81700  0.63420  Biso   1.000  C
  C187     1.0000 0.36580  0.65270  0.81700  Biso   1.000  C
  C188     1.0000 0.63420  0.65270  0.18300  Biso   1.000  C
  C189     1.0000 0.63420  0.34730  0.81700  Biso   1.000  C
  C190     1.0000 0.81700  0.36580  0.65270  Biso   1.000  C
  C191     1.0000 0.18300  0.63420  0.65270  Biso   1.000  C
  C192     1.0000 0.81700  0.63420  0.34730  Biso   1.000  C
  H49      1.0000 0.12320  0.30110  0.14510  Biso   1.000  H
  H50      1.0000 0.14510  0.12320  0.30110  Biso   1.000  H
  H51      1.0000 0.30110  0.14510  0.12320  Biso   1.000  H
  H52      1.0000 0.62320  0.80110  0.64510  Biso   1.000  H
  H53      1.0000 0.64510  0.62320  0.80110  Biso   1.000  H
  H54      1.0000 0.80110  0.64510  0.62320  Biso   1.000  H
  H55      1.0000 0.87680  0.69890  0.14510  Biso   1.000  H
  H56      1.0000 0.87680  0.30110  0.85490  Biso   1.000  H
  H57      1.0000 0.12320  0.69890  0.85490  Biso   1.000  H
  H58      1.0000 0.14510  0.87680  0.69890  Biso   1.000  H
  H59      1.0000 0.85490  0.87680  0.30110  Biso   1.000  H
  H60      1.0000 0.85490  0.12320  0.69890  Biso   1.000  H
  H61      1.0000 0.69890  0.14510  0.87680  Biso   1.000  H
  H62      1.0000 0.30110  0.85490  0.87680  Biso   1.000  H
  H63      1.0000 0.69890  0.85490  0.12320  Biso   1.000  H
  H64      1.0000 0.37680  0.19890  0.64510  Biso   1.000  H
  H65      1.0000 0.37680  0.80110  0.35490  Biso   1.000  H
  H66      1.0000 0.62320  0.19890  0.35490  Biso   1.000  H
  H67      1.0000 0.64510  0.37680  0.19890  Biso   1.000  H
  H68      1.0000 0.35490  0.37680  0.80110  Biso   1.000  H
  H69      1.0000 0.35490  0.62320  0.19890  Biso   1.000  H
  H70      1.0000 0.19890  0.64510  0.37680  Biso   1.000  H
  H71      1.0000 0.80110  0.35490  0.37680  Biso   1.000  H
  H72      1.0000 0.19890  0.35490  0.62320  Biso   1.000  H
  H73      1.0000 0.87680  0.69890  0.85490  Biso   1.000  H
  H74      1.0000 0.85490  0.87680  0.69890  Biso   1.000  H
  H75      1.0000 0.69890  0.85490  0.87680  Biso   1.000  H
  H76      1.0000 0.37680  0.19890  0.35490  Biso   1.000  H
  H77      1.0000 0.35490  0.37680  0.19890  Biso   1.000  H
  H78      1.0000 0.19890  0.35490  0.37680  Biso   1.000  H
  H79      1.0000 0.12320  0.30110  0.85490  Biso   1.000  H
  H80      1.0000 0.12320  0.69890  0.14510  Biso   1.000  H
  H81      1.0000 0.87680  0.30110  0.14510  Biso   1.000  H
  H82      1.0000 0.85490  0.12320  0.30110  Biso   1.000  H
  H83      1.0000 0.14510  0.12320  0.69890  Biso   1.000  H
  H84      1.0000 0.14510  0.87680  0.30110  Biso   1.000  H
  H85      1.0000 0.30110  0.85490  0.12320  Biso   1.000  H
  H86      1.0000 0.69890  0.14510  0.12320  Biso   1.000  H
  H87      1.0000 0.30110  0.14510  0.87680  Biso   1.000  H
  H88      1.0000 0.62320  0.80110  0.35490  Biso   1.000  H
  H89      1.0000 0.62320  0.19890  0.64510  Biso   1.000  H
  H90      1.0000 0.37680  0.80110  0.64510  Biso   1.000  H
  H91      1.0000 0.35490  0.62320  0.80110  Biso   1.000  H
  H92      1.0000 0.64510  0.62320  0.19890  Biso   1.000  H
  H93      1.0000 0.64510  0.37680  0.80110  Biso   1.000  H
  H94      1.0000 0.80110  0.35490  0.62320  Biso   1.000  H
  H95      1.0000 0.19890  0.64510  0.62320  Biso   1.000  H
  H96      1.0000 0.80110  0.64510  0.37680  Biso   1.000  H
  C193     1.0000 0.19980  0.29560  0.14530  Biso   1.000  C
  C194     1.0000 0.14530  0.19980  0.29560  Biso   1.000  C
  C195     1.0000 0.29560  0.14530  0.19980  Biso   1.000  C
  C196     1.0000 0.69980  0.79560  0.64530  Biso   1.000  C
  C197     1.0000 0.64530  0.69980  0.79560  Biso   1.000  C
  C198     1.0000 0.79560  0.64530  0.69980  Biso   1.000  C
  C199     1.0000 0.80020  0.70440  0.14530  Biso   1.000  C
  C200     1.0000 0.80020  0.29560  0.85470  Biso   1.000  C
  C201     1.0000 0.19980  0.70440  0.85470  Biso   1.000  C
  C202     1.0000 0.14530  0.80020  0.70440  Biso   1.000  C
  C203     1.0000 0.85470  0.80020  0.29560  Biso   1.000  C
  C204     1.0000 0.85470  0.19980  0.70440  Biso   1.000  C
  C205     1.0000 0.70440  0.14530  0.80020  Biso   1.000  C
  C206     1.0000 0.29560  0.85470  0.80020  Biso   1.000  C
  C207     1.0000 0.70440  0.85470  0.19980  Biso   1.000  C
  C208     1.0000 0.30020  0.20440  0.64530  Biso   1.000  C
  C209     1.0000 0.30020  0.79560  0.35470  Biso   1.000  C
  C210     1.0000 0.69980  0.20440  0.35470  Biso   1.000  C
  C211     1.0000 0.64530  0.30020  0.20440  Biso   1.000  C
  C212     1.0000 0.35470  0.30020  0.79560  Biso   1.000  C
  C213     1.0000 0.35470  0.69980  0.20440  Biso   1.000  C
  C214     1.0000 0.20440  0.64530  0.30020  Biso   1.000  C
  C215     1.0000 0.79560  0.35470  0.30020  Biso   1.000  C
  C216     1.0000 0.20440  0.35470  0.69980  Biso   1.000  C
  C217     1.0000 0.80020  0.70440  0.85470  Biso   1.000  C
  C218     1.0000 0.85470  0.80020  0.70440  Biso   1.000  C
  C219     1.0000 0.70440  0.85470  0.80020  Biso   1.000  C
  C220     1.0000 0.30020  0.20440  0.35470  Biso   1.000  C
  C221     1.0000 0.35470  0.30020  0.20440  Biso   1.000  C
  C222     1.0000 0.20440  0.35470  0.30020  Biso   1.000  C
  C223     1.0000 0.19980  0.29560  0.85470  Biso   1.000  C
  C224     1.0000 0.19980  0.70440  0.14530  Biso   1.000  C
  C225     1.0000 0.80020  0.29560  0.14530  Biso   1.000  C
  C226     1.0000 0.85470  0.19980  0.29560  Biso   1.000  C
  C227     1.0000 0.14530  0.19980  0.70440  Biso   1.000  C
  C228     1.0000 0.14530  0.80020  0.29560  Biso   1.000  C
  C229     1.0000 0.29560  0.85470  0.19980  Biso   1.000  C
  C230     1.0000 0.70440  0.14530  0.19980  Biso   1.000  C
  C231     1.0000 0.29560  0.14530  0.80020  Biso   1.000  C
  C232     1.0000 0.69980  0.79560  0.35470  Biso   1.000  C
  C233     1.0000 0.69980  0.20440  0.64530  Biso   1.000  C
  C234     1.0000 0.30020  0.79560  0.64530  Biso   1.000  C
  C235     1.0000 0.35470  0.69980  0.79560  Biso   1.000  C
  C236     1.0000 0.64530  0.69980  0.20440  Biso   1.000  C
  C237     1.0000 0.64530  0.30020  0.79560  Biso   1.000  C
  C238     1.0000 0.79560  0.35470  0.69980  Biso   1.000  C
  C239     1.0000 0.20440  0.64530  0.69980  Biso   1.000  C
  C240     1.0000 0.79560  0.64530  0.30020  Biso   1.000  C
  C241     1.0000 0.24080  0.31990  0.13070  Biso   1.000  C
  C242     1.0000 0.13070  0.24080  0.31990  Biso   1.000  C
  C243     1.0000 0.31990  0.13070  0.24080  Biso   1.000  C
  C244     1.0000 0.74080  0.81990  0.63070  Biso   1.000  C
  C245     1.0000 0.63070  0.74080  0.81990  Biso   1.000  C
  C246     1.0000 0.81990  0.63070  0.74080  Biso   1.000  C
  C247     1.0000 0.75920  0.68010  0.13070  Biso   1.000  C
  C248     1.0000 0.75920  0.31990  0.86930  Biso   1.000  C
  C249     1.0000 0.24080  0.68010  0.86930  Biso   1.000  C
  C250     1.0000 0.13070  0.75920  0.68010  Biso   1.000  C
  C251     1.0000 0.86930  0.75920  0.31990  Biso   1.000  C
  C252     1.0000 0.86930  0.24080  0.68010  Biso   1.000  C
  C253     1.0000 0.68010  0.13070  0.75920  Biso   1.000  C
  C254     1.0000 0.31990  0.86930  0.75920  Biso   1.000  C
  C255     1.0000 0.68010  0.86930  0.24080  Biso   1.000  C
  C256     1.0000 0.25920  0.18010  0.63070  Biso   1.000  C
  C257     1.0000 0.25920  0.81990  0.36930  Biso   1.000  C
  C258     1.0000 0.74080  0.18010  0.36930  Biso   1.000  C
  C259     1.0000 0.63070  0.25920  0.18010  Biso   1.000  C
  C260     1.0000 0.36930  0.25920  0.81990  Biso   1.000  C
  C261     1.0000 0.36930  0.74080  0.18010  Biso   1.000  C
  C262     1.0000 0.18010  0.63070  0.25920  Biso   1.000  C
  C263     1.0000 0.81990  0.36930  0.25920  Biso   1.000  C
  C264     1.0000 0.18010  0.36930  0.74080  Biso   1.000  C
  C265     1.0000 0.75920  0.68010  0.86930  Biso   1.000  C
  C266     1.0000 0.86930  0.75920  0.68010  Biso   1.000  C
  C267     1.0000 0.68010  0.86930  0.75920  Biso   1.000  C
  C268     1.0000 0.25920  0.18010  0.36930  Biso   1.000  C
  C269     1.0000 0.36930  0.25920  0.18010  Biso   1.000  C
  C270     1.0000 0.18010  0.36930  0.25920  Biso   1.000  C
  C271     1.0000 0.24080  0.31990  0.86930  Biso   1.000  C
  C272     1.0000 0.24080  0.68010  0.13070  Biso   1.000  C
  C273     1.0000 0.75920  0.31990  0.13070  Biso   1.000  C
  C274     1.0000 0.86930  0.24080  0.31990  Biso   1.000  C
  C275     1.0000 0.13070  0.24080  0.68010  Biso   1.000  C
  C276     1.0000 0.13070  0.75920  0.31990  Biso   1.000  C
  C277     1.0000 0.31990  0.86930  0.24080  Biso   1.000  C
  C278     1.0000 0.68010  0.13070  0.24080  Biso   1.000  C
  C279     1.0000 0.31990  0.13070  0.75920  Biso   1.000  C
  C280     1.0000 0.74080  0.81990  0.36930  Biso   1.000  C
  C281     1.0000 0.74080  0.18010  0.63070  Biso   1.000  C
  C282     1.0000 0.25920  0.81990  0.63070  Biso   1.000  C
  C283     1.0000 0.36930  0.74080  0.81990  Biso   1.000  C
  C284     1.0000 0.63070  0.74080  0.18010  Biso   1.000  C
  C285     1.0000 0.63070  0.25920  0.81990  Biso   1.000  C
  C286     1.0000 0.81990  0.36930  0.74080  Biso   1.000  C
  C287     1.0000 0.18010  0.63070  0.74080  Biso   1.000  C
  C288     1.0000 0.81990  0.63070  0.25920  Biso   1.000  C
  H97      1.0000 0.27240  0.30640  0.13900  Biso   1.000  H
  H98      1.0000 0.13900  0.27240  0.30640  Biso   1.000  H
  H99      1.0000 0.30640  0.13900  0.27240  Biso   1.000  H
  H100     1.0000 0.77240  0.80640  0.63900  Biso   1.000  H
  H101     1.0000 0.63900  0.77240  0.80640  Biso   1.000  H
  H102     1.0000 0.80640  0.63900  0.77240  Biso   1.000  H
  H103     1.0000 0.72760  0.69360  0.13900  Biso   1.000  H
  H104     1.0000 0.72760  0.30640  0.86100  Biso   1.000  H
  H105     1.0000 0.27240  0.69360  0.86100  Biso   1.000  H
  H106     1.0000 0.13900  0.72760  0.69360  Biso   1.000  H
  H107     1.0000 0.86100  0.72760  0.30640  Biso   1.000  H
  H108     1.0000 0.86100  0.27240  0.69360  Biso   1.000  H
  H109     1.0000 0.69360  0.13900  0.72760  Biso   1.000  H
  H110     1.0000 0.30640  0.86100  0.72760  Biso   1.000  H
  H111     1.0000 0.69360  0.86100  0.27240  Biso   1.000  H
  H112     1.0000 0.22760  0.19360  0.63900  Biso   1.000  H
  H113     1.0000 0.22760  0.80640  0.36100  Biso   1.000  H
  H114     1.0000 0.77240  0.19360  0.36100  Biso   1.000  H
  H115     1.0000 0.63900  0.22760  0.19360  Biso   1.000  H
  H116     1.0000 0.36100  0.22760  0.80640  Biso   1.000  H
  H117     1.0000 0.36100  0.77240  0.19360  Biso   1.000  H
  H118     1.0000 0.19360  0.63900  0.22760  Biso   1.000  H
  H119     1.0000 0.80640  0.36100  0.22760  Biso   1.000  H
  H120     1.0000 0.19360  0.36100  0.77240  Biso   1.000  H
  H121     1.0000 0.72760  0.69360  0.86100  Biso   1.000  H
  H122     1.0000 0.86100  0.72760  0.69360  Biso   1.000  H
  H123     1.0000 0.69360  0.86100  0.72760  Biso   1.000  H
  H124     1.0000 0.22760  0.19360  0.36100  Biso   1.000  H
  H125     1.0000 0.36100  0.22760  0.19360  Biso   1.000  H
  H126     1.0000 0.19360  0.36100  0.22760  Biso   1.000  H
  H127     1.0000 0.27240  0.30640  0.86100  Biso   1.000  H
  H128     1.0000 0.27240  0.69360  0.13900  Biso   1.000  H
  H129     1.0000 0.72760  0.30640  0.13900  Biso   1.000  H
  H130     1.0000 0.86100  0.27240  0.30640  Biso   1.000  H
  H131     1.0000 0.13900  0.27240  0.69360  Biso   1.000  H
  H132     1.0000 0.13900  0.72760  0.30640  Biso   1.000  H
  H133     1.0000 0.30640  0.86100  0.27240  Biso   1.000  H
  H134     1.0000 0.69360  0.13900  0.27240  Biso   1.000  H
  H135     1.0000 0.30640  0.13900  0.72760  Biso   1.000  H
  H136     1.0000 0.77240  0.80640  0.36100  Biso   1.000  H
  H137     1.0000 0.77240  0.19360  0.63900  Biso   1.000  H
  H138     1.0000 0.22760  0.80640  0.63900  Biso   1.000  H
  H139     1.0000 0.36100  0.77240  0.80640  Biso   1.000  H
  H140     1.0000 0.63900  0.77240  0.19360  Biso   1.000  H
  H141     1.0000 0.63900  0.22760  0.80640  Biso   1.000  H
  H142     1.0000 0.80640  0.36100  0.77240  Biso   1.000  H
  H143     1.0000 0.19360  0.63900  0.77240  Biso   1.000  H
  H144     1.0000 0.80640  0.63900  0.22760  Biso   1.000  H
  C289     1.0000 0.23880  0.36360  0.10420  Biso   1.000  C
  C290     1.0000 0.10420  0.23880  0.36360  Biso   1.000  C
  C291     1.0000 0.36360  0.10420  0.23880  Biso   1.000  C
  C292     1.0000 0.73880  0.86360  0.60420  Biso   1.000  C
  C293     1.0000 0.60420  0.73880  0.86360  Biso   1.000  C
  C294     1.0000 0.86360  0.60420  0.73880  Biso   1.000  C
  C295     1.0000 0.76120  0.63640  0.10420  Biso   1.000  C
  C296     1.0000 0.76120  0.36360  0.89580  Biso   1.000  C
  C297     1.0000 0.23880  0.63640  0.89580  Biso   1.000  C
  C298     1.0000 0.10420  0.76120  0.63640  Biso   1.000  C
  C299     1.0000 0.89580  0.76120  0.36360  Biso   1.000  C
  C300     1.0000 0.89580  0.23880  0.63640  Biso   1.000  C
  C301     1.0000 0.63640  0.10420  0.76120  Biso   1.000  C
  C302     1.0000 0.36360  0.89580  0.76120  Biso   1.000  C
  C303     1.0000 0.63640  0.89580  0.23880  Biso   1.000  C
  C304     1.0000 0.26120  0.13640  0.60420  Biso   1.000  C
  C305     1.0000 0.26120  0.86360  0.39580  Biso   1.000  C
  C306     1.0000 0.73880  0.13640  0.39580  Biso   1.000  C
  C307     1.0000 0.60420  0.26120  0.13640  Biso   1.000  C
  C308     1.0000 0.39580  0.26120  0.86360  Biso   1.000  C
  C309     1.0000 0.39580  0.73880  0.13640  Biso   1.000  C
  C310     1.0000 0.13640  0.60420  0.26120  Biso   1.000  C
  C311     1.0000 0.86360  0.39580  0.26120  Biso   1.000  C
  C312     1.0000 0.13640  0.39580  0.73880  Biso   1.000  C
  C313     1.0000 0.76120  0.63640  0.89580  Biso   1.000  C
  C314     1.0000 0.89580  0.76120  0.63640  Biso   1.000  C
  C315     1.0000 0.63640  0.89580  0.76120  Biso   1.000  C
  C316     1.0000 0.26120  0.13640  0.39580  Biso   1.000  C
  C317     1.0000 0.39580  0.26120  0.13640  Biso   1.000  C
  C318     1.0000 0.13640  0.39580  0.26120  Biso   1.000  C
  C319     1.0000 0.23880  0.36360  0.89580  Biso   1.000  C
  C320     1.0000 0.23880  0.63640  0.10420  Biso   1.000  C
  C321     1.0000 0.76120  0.36360  0.10420  Biso   1.000  C
  C322     1.0000 0.89580  0.23880  0.36360  Biso   1.000  C
  C323     1.0000 0.10420  0.23880  0.63640  Biso   1.000  C
  C324     1.0000 0.10420  0.76120  0.36360  Biso   1.000  C
  C325     1.0000 0.36360  0.89580  0.23880  Biso   1.000  C
  C326     1.0000 0.63640  0.10420  0.23880  Biso   1.000  C
  C327     1.0000 0.36360  0.10420  0.76120  Biso   1.000  C
  C328     1.0000 0.73880  0.86360  0.39580  Biso   1.000  C
  C329     1.0000 0.73880  0.13640  0.60420  Biso   1.000  C
  C330     1.0000 0.26120  0.86360  0.60420  Biso   1.000  C
  C331     1.0000 0.39580  0.73880  0.86360  Biso   1.000  C
  C332     1.0000 0.60420  0.73880  0.13640  Biso   1.000  C
  C333     1.0000 0.60420  0.26120  0.86360  Biso   1.000  C
  C334     1.0000 0.86360  0.39580  0.73880  Biso   1.000  C
  C335     1.0000 0.13640  0.60420  0.73880  Biso   1.000  C
  C336     1.0000 0.86360  0.60420  0.26120  Biso   1.000  C
  H145     1.0000 0.26860  0.37960  0.09400  Biso   1.000  H
  H146     1.0000 0.09400  0.26860  0.37960  Biso   1.000  H
  H147     1.0000 0.37960  0.09400  0.26860  Biso   1.000  H
  H148     1.0000 0.76860  0.87960  0.59400  Biso   1.000  H
  H149     1.0000 0.59400  0.76860  0.87960  Biso   1.000  H
  H150     1.0000 0.87960  0.59400  0.76860  Biso   1.000  H
  H151     1.0000 0.73140  0.62040  0.09400  Biso   1.000  H
  H152     1.0000 0.73140  0.37960  0.90600  Biso   1.000  H
  H153     1.0000 0.26860  0.62040  0.90600  Biso   1.000  H
  H154     1.0000 0.09400  0.73140  0.62040  Biso   1.000  H
  H155     1.0000 0.90600  0.73140  0.37960  Biso   1.000  H
  H156     1.0000 0.90600  0.26860  0.62040  Biso   1.000  H
  H157     1.0000 0.62040  0.09400  0.73140  Biso   1.000  H
  H158     1.0000 0.37960  0.90600  0.73140  Biso   1.000  H
  H159     1.0000 0.62040  0.90600  0.26860  Biso   1.000  H
  H160     1.0000 0.23140  0.12040  0.59400  Biso   1.000  H
  H161     1.0000 0.23140  0.87960  0.40600  Biso   1.000  H
  H162     1.0000 0.76860  0.12040  0.40600  Biso   1.000  H
  H163     1.0000 0.59400  0.23140  0.12040  Biso   1.000  H
  H164     1.0000 0.40600  0.23140  0.87960  Biso   1.000  H
  H165     1.0000 0.40600  0.76860  0.12040  Biso   1.000  H
  H166     1.0000 0.12040  0.59400  0.23140  Biso   1.000  H
  H167     1.0000 0.87960  0.40600  0.23140  Biso   1.000  H
  H168     1.0000 0.12040  0.40600  0.76860  Biso   1.000  H
  H169     1.0000 0.73140  0.62040  0.90600  Biso   1.000  H
  H170     1.0000 0.90600  0.73140  0.62040  Biso   1.000  H
  H171     1.0000 0.62040  0.90600  0.73140  Biso   1.000  H
  H172     1.0000 0.23140  0.12040  0.40600  Biso   1.000  H
  H173     1.0000 0.40600  0.23140  0.12040  Biso   1.000  H
  H174     1.0000 0.12040  0.40600  0.23140  Biso   1.000  H
  H175     1.0000 0.26860  0.37960  0.90600  Biso   1.000  H
  H176     1.0000 0.26860  0.62040  0.09400  Biso   1.000  H
  H177     1.0000 0.73140  0.37960  0.09400  Biso   1.000  H
  H178     1.0000 0.90600  0.26860  0.37960  Biso   1.000  H
  H179     1.0000 0.09400  0.26860  0.62040  Biso   1.000  H
  H180     1.0000 0.09400  0.73140  0.37960  Biso   1.000  H
  H181     1.0000 0.37960  0.90600  0.26860  Biso   1.000  H
  H182     1.0000 0.62040  0.09400  0.26860  Biso   1.000  H
  H183     1.0000 0.37960  0.09400  0.73140  Biso   1.000  H
  H184     1.0000 0.76860  0.87960  0.40600  Biso   1.000  H
  H185     1.0000 0.76860  0.12040  0.59400  Biso   1.000  H
  H186     1.0000 0.23140  0.87960  0.59400  Biso   1.000  H
  H187     1.0000 0.40600  0.76860  0.87960  Biso   1.000  H
  H188     1.0000 0.59400  0.76860  0.12040  Biso   1.000  H
  H189     1.0000 0.59400  0.23140  0.87960  Biso   1.000  H
  H190     1.0000 0.87960  0.40600  0.76860  Biso   1.000  H
  H191     1.0000 0.12040  0.59400  0.76860  Biso   1.000  H
  H192     1.0000 0.87960  0.59400  0.23140  Biso   1.000  H
  C337     1.0000 0.20330  0.24950  0.17770  Biso   1.000  C
  C338     1.0000 0.17770  0.20330  0.24950  Biso   1.000  C
  C339     1.0000 0.24950  0.17770  0.20330  Biso   1.000  C
  C340     1.0000 0.70330  0.74950  0.67770  Biso   1.000  C
  C341     1.0000 0.67770  0.70330  0.74950  Biso   1.000  C
  C342     1.0000 0.74950  0.67770  0.70330  Biso   1.000  C
  C343     1.0000 0.79670  0.75050  0.17770  Biso   1.000  C
  C344     1.0000 0.79670  0.24950  0.82230  Biso   1.000  C
  C345     1.0000 0.20330  0.75050  0.82230  Biso   1.000  C
  C346     1.0000 0.17770  0.79670  0.75050  Biso   1.000  C
  C347     1.0000 0.82230  0.79670  0.24950  Biso   1.000  C
  C348     1.0000 0.82230  0.20330  0.75050  Biso   1.000  C
  C349     1.0000 0.75050  0.17770  0.79670  Biso   1.000  C
  C350     1.0000 0.24950  0.82230  0.79670  Biso   1.000  C
  C351     1.0000 0.75050  0.82230  0.20330  Biso   1.000  C
  C352     1.0000 0.29670  0.25050  0.67770  Biso   1.000  C
  C353     1.0000 0.29670  0.74950  0.32230  Biso   1.000  C
  C354     1.0000 0.70330  0.25050  0.32230  Biso   1.000  C
  C355     1.0000 0.67770  0.29670  0.25050  Biso   1.000  C
  C356     1.0000 0.32230  0.29670  0.74950  Biso   1.000  C
  C357     1.0000 0.32230  0.70330  0.25050  Biso   1.000  C
  C358     1.0000 0.25050  0.67770  0.29670  Biso   1.000  C
  C359     1.0000 0.74950  0.32230  0.29670  Biso   1.000  C
  C360     1.0000 0.25050  0.32230  0.70330  Biso   1.000  C
  C361     1.0000 0.79670  0.75050  0.82230  Biso   1.000  C
  C362     1.0000 0.82230  0.79670  0.75050  Biso   1.000  C
  C363     1.0000 0.75050  0.82230  0.79670  Biso   1.000  C
  C364     1.0000 0.29670  0.25050  0.32230  Biso   1.000  C
  C365     1.0000 0.32230  0.29670  0.25050  Biso   1.000  C
  C366     1.0000 0.25050  0.32230  0.29670  Biso   1.000  C
  C367     1.0000 0.20330  0.24950  0.82230  Biso   1.000  C
  C368     1.0000 0.20330  0.75050  0.17770  Biso   1.000  C
  C369     1.0000 0.79670  0.24950  0.17770  Biso   1.000  C
  C370     1.0000 0.82230  0.20330  0.24950  Biso   1.000  C
  C371     1.0000 0.17770  0.20330  0.75050  Biso   1.000  C
  C372     1.0000 0.17770  0.79670  0.24950  Biso   1.000  C
  C373     1.0000 0.24950  0.82230  0.20330  Biso   1.000  C
  C374     1.0000 0.75050  0.17770  0.20330  Biso   1.000  C
  C375     1.0000 0.24950  0.17770  0.79670  Biso   1.000  C
  C376     1.0000 0.70330  0.74950  0.32230  Biso   1.000  C
  C377     1.0000 0.70330  0.25050  0.67770  Biso   1.000  C
  C378     1.0000 0.29670  0.74950  0.67770  Biso   1.000  C
  C379     1.0000 0.32230  0.70330  0.74950  Biso   1.000  C
  C380     1.0000 0.67770  0.70330  0.25050  Biso   1.000  C
  C381     1.0000 0.67770  0.29670  0.74950  Biso   1.000  C
  C382     1.0000 0.74950  0.32230  0.70330  Biso   1.000  C
  C383     1.0000 0.25050  0.67770  0.70330  Biso   1.000  C
  C384     1.0000 0.74950  0.67770  0.29670  Biso   1.000  C
  C385     1.0000 0.17070  0.24150  0.21680  Biso   1.000  C
  C386     1.0000 0.21680  0.17070  0.24150  Biso   1.000  C
  C387     1.0000 0.24150  0.21680  0.17070  Biso   1.000  C
  C388     1.0000 0.67070  0.74150  0.71680  Biso   1.000  C
  C389     1.0000 0.71680  0.67070  0.74150  Biso   1.000  C
  C390     1.0000 0.74150  0.71680  0.67070  Biso   1.000  C
  C391     1.0000 0.82930  0.75850  0.21680  Biso   1.000  C
  C392     1.0000 0.82930  0.24150  0.78320  Biso   1.000  C
  C393     1.0000 0.17070  0.75850  0.78320  Biso   1.000  C
  C394     1.0000 0.21680  0.82930  0.75850  Biso   1.000  C
  C395     1.0000 0.78320  0.82930  0.24150  Biso   1.000  C
  C396     1.0000 0.78320  0.17070  0.75850  Biso   1.000  C
  C397     1.0000 0.75850  0.21680  0.82930  Biso   1.000  C
  C398     1.0000 0.24150  0.78320  0.82930  Biso   1.000  C
  C399     1.0000 0.75850  0.78320  0.17070  Biso   1.000  C
  C400     1.0000 0.32930  0.25850  0.71680  Biso   1.000  C
  C401     1.0000 0.32930  0.74150  0.28320  Biso   1.000  C
  C402     1.0000 0.67070  0.25850  0.28320  Biso   1.000  C
  C403     1.0000 0.71680  0.32930  0.25850  Biso   1.000  C
  C404     1.0000 0.28320  0.32930  0.74150  Biso   1.000  C
  C405     1.0000 0.28320  0.67070  0.25850  Biso   1.000  C
  C406     1.0000 0.25850  0.71680  0.32930  Biso   1.000  C
  C407     1.0000 0.74150  0.28320  0.32930  Biso   1.000  C
  C408     1.0000 0.25850  0.28320  0.67070  Biso   1.000  C
  C409     1.0000 0.82930  0.75850  0.78320  Biso   1.000  C
  C410     1.0000 0.78320  0.82930  0.75850  Biso   1.000  C
  C411     1.0000 0.75850  0.78320  0.82930  Biso   1.000  C
  C412     1.0000 0.32930  0.25850  0.28320  Biso   1.000  C
  C413     1.0000 0.28320  0.32930  0.25850  Biso   1.000  C
  C414     1.0000 0.25850  0.28320  0.32930  Biso   1.000  C
  C415     1.0000 0.17070  0.24150  0.78320  Biso   1.000  C
  C416     1.0000 0.17070  0.75850  0.21680  Biso   1.000  C
  C417     1.0000 0.82930  0.24150  0.21680  Biso   1.000  C
  C418     1.0000 0.78320  0.17070  0.24150  Biso   1.000  C
  C419     1.0000 0.21680  0.17070  0.75850  Biso   1.000  C
  C420     1.0000 0.21680  0.82930  0.24150  Biso   1.000  C
  C421     1.0000 0.24150  0.78320  0.17070  Biso   1.000  C
  C422     1.0000 0.75850  0.21680  0.17070  Biso   1.000  C
  C423     1.0000 0.24150  0.21680  0.82930  Biso   1.000  C
  C424     1.0000 0.67070  0.74150  0.28320  Biso   1.000  C
  C425     1.0000 0.67070  0.25850  0.71680  Biso   1.000  C
  C426     1.0000 0.32930  0.74150  0.71680  Biso   1.000  C
  C427     1.0000 0.28320  0.67070  0.74150  Biso   1.000  C
  C428     1.0000 0.71680  0.67070  0.25850  Biso   1.000  C
  C429     1.0000 0.71680  0.32930  0.74150  Biso   1.000  C
  C430     1.0000 0.74150  0.28320  0.67070  Biso   1.000  C
  C431     1.0000 0.25850  0.71680  0.67070  Biso   1.000  C
  C432     1.0000 0.74150  0.71680  0.32930  Biso   1.000  C
  H193     1.0000 0.14510  0.26550  0.22300  Biso   1.000  H
  H194     1.0000 0.22300  0.14510  0.26550  Biso   1.000  H
  H195     1.0000 0.26550  0.22300  0.14510  Biso   1.000  H
  H196     1.0000 0.64510  0.76550  0.72300  Biso   1.000  H
  H197     1.0000 0.72300  0.64510  0.76550  Biso   1.000  H
  H198     1.0000 0.76550  0.72300  0.64510  Biso   1.000  H
  H199     1.0000 0.85490  0.73450  0.22300  Biso   1.000  H
  H200     1.0000 0.85490  0.26550  0.77700  Biso   1.000  H
  H201     1.0000 0.14510  0.73450  0.77700  Biso   1.000  H
  H202     1.0000 0.22300  0.85490  0.73450  Biso   1.000  H
  H203     1.0000 0.77700  0.85490  0.26550  Biso   1.000  H
  H204     1.0000 0.77700  0.14510  0.73450  Biso   1.000  H
  H205     1.0000 0.73450  0.22300  0.85490  Biso   1.000  H
  H206     1.0000 0.26550  0.77700  0.85490  Biso   1.000  H
  H207     1.0000 0.73450  0.77700  0.14510  Biso   1.000  H
  H208     1.0000 0.35490  0.23450  0.72300  Biso   1.000  H
  H209     1.0000 0.35490  0.76550  0.27700  Biso   1.000  H
  H210     1.0000 0.64510  0.23450  0.27700  Biso   1.000  H
  H211     1.0000 0.72300  0.35490  0.23450  Biso   1.000  H
  H212     1.0000 0.27700  0.35490  0.76550  Biso   1.000  H
  H213     1.0000 0.27700  0.64510  0.23450  Biso   1.000  H
  H214     1.0000 0.23450  0.72300  0.35490  Biso   1.000  H
  H215     1.0000 0.76550  0.27700  0.35490  Biso   1.000  H
  H216     1.0000 0.23450  0.27700  0.64510  Biso   1.000  H
  H217     1.0000 0.85490  0.73450  0.77700  Biso   1.000  H
  H218     1.0000 0.77700  0.85490  0.73450  Biso   1.000  H
  H219     1.0000 0.73450  0.77700  0.85490  Biso   1.000  H
  H220     1.0000 0.35490  0.23450  0.27700  Biso   1.000  H
  H221     1.0000 0.27700  0.35490  0.23450  Biso   1.000  H
  H222     1.0000 0.23450  0.27700  0.35490  Biso   1.000  H
  H223     1.0000 0.14510  0.26550  0.77700  Biso   1.000  H
  H224     1.0000 0.14510  0.73450  0.22300  Biso   1.000  H
  H225     1.0000 0.85490  0.26550  0.22300  Biso   1.000  H
  H226     1.0000 0.77700  0.14510  0.26550  Biso   1.000  H
  H227     1.0000 0.22300  0.14510  0.73450  Biso   1.000  H
  H228     1.0000 0.22300  0.85490  0.26550  Biso   1.000  H
  H229     1.0000 0.26550  0.77700  0.14510  Biso   1.000  H
  H230     1.0000 0.73450  0.22300  0.14510  Biso   1.000  H
  H231     1.0000 0.26550  0.22300  0.85490  Biso   1.000  H
  H232     1.0000 0.64510  0.76550  0.27700  Biso   1.000  H
  H233     1.0000 0.64510  0.23450  0.72300  Biso   1.000  H
  H234     1.0000 0.35490  0.76550  0.72300  Biso   1.000  H
  H235     1.0000 0.27700  0.64510  0.76550  Biso   1.000  H
  H236     1.0000 0.72300  0.64510  0.23450  Biso   1.000  H
  H237     1.0000 0.72300  0.35490  0.76550  Biso   1.000  H
  H238     1.0000 0.76550  0.27700  0.64510  Biso   1.000  H
  H239     1.0000 0.23450  0.72300  0.64510  Biso   1.000  H
  H240     1.0000 0.76550  0.72300  0.35490  Biso   1.000  H
  O365     1.0000 0.31100  0.25100  0.00000  Biso   1.000  O
  O366     1.0000 0.00000  0.31100  0.25100  Biso   1.000  O
  O367     1.0000 0.25100  0.00000  0.31100  Biso   1.000  O
  O368     1.0000 0.81100  0.75100  0.50000  Biso   1.000  O
  O369     1.0000 0.50000  0.81100  0.75100  Biso   1.000  O
  O370     1.0000 0.75100  0.50000  0.81100  Biso   1.000  O
  O371     1.0000 0.68900  0.74900  0.00000  Biso   1.000  O
  O372     1.0000 0.68900  0.25100  0.00000  Biso   1.000  O
  O373     1.0000 0.31100  0.74900  0.00000  Biso   1.000  O
  O374     1.0000 0.00000  0.68900  0.74900  Biso   1.000  O
  O375     1.0000 0.00000  0.68900  0.25100  Biso   1.000  O
  O376     1.0000 0.00000  0.31100  0.74900  Biso   1.000  O
  O377     1.0000 0.74900  0.00000  0.68900  Biso   1.000  O
  O378     1.0000 0.25100  0.00000  0.68900  Biso   1.000  O
  O379     1.0000 0.74900  0.00000  0.31100  Biso   1.000  O
  O380     1.0000 0.18900  0.24900  0.50000  Biso   1.000  O
  O381     1.0000 0.18900  0.75100  0.50000  Biso   1.000  O
  O382     1.0000 0.81100  0.24900  0.50000  Biso   1.000  O
  O383     1.0000 0.50000  0.18900  0.24900  Biso   1.000  O
  O384     1.0000 0.50000  0.18900  0.75100  Biso   1.000  O
  O385     1.0000 0.50000  0.81100  0.24900  Biso   1.000  O
  O386     1.0000 0.24900  0.50000  0.18900  Biso   1.000  O
  O387     1.0000 0.75100  0.50000  0.18900  Biso   1.000  O
  O388     1.0000 0.24900  0.50000  0.81100  Biso   1.000  O
  O389     1.0000 0.34200  0.39630  0.02120  Biso   1.000  O
  O390     1.0000 0.02120  0.34200  0.39630  Biso   1.000  O
  O391     1.0000 0.39630  0.02120  0.34200  Biso   1.000  O
  O392     1.0000 0.84200  0.89630  0.52120  Biso   1.000  O
  O393     1.0000 0.52120  0.84200  0.89630  Biso   1.000  O
  O394     1.0000 0.89630  0.52120  0.84200  Biso   1.000  O
  O395     1.0000 0.65800  0.60370  0.02120  Biso   1.000  O
  O396     1.0000 0.65800  0.39630  0.97880  Biso   1.000  O
  O397     1.0000 0.34200  0.60370  0.97880  Biso   1.000  O
  O398     1.0000 0.02120  0.65800  0.60370  Biso   1.000  O
  O399     1.0000 0.97880  0.65800  0.39630  Biso   1.000  O
  O400     1.0000 0.97880  0.34200  0.60370  Biso   1.000  O
  O401     1.0000 0.60370  0.02120  0.65800  Biso   1.000  O
  O402     1.0000 0.39630  0.97880  0.65800  Biso   1.000  O
  O403     1.0000 0.60370  0.97880  0.34200  Biso   1.000  O
  O404     1.0000 0.15800  0.10370  0.52120  Biso   1.000  O
  O405     1.0000 0.15800  0.89630  0.47880  Biso   1.000  O
  O406     1.0000 0.84200  0.10370  0.47880  Biso   1.000  O
  O407     1.0000 0.52120  0.15800  0.10370  Biso   1.000  O
  O408     1.0000 0.47880  0.15800  0.89630  Biso   1.000  O
  O409     1.0000 0.47880  0.84200  0.10370  Biso   1.000  O
  O410     1.0000 0.10370  0.52120  0.15800  Biso   1.000  O
  O411     1.0000 0.89630  0.47880  0.15800  Biso   1.000  O
  O412     1.0000 0.10370  0.47880  0.84200  Biso   1.000  O
  O413     1.0000 0.65800  0.60370  0.97880  Biso   1.000  O
  O414     1.0000 0.97880  0.65800  0.60370  Biso   1.000  O
  O415     1.0000 0.60370  0.97880  0.65800  Biso   1.000  O
  O416     1.0000 0.15800  0.10370  0.47880  Biso   1.000  O
  O417     1.0000 0.47880  0.15800  0.10370  Biso   1.000  O
  O418     1.0000 0.10370  0.47880  0.15800  Biso   1.000  O
  O419     1.0000 0.34200  0.39630  0.97880  Biso   1.000  O
  O420     1.0000 0.34200  0.60370  0.02120  Biso   1.000  O
  O421     1.0000 0.65800  0.39630  0.02120  Biso   1.000  O
  O422     1.0000 0.97880  0.34200  0.39630  Biso   1.000  O
  O423     1.0000 0.02120  0.34200  0.60370  Biso   1.000  O
  O424     1.0000 0.02120  0.65800  0.39630  Biso   1.000  O
  O425     1.0000 0.39630  0.97880  0.34200  Biso   1.000  O
  O426     1.0000 0.60370  0.02120  0.34200  Biso   1.000  O
  O427     1.0000 0.39630  0.02120  0.65800  Biso   1.000  O
  O428     1.0000 0.84200  0.89630  0.47880  Biso   1.000  O
  O429     1.0000 0.84200  0.10370  0.52120  Biso   1.000  O
  O430     1.0000 0.15800  0.89630  0.52120  Biso   1.000  O
  O431     1.0000 0.47880  0.84200  0.89630  Biso   1.000  O
  O432     1.0000 0.52120  0.84200  0.10370  Biso   1.000  O
  O433     1.0000 0.52120  0.15800  0.89630  Biso   1.000  O
  O434     1.0000 0.89630  0.47880  0.84200  Biso   1.000  O
  O435     1.0000 0.10370  0.52120  0.84200  Biso   1.000  O
  O436     1.0000 0.89630  0.52120  0.15800  Biso   1.000  O
  O437     1.0000 0.34400  0.00000  0.08400  Biso   1.000  O
  O438     1.0000 0.08400  0.34400  0.00000  Biso   1.000  O
  O439     1.0000 0.00000  0.08400  0.34400  Biso   1.000  O
  O440     1.0000 0.84400  0.50000  0.58400  Biso   1.000  O
  O441     1.0000 0.58400  0.84400  0.50000  Biso   1.000  O
  O442     1.0000 0.50000  0.58400  0.84400  Biso   1.000  O
  O443     1.0000 0.65600  0.00000  0.08400  Biso   1.000  O
  O444     1.0000 0.65600  0.00000  0.91600  Biso   1.000  O
  O445     1.0000 0.34400  0.00000  0.91600  Biso   1.000  O
  O446     1.0000 0.08400  0.65600  0.00000  Biso   1.000  O
  O447     1.0000 0.91600  0.65600  0.00000  Biso   1.000  O
  O448     1.0000 0.91600  0.34400  0.00000  Biso   1.000  O
  O449     1.0000 0.00000  0.08400  0.65600  Biso   1.000  O
  O450     1.0000 0.00000  0.91600  0.65600  Biso   1.000  O
  O451     1.0000 0.00000  0.91600  0.34400  Biso   1.000  O
  O452     1.0000 0.15600  0.50000  0.58400  Biso   1.000  O
  O453     1.0000 0.15600  0.50000  0.41600  Biso   1.000  O
  O454     1.0000 0.84400  0.50000  0.41600  Biso   1.000  O
  O455     1.0000 0.58400  0.15600  0.50000  Biso   1.000  O
  O456     1.0000 0.41600  0.15600  0.50000  Biso   1.000  O
  O457     1.0000 0.41600  0.84400  0.50000  Biso   1.000  O
  O458     1.0000 0.50000  0.58400  0.15600  Biso   1.000  O
  O459     1.0000 0.50000  0.41600  0.15600  Biso   1.000  O
  O460     1.0000 0.50000  0.41600  0.84400  Biso   1.000  O
  O461     1.0000 0.35100  0.45510  0.00000  Biso   1.000  O
  O462     1.0000 0.00000  0.35100  0.45510  Biso   1.000  O
  O463     1.0000 0.45510  0.00000  0.35100  Biso   1.000  O
  O464     1.0000 0.85100  0.95510  0.50000  Biso   1.000  O
  O465     1.0000 0.50000  0.85100  0.95510  Biso   1.000  O
  O466     1.0000 0.95510  0.50000  0.85100  Biso   1.000  O
  O467     1.0000 0.64900  0.54490  0.00000  Biso   1.000  O
  O468     1.0000 0.64900  0.45510  0.00000  Biso   1.000  O
  O469     1.0000 0.35100  0.54490  0.00000  Biso   1.000  O
  O470     1.0000 0.00000  0.64900  0.54490  Biso   1.000  O
  O471     1.0000 0.00000  0.64900  0.45510  Biso   1.000  O
  O472     1.0000 0.00000  0.35100  0.54490  Biso   1.000  O
  O473     1.0000 0.54490  0.00000  0.64900  Biso   1.000  O
  O474     1.0000 0.45510  0.00000  0.64900  Biso   1.000  O
  O475     1.0000 0.54490  0.00000  0.35100  Biso   1.000  O
  O476     1.0000 0.14900  0.04490  0.50000  Biso   1.000  O
  O477     1.0000 0.14900  0.95510  0.50000  Biso   1.000  O
  O478     1.0000 0.85100  0.04490  0.50000  Biso   1.000  O
  O479     1.0000 0.50000  0.14900  0.04490  Biso   1.000  O
  O480     1.0000 0.50000  0.14900  0.95510  Biso   1.000  O
  O481     1.0000 0.50000  0.85100  0.04490  Biso   1.000  O
  O482     1.0000 0.04490  0.50000  0.14900  Biso   1.000  O
  O483     1.0000 0.95510  0.50000  0.14900  Biso   1.000  O
  O484     1.0000 0.04490  0.50000  0.85100  Biso   1.000  O
  O485     1.0000 0.41650  0.02730  0.00000  Biso   1.000  O
  O486     1.0000 0.00000  0.41650  0.02730  Biso   1.000  O
  O487     1.0000 0.02730  0.00000  0.41650  Biso   1.000  O
  O488     1.0000 0.91650  0.52730  0.50000  Biso   1.000  O
  O489     1.0000 0.50000  0.91650  0.52730  Biso   1.000  O
  O490     1.0000 0.52730  0.50000  0.91650  Biso   1.000  O
  O491     1.0000 0.58350  0.97270  0.00000  Biso   1.000  O
  O492     1.0000 0.58350  0.02730  0.00000  Biso   1.000  O
  O493     1.0000 0.41650  0.97270  0.00000  Biso   1.000  O
  O494     1.0000 0.00000  0.58350  0.97270  Biso   1.000  O
  O495     1.0000 0.00000  0.58350  0.02730  Biso   1.000  O
  O496     1.0000 0.00000  0.41650  0.97270  Biso   1.000  O
  O497     1.0000 0.97270  0.00000  0.58350  Biso   1.000  O
  O498     1.0000 0.02730  0.00000  0.58350  Biso   1.000  O
  O499     1.0000 0.97270  0.00000  0.41650  Biso   1.000  O
  O500     1.0000 0.08350  0.47270  0.50000  Biso   1.000  O
  O501     1.0000 0.08350  0.52730  0.50000  Biso   1.000  O
  O502     1.0000 0.91650  0.47270  0.50000  Biso   1.000  O
  O503     1.0000 0.50000  0.08350  0.47270  Biso   1.000  O
  O504     1.0000 0.50000  0.08350  0.52730  Biso   1.000  O
  O505     1.0000 0.50000  0.91650  0.47270  Biso   1.000  O
  O506     1.0000 0.47270  0.50000  0.08350  Biso   1.000  O
  O507     1.0000 0.52730  0.50000  0.08350  Biso   1.000  O
  O508     1.0000 0.47270  0.50000  0.91650  Biso   1.000  O
  O509     1.0000 0.27900  0.00000  0.16200  Biso   1.000  O
  O510     1.0000 0.16200  0.27900  0.00000  Biso   1.000  O
  O511     1.0000 0.00000  0.16200  0.27900  Biso   1.000  O
  O512     1.0000 0.77900  0.50000  0.66200  Biso   1.000  O
  O513     1.0000 0.66200  0.77900  0.50000  Biso   1.000  O
  O514     1.0000 0.50000  0.66200  0.77900  Biso   1.000  O
  O515     1.0000 0.72100  0.00000  0.16200  Biso   1.000  O
  O516     1.0000 0.72100  0.00000  0.83800  Biso   1.000  O
  O517     1.0000 0.27900  0.00000  0.83800  Biso   1.000  O
  O518     1.0000 0.16200  0.72100  0.00000  Biso   1.000  O
  O519     1.0000 0.83800  0.72100  0.00000  Biso   1.000  O
  O520     1.0000 0.83800  0.27900  0.00000  Biso   1.000  O
  O521     1.0000 0.00000  0.16200  0.72100  Biso   1.000  O
  O522     1.0000 0.00000  0.83800  0.72100  Biso   1.000  O
  O523     1.0000 0.00000  0.83800  0.27900  Biso   1.000  O
  O524     1.0000 0.22100  0.50000  0.66200  Biso   1.000  O
  O525     1.0000 0.22100  0.50000  0.33800  Biso   1.000  O
  O526     1.0000 0.77900  0.50000  0.33800  Biso   1.000  O
  O527     1.0000 0.66200  0.22100  0.50000  Biso   1.000  O
  O528     1.0000 0.33800  0.22100  0.50000  Biso   1.000  O
  O529     1.0000 0.33800  0.77900  0.50000  Biso   1.000  O
  O530     1.0000 0.50000  0.66200  0.22100  Biso   1.000  O
  O531     1.0000 0.50000  0.33800  0.22100  Biso   1.000  O
  O532     1.0000 0.50000  0.33800  0.77900  Biso   1.000  O
  O533     1.0000 0.37200  0.14000  0.00000  Biso   1.000  O
  O534     1.0000 0.00000  0.37200  0.14000  Biso   1.000  O
  O535     1.0000 0.14000  0.00000  0.37200  Biso   1.000  O
  O536     1.0000 0.87200  0.64000  0.50000  Biso   1.000  O
  O537     1.0000 0.50000  0.87200  0.64000  Biso   1.000  O
  O538     1.0000 0.64000  0.50000  0.87200  Biso   1.000  O
  O539     1.0000 0.62800  0.86000  0.00000  Biso   1.000  O
  O540     1.0000 0.62800  0.14000  0.00000  Biso   1.000  O
  O541     1.0000 0.37200  0.86000  0.00000  Biso   1.000  O
  O542     1.0000 0.00000  0.62800  0.86000  Biso   1.000  O
  O543     1.0000 0.00000  0.62800  0.14000  Biso   1.000  O
  O544     1.0000 0.00000  0.37200  0.86000  Biso   1.000  O
  O545     1.0000 0.86000  0.00000  0.62800  Biso   1.000  O
  O546     1.0000 0.14000  0.00000  0.62800  Biso   1.000  O
  O547     1.0000 0.86000  0.00000  0.37200  Biso   1.000  O
  O548     1.0000 0.12800  0.36000  0.50000  Biso   1.000  O
  O549     1.0000 0.12800  0.64000  0.50000  Biso   1.000  O
  O550     1.0000 0.87200  0.36000  0.50000  Biso   1.000  O
  O551     1.0000 0.50000  0.12800  0.36000  Biso   1.000  O
  O552     1.0000 0.50000  0.12800  0.64000  Biso   1.000  O
  O553     1.0000 0.50000  0.87200  0.36000  Biso   1.000  O
  O554     1.0000 0.36000  0.50000  0.12800  Biso   1.000  O
  O555     1.0000 0.64000  0.50000  0.12800  Biso   1.000  O
  O556     1.0000 0.36000  0.50000  0.87200  Biso   1.000  O
