data_image0
_cell_length_a       17.7705
_cell_length_b       22.3871
_cell_length_c       23.521
_cell_angle_alpha    90
_cell_angle_beta     90
_cell_angle_gamma    90

_symmetry_space_group_name_H-M    "P 1"
_symmetry_int_tables_number       1

loop_
  _symmetry_equiv_pos_as_xyz
  'x, y, z'

loop_
  _atom_site_label
  _atom_site_occupancy
  _atom_site_fract_x
  _atom_site_fract_y
  _atom_site_fract_z
  _atom_site_thermal_displace_type
  _atom_site_B_iso_or_equiv
  _atom_site_type_symbol
  C1       1.0000 0.30280  0.85200  0.90080  Biso   1.000  C
  C2       1.0000 0.19720  0.14800  0.40080  Biso   1.000  C
  C3       1.0000 0.69720  0.35200  0.59920  Biso   1.000  C
  C4       1.0000 0.80280  0.64800  0.09920  Biso   1.000  C
  C5       1.0000 0.69720  0.14800  0.09920  Biso   1.000  C
  C6       1.0000 0.80280  0.85200  0.59920  Biso   1.000  C
  C7       1.0000 0.30280  0.64800  0.40080  Biso   1.000  C
  C8       1.0000 0.19720  0.35200  0.90080  Biso   1.000  C
  C9       1.0000 0.22330  0.83020  0.89650  Biso   1.000  C
  C10      1.0000 0.27670  0.16980  0.39650  Biso   1.000  C
  C11      1.0000 0.77670  0.33020  0.60350  Biso   1.000  C
  C12      1.0000 0.72330  0.66980  0.10350  Biso   1.000  C
  C13      1.0000 0.77670  0.16980  0.10350  Biso   1.000  C
  C14      1.0000 0.72330  0.83020  0.60350  Biso   1.000  C
  C15      1.0000 0.22330  0.66980  0.39650  Biso   1.000  C
  C16      1.0000 0.27670  0.33020  0.89650  Biso   1.000  C
  C17      1.0000 0.16680  0.86810  0.91750  Biso   1.000  C
  C18      1.0000 0.33320  0.13190  0.41750  Biso   1.000  C
  C19      1.0000 0.83320  0.36810  0.58250  Biso   1.000  C
  C20      1.0000 0.66680  0.63190  0.08250  Biso   1.000  C
  C21      1.0000 0.83320  0.13190  0.08250  Biso   1.000  C
  C22      1.0000 0.66680  0.86810  0.58250  Biso   1.000  C
  C23      1.0000 0.16680  0.63190  0.41750  Biso   1.000  C
  C24      1.0000 0.33320  0.36810  0.91750  Biso   1.000  C
  H1       1.0000 0.18010  0.90530  0.93430  Biso   1.000  H
  H2       1.0000 0.31990  0.09470  0.43430  Biso   1.000  H
  H3       1.0000 0.81990  0.40530  0.56570  Biso   1.000  H
  H4       1.0000 0.68010  0.59470  0.06570  Biso   1.000  H
  H5       1.0000 0.81990  0.09470  0.06570  Biso   1.000  H
  H6       1.0000 0.68010  0.90530  0.56570  Biso   1.000  H
  H7       1.0000 0.18010  0.59470  0.43430  Biso   1.000  H
  H8       1.0000 0.31990  0.40530  0.93430  Biso   1.000  H
  C25      1.0000 0.09170  0.85170  0.91390  Biso   1.000  C
  C26      1.0000 0.40830  0.14830  0.41390  Biso   1.000  C
  C27      1.0000 0.90830  0.35170  0.58610  Biso   1.000  C
  C28      1.0000 0.59170  0.64830  0.08610  Biso   1.000  C
  C29      1.0000 0.90830  0.14830  0.08610  Biso   1.000  C
  C30      1.0000 0.59170  0.85170  0.58610  Biso   1.000  C
  C31      1.0000 0.09170  0.64830  0.41390  Biso   1.000  C
  C32      1.0000 0.40830  0.35170  0.91390  Biso   1.000  C
  H9       1.0000 0.05350  0.87770  0.92760  Biso   1.000  H
  H10      1.0000 0.44650  0.12230  0.42760  Biso   1.000  H
  H11      1.0000 0.94650  0.37770  0.57240  Biso   1.000  H
  H12      1.0000 0.55350  0.62230  0.07240  Biso   1.000  H
  H13      1.0000 0.94650  0.12230  0.07240  Biso   1.000  H
  H14      1.0000 0.55350  0.87770  0.57240  Biso   1.000  H
  H15      1.0000 0.05350  0.62230  0.42760  Biso   1.000  H
  H16      1.0000 0.44650  0.37770  0.92760  Biso   1.000  H
  C33      1.0000 0.07260  0.79620  0.89000  Biso   1.000  C
  C34      1.0000 0.42740  0.20380  0.39000  Biso   1.000  C
  C35      1.0000 0.92740  0.29620  0.61000  Biso   1.000  C
  C36      1.0000 0.57260  0.70380  0.11000  Biso   1.000  C
  C37      1.0000 0.92740  0.20380  0.11000  Biso   1.000  C
  C38      1.0000 0.57260  0.79620  0.61000  Biso   1.000  C
  C39      1.0000 0.07260  0.70380  0.39000  Biso   1.000  C
  C40      1.0000 0.42740  0.29620  0.89000  Biso   1.000  C
  H17      1.0000 0.02120  0.78500  0.88670  Biso   1.000  H
  H18      1.0000 0.47880  0.21500  0.38670  Biso   1.000  H
  H19      1.0000 0.97880  0.28500  0.61330  Biso   1.000  H
  H20      1.0000 0.52120  0.71500  0.11330  Biso   1.000  H
  H21      1.0000 0.97880  0.21500  0.11330  Biso   1.000  H
  H22      1.0000 0.52120  0.78500  0.61330  Biso   1.000  H
  H23      1.0000 0.02120  0.71500  0.38670  Biso   1.000  H
  H24      1.0000 0.47880  0.28500  0.88670  Biso   1.000  H
  C41      1.0000 0.12790  0.75830  0.87150  Biso   1.000  C
  C42      1.0000 0.37210  0.24170  0.37150  Biso   1.000  C
  C43      1.0000 0.87210  0.25830  0.62850  Biso   1.000  C
  C44      1.0000 0.62790  0.74170  0.12850  Biso   1.000  C
  C45      1.0000 0.87210  0.24170  0.12850  Biso   1.000  C
  C46      1.0000 0.62790  0.75830  0.62850  Biso   1.000  C
  C47      1.0000 0.12790  0.74170  0.37150  Biso   1.000  C
  C48      1.0000 0.37210  0.25830  0.87150  Biso   1.000  C
  H25      1.0000 0.11400  0.72010  0.85720  Biso   1.000  H
  H26      1.0000 0.38600  0.27990  0.35720  Biso   1.000  H
  H27      1.0000 0.88600  0.22010  0.64280  Biso   1.000  H
  H28      1.0000 0.61400  0.77990  0.14280  Biso   1.000  H
  H29      1.0000 0.88600  0.27990  0.14280  Biso   1.000  H
  H30      1.0000 0.61400  0.72010  0.64280  Biso   1.000  H
  H31      1.0000 0.11400  0.77990  0.35720  Biso   1.000  H
  H32      1.0000 0.38600  0.22010  0.85720  Biso   1.000  H
  C49      1.0000 0.20400  0.77380  0.87290  Biso   1.000  C
  C50      1.0000 0.29600  0.22620  0.37290  Biso   1.000  C
  C51      1.0000 0.79600  0.27380  0.62710  Biso   1.000  C
  C52      1.0000 0.70400  0.72620  0.12710  Biso   1.000  C
  C53      1.0000 0.79600  0.22620  0.12710  Biso   1.000  C
  C54      1.0000 0.70400  0.77380  0.62710  Biso   1.000  C
  C55      1.0000 0.20400  0.72620  0.37290  Biso   1.000  C
  C56      1.0000 0.29600  0.27380  0.87290  Biso   1.000  C
  C57      1.0000 0.42890  0.66240  0.61850  Biso   1.000  C
  C58      1.0000 0.07110  0.33760  0.11850  Biso   1.000  C
  C59      1.0000 0.57110  0.16240  0.88150  Biso   1.000  C
  C60      1.0000 0.92890  0.83760  0.38150  Biso   1.000  C
  C61      1.0000 0.57110  0.33760  0.38150  Biso   1.000  C
  C62      1.0000 0.92890  0.66240  0.88150  Biso   1.000  C
  C63      1.0000 0.42890  0.83760  0.11850  Biso   1.000  C
  C64      1.0000 0.07110  0.16240  0.61850  Biso   1.000  C
  C65      1.0000 0.38540  0.71400  0.59710  Biso   1.000  C
  C66      1.0000 0.11460  0.28600  0.09710  Biso   1.000  C
  C67      1.0000 0.61460  0.21400  0.90290  Biso   1.000  C
  C68      1.0000 0.88540  0.78600  0.40290  Biso   1.000  C
  C69      1.0000 0.61460  0.28600  0.40290  Biso   1.000  C
  C70      1.0000 0.88540  0.71400  0.90290  Biso   1.000  C
  C71      1.0000 0.38540  0.78600  0.09710  Biso   1.000  C
  C72      1.0000 0.11460  0.21400  0.59710  Biso   1.000  C
  C73      1.0000 0.35690  0.71250  0.54150  Biso   1.000  C
  C74      1.0000 0.14310  0.28750  0.04150  Biso   1.000  C
  C75      1.0000 0.64310  0.21250  0.95850  Biso   1.000  C
  C76      1.0000 0.85690  0.78750  0.45850  Biso   1.000  C
  C77      1.0000 0.64310  0.28750  0.45850  Biso   1.000  C
  C78      1.0000 0.85690  0.71250  0.95850  Biso   1.000  C
  C79      1.0000 0.35690  0.78750  0.04150  Biso   1.000  C
  C80      1.0000 0.14310  0.21250  0.54150  Biso   1.000  C
  H33      1.0000 0.36460  0.67740  0.51950  Biso   1.000  H
  H34      1.0000 0.13540  0.32260  0.01950  Biso   1.000  H
  H35      1.0000 0.63540  0.17740  0.98050  Biso   1.000  H
  H36      1.0000 0.86460  0.82260  0.48050  Biso   1.000  H
  H37      1.0000 0.63540  0.32260  0.48050  Biso   1.000  H
  H38      1.0000 0.86460  0.67740  0.98050  Biso   1.000  H
  H39      1.0000 0.36460  0.82260  0.01950  Biso   1.000  H
  H40      1.0000 0.13540  0.17740  0.51950  Biso   1.000  H
  C81      1.0000 0.31770  0.76010  0.51690  Biso   1.000  C
  C82      1.0000 0.18230  0.23990  0.01690  Biso   1.000  C
  C83      1.0000 0.68230  0.26010  0.98310  Biso   1.000  C
  C84      1.0000 0.81770  0.73990  0.48310  Biso   1.000  C
  C85      1.0000 0.68230  0.23990  0.48310  Biso   1.000  C
  C86      1.0000 0.81770  0.76010  0.98310  Biso   1.000  C
  C87      1.0000 0.31770  0.73990  0.01690  Biso   1.000  C
  C88      1.0000 0.18230  0.26010  0.51690  Biso   1.000  C
  H41      1.0000 0.29740  0.75690  0.47970  Biso   1.000  H
  H42      1.0000 0.20260  0.24310  0.97970  Biso   1.000  H
  H43      1.0000 0.70260  0.25690  0.02030  Biso   1.000  H
  H44      1.0000 0.79740  0.74310  0.52030  Biso   1.000  H
  H45      1.0000 0.70260  0.24310  0.52030  Biso   1.000  H
  H46      1.0000 0.79740  0.75690  0.02030  Biso   1.000  H
  H47      1.0000 0.29740  0.74310  0.97970  Biso   1.000  H
  H48      1.0000 0.20260  0.25690  0.47970  Biso   1.000  H
  C89      1.0000 0.30940  0.81170  0.54790  Biso   1.000  C
  C90      1.0000 0.19060  0.18830  0.04790  Biso   1.000  C
  C91      1.0000 0.69060  0.31170  0.95210  Biso   1.000  C
  C92      1.0000 0.80940  0.68830  0.45210  Biso   1.000  C
  C93      1.0000 0.69060  0.18830  0.45210  Biso   1.000  C
  C94      1.0000 0.80940  0.81170  0.95210  Biso   1.000  C
  C95      1.0000 0.30940  0.68830  0.04790  Biso   1.000  C
  C96      1.0000 0.19060  0.31170  0.54790  Biso   1.000  C
  H49      1.0000 0.28580  0.84550  0.53130  Biso   1.000  H
  H50      1.0000 0.21420  0.15450  0.03130  Biso   1.000  H
  H51      1.0000 0.71420  0.34550  0.96870  Biso   1.000  H
  H52      1.0000 0.78580  0.65450  0.46870  Biso   1.000  H
  H53      1.0000 0.71420  0.15450  0.46870  Biso   1.000  H
  H54      1.0000 0.78580  0.84550  0.96870  Biso   1.000  H
  H55      1.0000 0.28580  0.65450  0.03130  Biso   1.000  H
  H56      1.0000 0.21420  0.34550  0.53130  Biso   1.000  H
  C97      1.0000 0.33550  0.81450  0.60340  Biso   1.000  C
  C98      1.0000 0.16450  0.18550  0.10340  Biso   1.000  C
  C99      1.0000 0.66450  0.31450  0.89660  Biso   1.000  C
  C100     1.0000 0.83550  0.68550  0.39660  Biso   1.000  C
  C101     1.0000 0.66450  0.18550  0.39660  Biso   1.000  C
  C102     1.0000 0.83550  0.81450  0.89660  Biso   1.000  C
  C103     1.0000 0.33550  0.68550  0.10340  Biso   1.000  C
  C104     1.0000 0.16450  0.31450  0.60340  Biso   1.000  C
  H57      1.0000 0.32770  0.85020  0.62450  Biso   1.000  H
  H58      1.0000 0.17230  0.14980  0.12450  Biso   1.000  H
  H59      1.0000 0.67230  0.35020  0.87550  Biso   1.000  H
  H60      1.0000 0.82770  0.64980  0.37550  Biso   1.000  H
  H61      1.0000 0.67230  0.14980  0.37550  Biso   1.000  H
  H62      1.0000 0.82770  0.85020  0.87550  Biso   1.000  H
  H63      1.0000 0.32770  0.64980  0.12450  Biso   1.000  H
  H64      1.0000 0.17230  0.35020  0.62450  Biso   1.000  H
  C105     1.0000 0.37300  0.76640  0.62980  Biso   1.000  C
  C106     1.0000 0.12700  0.23360  0.12980  Biso   1.000  C
  C107     1.0000 0.62700  0.26640  0.87020  Biso   1.000  C
  C108     1.0000 0.87300  0.73360  0.37020  Biso   1.000  C
  C109     1.0000 0.62700  0.23360  0.37020  Biso   1.000  C
  C110     1.0000 0.87300  0.76640  0.87020  Biso   1.000  C
  C111     1.0000 0.37300  0.73360  0.12980  Biso   1.000  C
  C112     1.0000 0.12700  0.26640  0.62980  Biso   1.000  C
  C113     1.0000 0.47560  0.83230  0.78530  Biso   1.000  C
  C114     1.0000 0.02440  0.16770  0.28530  Biso   1.000  C
  C115     1.0000 0.52440  0.33230  0.71470  Biso   1.000  C
  C116     1.0000 0.97560  0.66770  0.21470  Biso   1.000  C
  C117     1.0000 0.52440  0.16770  0.21470  Biso   1.000  C
  C118     1.0000 0.97560  0.83230  0.71470  Biso   1.000  C
  C119     1.0000 0.47560  0.66770  0.28530  Biso   1.000  C
  C120     1.0000 0.02440  0.33230  0.78530  Biso   1.000  C
  H65      1.0000 0.46730  0.85610  0.82020  Biso   1.000  H
  H66      1.0000 0.03270  0.14390  0.32020  Biso   1.000  H
  H67      1.0000 0.53270  0.35610  0.67980  Biso   1.000  H
  H68      1.0000 0.96730  0.64390  0.17980  Biso   1.000  H
  H69      1.0000 0.53270  0.14390  0.17980  Biso   1.000  H
  H70      1.0000 0.96730  0.85610  0.67980  Biso   1.000  H
  H71      1.0000 0.46730  0.64390  0.32020  Biso   1.000  H
  H72      1.0000 0.03270  0.35610  0.82020  Biso   1.000  H
  H73      1.0000 0.44800  0.85160  0.75370  Biso   1.000  H
  H74      1.0000 0.05200  0.14840  0.25370  Biso   1.000  H
  H75      1.0000 0.55200  0.35160  0.74630  Biso   1.000  H
  H76      1.0000 0.94800  0.64840  0.24630  Biso   1.000  H
  H77      1.0000 0.55200  0.14840  0.24630  Biso   1.000  H
  H78      1.0000 0.94800  0.85160  0.74630  Biso   1.000  H
  H79      1.0000 0.44800  0.64840  0.25370  Biso   1.000  H
  H80      1.0000 0.05200  0.35160  0.75370  Biso   1.000  H
  C121     1.0000 0.55840  0.82980  0.77170  Biso   1.000  C
  C122     1.0000 0.94160  0.17020  0.27170  Biso   1.000  C
  C123     1.0000 0.44160  0.32980  0.72830  Biso   1.000  C
  C124     1.0000 0.05840  0.67020  0.22830  Biso   1.000  C
  C125     1.0000 0.44160  0.17020  0.22830  Biso   1.000  C
  C126     1.0000 0.05840  0.82980  0.72830  Biso   1.000  C
  C127     1.0000 0.55840  0.67020  0.27170  Biso   1.000  C
  C128     1.0000 0.94160  0.32980  0.77170  Biso   1.000  C
  H81      1.0000 0.56500  0.80940  0.73470  Biso   1.000  H
  H82      1.0000 0.93500  0.19060  0.23470  Biso   1.000  H
  H83      1.0000 0.43500  0.30940  0.76530  Biso   1.000  H
  H84      1.0000 0.06500  0.69060  0.26530  Biso   1.000  H
  H85      1.0000 0.43500  0.19060  0.26530  Biso   1.000  H
  H86      1.0000 0.06500  0.80940  0.76530  Biso   1.000  H
  H87      1.0000 0.56500  0.69060  0.23470  Biso   1.000  H
  H88      1.0000 0.93500  0.30940  0.73470  Biso   1.000  H
  H89      1.0000 0.57740  0.87110  0.76740  Biso   1.000  H
  H90      1.0000 0.92260  0.12890  0.26740  Biso   1.000  H
  H91      1.0000 0.42260  0.37110  0.73260  Biso   1.000  H
  H92      1.0000 0.07740  0.62890  0.23260  Biso   1.000  H
  H93      1.0000 0.42260  0.12890  0.23260  Biso   1.000  H
  H94      1.0000 0.07740  0.87110  0.73260  Biso   1.000  H
  H95      1.0000 0.57740  0.62890  0.26740  Biso   1.000  H
  H96      1.0000 0.92260  0.37110  0.76740  Biso   1.000  H
  C129     1.0000 0.67890  0.78290  0.78920  Biso   1.000  C
  C130     1.0000 0.82110  0.21710  0.28920  Biso   1.000  C
  C131     1.0000 0.32110  0.28290  0.71080  Biso   1.000  C
  C132     1.0000 0.17890  0.71710  0.21080  Biso   1.000  C
  C133     1.0000 0.32110  0.21710  0.21080  Biso   1.000  C
  C134     1.0000 0.17890  0.78290  0.71080  Biso   1.000  C
  C135     1.0000 0.67890  0.71710  0.28920  Biso   1.000  C
  C136     1.0000 0.82110  0.28290  0.78920  Biso   1.000  C
  H97      1.0000 0.67060  0.75430  0.75770  Biso   1.000  H
  H98      1.0000 0.82940  0.24570  0.25770  Biso   1.000  H
  H99      1.0000 0.32940  0.25430  0.74230  Biso   1.000  H
  H100     1.0000 0.17060  0.74570  0.24230  Biso   1.000  H
  H101     1.0000 0.32940  0.24570  0.24230  Biso   1.000  H
  H102     1.0000 0.17060  0.75430  0.74230  Biso   1.000  H
  H103     1.0000 0.67060  0.74570  0.25770  Biso   1.000  H
  H104     1.0000 0.82940  0.25430  0.75770  Biso   1.000  H
  H105     1.0000 0.71000  0.76270  0.81830  Biso   1.000  H
  H106     1.0000 0.79000  0.23730  0.31830  Biso   1.000  H
  H107     1.0000 0.29000  0.26270  0.68170  Biso   1.000  H
  H108     1.0000 0.21000  0.73730  0.18170  Biso   1.000  H
  H109     1.0000 0.29000  0.23730  0.18170  Biso   1.000  H
  H110     1.0000 0.21000  0.76270  0.68170  Biso   1.000  H
  H111     1.0000 0.71000  0.73730  0.31830  Biso   1.000  H
  H112     1.0000 0.79000  0.26270  0.81830  Biso   1.000  H
  C137     1.0000 0.72180  0.83680  0.76650  Biso   1.000  C
  C138     1.0000 0.77820  0.16320  0.26650  Biso   1.000  C
  C139     1.0000 0.27820  0.33680  0.73350  Biso   1.000  C
  C140     1.0000 0.22180  0.66320  0.23350  Biso   1.000  C
  C141     1.0000 0.27820  0.16320  0.23350  Biso   1.000  C
  C142     1.0000 0.22180  0.83680  0.73350  Biso   1.000  C
  C143     1.0000 0.72180  0.66320  0.26650  Biso   1.000  C
  C144     1.0000 0.77820  0.33680  0.76650  Biso   1.000  C
  H113     1.0000 0.69310  0.85520  0.73490  Biso   1.000  H
  H114     1.0000 0.80690  0.14480  0.23490  Biso   1.000  H
  H115     1.0000 0.30690  0.35520  0.76510  Biso   1.000  H
  H116     1.0000 0.19310  0.64480  0.26510  Biso   1.000  H
  H117     1.0000 0.30690  0.14480  0.26510  Biso   1.000  H
  H118     1.0000 0.19310  0.85520  0.76510  Biso   1.000  H
  H119     1.0000 0.69310  0.64480  0.23490  Biso   1.000  H
  H120     1.0000 0.80690  0.35520  0.73490  Biso   1.000  H
  H121     1.0000 0.72720  0.86690  0.79700  Biso   1.000  H
  H122     1.0000 0.77280  0.13310  0.29700  Biso   1.000  H
  H123     1.0000 0.27280  0.36690  0.70300  Biso   1.000  H
  H124     1.0000 0.22720  0.63310  0.20300  Biso   1.000  H
  H125     1.0000 0.27280  0.13310  0.20300  Biso   1.000  H
  H126     1.0000 0.22720  0.86690  0.70300  Biso   1.000  H
  H127     1.0000 0.72720  0.63310  0.29700  Biso   1.000  H
  H128     1.0000 0.77280  0.36690  0.79700  Biso   1.000  H
  C145     1.0000 0.61330  0.83550  0.86680  Biso   1.000  C
  C146     1.0000 0.88670  0.16450  0.36680  Biso   1.000  C
  C147     1.0000 0.38670  0.33550  0.63320  Biso   1.000  C
  C148     1.0000 0.11330  0.66450  0.13320  Biso   1.000  C
  C149     1.0000 0.38670  0.16450  0.13320  Biso   1.000  C
  C150     1.0000 0.11330  0.83550  0.63320  Biso   1.000  C
  C151     1.0000 0.61330  0.66450  0.36680  Biso   1.000  C
  C152     1.0000 0.88670  0.33550  0.86680  Biso   1.000  C
  H129     1.0000 0.66530  0.83080  0.88140  Biso   1.000  H
  H130     1.0000 0.83470  0.16920  0.38140  Biso   1.000  H
  H131     1.0000 0.33470  0.33080  0.61860  Biso   1.000  H
  H132     1.0000 0.16530  0.66920  0.11860  Biso   1.000  H
  H133     1.0000 0.33470  0.16920  0.11860  Biso   1.000  H
  H134     1.0000 0.16530  0.83080  0.61860  Biso   1.000  H
  H135     1.0000 0.66530  0.66920  0.38140  Biso   1.000  H
  H136     1.0000 0.83470  0.33080  0.88140  Biso   1.000  H
  H137     1.0000 0.60600  0.87800  0.85680  Biso   1.000  H
  H138     1.0000 0.89400  0.12200  0.35680  Biso   1.000  H
  H139     1.0000 0.39400  0.37800  0.64320  Biso   1.000  H
  H140     1.0000 0.10600  0.62200  0.14320  Biso   1.000  H
  H141     1.0000 0.39400  0.12200  0.14320  Biso   1.000  H
  H142     1.0000 0.10600  0.87800  0.64320  Biso   1.000  H
  H143     1.0000 0.60600  0.62200  0.35680  Biso   1.000  H
  H144     1.0000 0.89400  0.37800  0.85680  Biso   1.000  H
  C153     1.0000 0.55990  0.81910  0.91200  Biso   1.000  C
  C154     1.0000 0.94010  0.18090  0.41200  Biso   1.000  C
  C155     1.0000 0.44010  0.31910  0.58800  Biso   1.000  C
  C156     1.0000 0.05990  0.68090  0.08800  Biso   1.000  C
  C157     1.0000 0.44010  0.18090  0.08800  Biso   1.000  C
  C158     1.0000 0.05990  0.81910  0.58800  Biso   1.000  C
  C159     1.0000 0.55990  0.68090  0.41200  Biso   1.000  C
  C160     1.0000 0.94010  0.31910  0.91200  Biso   1.000  C
  H145     1.0000 0.57600  0.83770  0.94820  Biso   1.000  H
  H146     1.0000 0.92400  0.16230  0.44820  Biso   1.000  H
  H147     1.0000 0.42400  0.33770  0.55180  Biso   1.000  H
  H148     1.0000 0.07600  0.66230  0.05180  Biso   1.000  H
  H149     1.0000 0.42400  0.16230  0.05180  Biso   1.000  H
  H150     1.0000 0.07600  0.83770  0.55180  Biso   1.000  H
  H151     1.0000 0.57600  0.66230  0.44820  Biso   1.000  H
  H152     1.0000 0.92400  0.33770  0.94820  Biso   1.000  H
  H153     1.0000 0.50940  0.83490  0.90240  Biso   1.000  H
  H154     1.0000 0.99060  0.16510  0.40240  Biso   1.000  H
  H155     1.0000 0.49060  0.33490  0.59760  Biso   1.000  H
  H156     1.0000 0.00940  0.66510  0.09760  Biso   1.000  H
  H157     1.0000 0.49060  0.16510  0.09760  Biso   1.000  H
  H158     1.0000 0.00940  0.83490  0.59760  Biso   1.000  H
  H159     1.0000 0.50940  0.66510  0.40240  Biso   1.000  H
  H160     1.0000 0.99060  0.33490  0.90240  Biso   1.000  H
  C161     1.0000 0.62510  0.73480  0.95450  Biso   1.000  C
  C162     1.0000 0.87490  0.26520  0.45450  Biso   1.000  C
  C163     1.0000 0.37490  0.23480  0.54550  Biso   1.000  C
  C164     1.0000 0.12510  0.76520  0.04550  Biso   1.000  C
  C165     1.0000 0.37490  0.26520  0.04550  Biso   1.000  C
  C166     1.0000 0.12510  0.73480  0.54550  Biso   1.000  C
  C167     1.0000 0.62510  0.76520  0.45450  Biso   1.000  C
  C168     1.0000 0.87490  0.23480  0.95450  Biso   1.000  C
  H161     1.0000 0.66560  0.76460  0.94840  Biso   1.000  H
  H162     1.0000 0.83440  0.23540  0.44840  Biso   1.000  H
  H163     1.0000 0.33440  0.26460  0.55160  Biso   1.000  H
  H164     1.0000 0.16560  0.73540  0.05160  Biso   1.000  H
  H165     1.0000 0.33440  0.23540  0.05160  Biso   1.000  H
  H166     1.0000 0.16560  0.76460  0.55160  Biso   1.000  H
  H167     1.0000 0.66560  0.73540  0.44840  Biso   1.000  H
  H168     1.0000 0.83440  0.26460  0.94840  Biso   1.000  H
  H169     1.0000 0.61190  0.73550  0.99530  Biso   1.000  H
  H170     1.0000 0.88810  0.26450  0.49530  Biso   1.000  H
  H171     1.0000 0.38810  0.23550  0.50470  Biso   1.000  H
  H172     1.0000 0.11190  0.76450  0.00470  Biso   1.000  H
  H173     1.0000 0.38810  0.26450  0.00470  Biso   1.000  H
  H174     1.0000 0.11190  0.73550  0.50470  Biso   1.000  H
  H175     1.0000 0.61190  0.76450  0.49530  Biso   1.000  H
  H176     1.0000 0.88810  0.23550  0.99530  Biso   1.000  H
  C169     1.0000 0.65480  0.67460  0.94000  Biso   1.000  C
  C170     1.0000 0.84520  0.32540  0.44000  Biso   1.000  C
  C171     1.0000 0.34520  0.17460  0.56000  Biso   1.000  C
  C172     1.0000 0.15480  0.82540  0.06000  Biso   1.000  C
  C173     1.0000 0.34520  0.32540  0.06000  Biso   1.000  C
  C174     1.0000 0.15480  0.67460  0.56000  Biso   1.000  C
  C175     1.0000 0.65480  0.82540  0.44000  Biso   1.000  C
  C176     1.0000 0.84520  0.17460  0.94000  Biso   1.000  C
  H177     1.0000 0.70020  0.66610  0.96300  Biso   1.000  H
  H178     1.0000 0.79980  0.33390  0.46300  Biso   1.000  H
  H179     1.0000 0.29980  0.16610  0.53700  Biso   1.000  H
  H180     1.0000 0.20020  0.83390  0.03700  Biso   1.000  H
  H181     1.0000 0.29980  0.33390  0.03700  Biso   1.000  H
  H182     1.0000 0.20020  0.66610  0.53700  Biso   1.000  H
  H183     1.0000 0.70020  0.83390  0.46300  Biso   1.000  H
  H184     1.0000 0.79980  0.16610  0.96300  Biso   1.000  H
  H185     1.0000 0.61640  0.64380  0.94890  Biso   1.000  H
  H186     1.0000 0.88360  0.35620  0.44890  Biso   1.000  H
  H187     1.0000 0.38360  0.14380  0.55110  Biso   1.000  H
  H188     1.0000 0.11640  0.85620  0.05110  Biso   1.000  H
  H189     1.0000 0.38360  0.35620  0.05110  Biso   1.000  H
  H190     1.0000 0.11640  0.64380  0.55110  Biso   1.000  H
  H191     1.0000 0.61640  0.85620  0.44890  Biso   1.000  H
  H192     1.0000 0.88360  0.14380  0.94890  Biso   1.000  H
  C177     1.0000 0.48860  0.73350  0.94760  Biso   1.000  C
  C178     1.0000 0.01140  0.26650  0.44760  Biso   1.000  C
  C179     1.0000 0.51140  0.23350  0.55240  Biso   1.000  C
  C180     1.0000 0.98860  0.76650  0.05240  Biso   1.000  C
  C181     1.0000 0.51140  0.26650  0.05240  Biso   1.000  C
  C182     1.0000 0.98860  0.73350  0.55240  Biso   1.000  C
  C183     1.0000 0.48860  0.76650  0.44760  Biso   1.000  C
  C184     1.0000 0.01140  0.23350  0.94760  Biso   1.000  C
  H193     1.0000 0.44660  0.76090  0.93830  Biso   1.000  H
  H194     1.0000 0.05340  0.23910  0.43830  Biso   1.000  H
  H195     1.0000 0.55340  0.26090  0.56170  Biso   1.000  H
  H196     1.0000 0.94660  0.73910  0.06170  Biso   1.000  H
  H197     1.0000 0.55340  0.23910  0.06170  Biso   1.000  H
  H198     1.0000 0.94660  0.76090  0.56170  Biso   1.000  H
  H199     1.0000 0.44660  0.73910  0.43830  Biso   1.000  H
  H200     1.0000 0.05340  0.26090  0.93830  Biso   1.000  H
  H201     1.0000 0.49670  0.73520  0.98920  Biso   1.000  H
  H202     1.0000 0.00330  0.26480  0.48920  Biso   1.000  H
  H203     1.0000 0.50330  0.23520  0.51080  Biso   1.000  H
  H204     1.0000 0.99670  0.76480  0.01080  Biso   1.000  H
  H205     1.0000 0.50330  0.26480  0.01080  Biso   1.000  H
  H206     1.0000 0.99670  0.73520  0.51080  Biso   1.000  H
  H207     1.0000 0.49670  0.76480  0.48920  Biso   1.000  H
  H208     1.0000 0.00330  0.23520  0.98920  Biso   1.000  H
  C185     1.0000 0.46630  0.67100  0.93140  Biso   1.000  C
  C186     1.0000 0.03370  0.32900  0.43140  Biso   1.000  C
  C187     1.0000 0.53370  0.17100  0.56860  Biso   1.000  C
  C188     1.0000 0.96630  0.82900  0.06860  Biso   1.000  C
  C189     1.0000 0.53370  0.32900  0.06860  Biso   1.000  C
  C190     1.0000 0.96630  0.67100  0.56860  Biso   1.000  C
  C191     1.0000 0.46630  0.82900  0.43140  Biso   1.000  C
  C192     1.0000 0.03370  0.17100  0.93140  Biso   1.000  C
  H209     1.0000 0.49540  0.64180  0.95430  Biso   1.000  H
  H210     1.0000 0.00460  0.35820  0.45430  Biso   1.000  H
  H211     1.0000 0.50460  0.14180  0.54570  Biso   1.000  H
  H212     1.0000 0.99540  0.85820  0.04570  Biso   1.000  H
  H213     1.0000 0.50460  0.35820  0.04570  Biso   1.000  H
  H214     1.0000 0.99540  0.64180  0.54570  Biso   1.000  H
  H215     1.0000 0.49540  0.85820  0.45430  Biso   1.000  H
  H216     1.0000 0.00460  0.14180  0.95430  Biso   1.000  H
  H217     1.0000 0.41220  0.66480  0.93940  Biso   1.000  H
  H218     1.0000 0.08780  0.33520  0.43940  Biso   1.000  H
  H219     1.0000 0.58780  0.16480  0.56060  Biso   1.000  H
  H220     1.0000 0.91220  0.83520  0.06060  Biso   1.000  H
  H221     1.0000 0.58780  0.33520  0.06060  Biso   1.000  H
  H222     1.0000 0.91220  0.66480  0.56060  Biso   1.000  H
  H223     1.0000 0.41220  0.83520  0.43940  Biso   1.000  H
  H224     1.0000 0.08780  0.16480  0.93940  Biso   1.000  H
  C193     1.0000 0.57930  0.63420  0.74890  Biso   1.000  C
  C194     1.0000 0.92070  0.36580  0.24890  Biso   1.000  C
  C195     1.0000 0.42070  0.13420  0.75110  Biso   1.000  C
  C196     1.0000 0.07930  0.86580  0.25110  Biso   1.000  C
  C197     1.0000 0.42070  0.36580  0.25110  Biso   1.000  C
  C198     1.0000 0.07930  0.63420  0.75110  Biso   1.000  C
  C199     1.0000 0.57930  0.86580  0.24890  Biso   1.000  C
  C200     1.0000 0.92070  0.13420  0.74890  Biso   1.000  C
  H225     1.0000 0.63150  0.64760  0.74160  Biso   1.000  H
  H226     1.0000 0.86850  0.35240  0.24160  Biso   1.000  H
  H227     1.0000 0.36850  0.14760  0.75840  Biso   1.000  H
  H228     1.0000 0.13150  0.85240  0.25840  Biso   1.000  H
  H229     1.0000 0.36850  0.35240  0.25840  Biso   1.000  H
  H230     1.0000 0.13150  0.64760  0.75840  Biso   1.000  H
  H231     1.0000 0.63150  0.85240  0.24160  Biso   1.000  H
  H232     1.0000 0.86850  0.14760  0.74160  Biso   1.000  H
  H233     1.0000 0.55830  0.61950  0.71260  Biso   1.000  H
  H234     1.0000 0.94170  0.38050  0.21260  Biso   1.000  H
  H235     1.0000 0.44170  0.11950  0.78740  Biso   1.000  H
  H236     1.0000 0.05830  0.88050  0.28740  Biso   1.000  H
  H237     1.0000 0.44170  0.38050  0.28740  Biso   1.000  H
  H238     1.0000 0.05830  0.61950  0.78740  Biso   1.000  H
  H239     1.0000 0.55830  0.88050  0.21260  Biso   1.000  H
  H240     1.0000 0.94170  0.11950  0.71260  Biso   1.000  H
  C201     1.0000 0.58110  0.58270  0.79170  Biso   1.000  C
  C202     1.0000 0.91890  0.41730  0.29170  Biso   1.000  C
  C203     1.0000 0.41890  0.08270  0.70830  Biso   1.000  C
  C204     1.0000 0.08110  0.91730  0.20830  Biso   1.000  C
  C205     1.0000 0.41890  0.41730  0.20830  Biso   1.000  C
  C206     1.0000 0.08110  0.58270  0.70830  Biso   1.000  C
  C207     1.0000 0.58110  0.91730  0.29170  Biso   1.000  C
  C208     1.0000 0.91890  0.08270  0.79170  Biso   1.000  C
  H241     1.0000 0.61600  0.55180  0.77720  Biso   1.000  H
  H242     1.0000 0.88400  0.44820  0.27720  Biso   1.000  H
  H243     1.0000 0.38400  0.05180  0.72280  Biso   1.000  H
  H244     1.0000 0.11600  0.94820  0.22280  Biso   1.000  H
  H245     1.0000 0.38400  0.44820  0.22280  Biso   1.000  H
  H246     1.0000 0.11600  0.55180  0.72280  Biso   1.000  H
  H247     1.0000 0.61600  0.94820  0.27720  Biso   1.000  H
  H248     1.0000 0.88400  0.05180  0.77720  Biso   1.000  H
  H249     1.0000 0.60220  0.59790  0.82780  Biso   1.000  H
  H250     1.0000 0.89780  0.40210  0.32780  Biso   1.000  H
  H251     1.0000 0.39780  0.09790  0.67220  Biso   1.000  H
  H252     1.0000 0.10220  0.90210  0.17220  Biso   1.000  H
  H253     1.0000 0.39780  0.40210  0.17220  Biso   1.000  H
  H254     1.0000 0.10220  0.59790  0.67220  Biso   1.000  H
  H255     1.0000 0.60220  0.90210  0.32780  Biso   1.000  H
  H256     1.0000 0.89780  0.09790  0.82780  Biso   1.000  H
  C209     1.0000 0.55930  0.45560  0.85080  Biso   1.000  C
  C210     1.0000 0.94070  0.54440  0.35080  Biso   1.000  C
  C211     1.0000 0.44070  0.95560  0.64920  Biso   1.000  C
  C212     1.0000 0.05930  0.04440  0.14920  Biso   1.000  C
  C213     1.0000 0.44070  0.54440  0.14920  Biso   1.000  C
  C214     1.0000 0.05930  0.45560  0.64920  Biso   1.000  C
  C215     1.0000 0.55930  0.04440  0.35080  Biso   1.000  C
  C216     1.0000 0.94070  0.95560  0.85080  Biso   1.000  C
  H257     1.0000 0.55650  0.43490  0.88790  Biso   1.000  H
  H258     1.0000 0.94350  0.56510  0.38790  Biso   1.000  H
  H259     1.0000 0.44350  0.93490  0.61210  Biso   1.000  H
  H260     1.0000 0.05650  0.06510  0.11210  Biso   1.000  H
  H261     1.0000 0.44350  0.56510  0.11210  Biso   1.000  H
  H262     1.0000 0.05650  0.43490  0.61210  Biso   1.000  H
  H263     1.0000 0.55650  0.06510  0.38790  Biso   1.000  H
  H264     1.0000 0.94350  0.93490  0.88790  Biso   1.000  H
  H265     1.0000 0.53420  0.42990  0.82230  Biso   1.000  H
  H266     1.0000 0.96580  0.57010  0.32230  Biso   1.000  H
  H267     1.0000 0.46580  0.92990  0.67770  Biso   1.000  H
  H268     1.0000 0.03420  0.07010  0.17770  Biso   1.000  H
  H269     1.0000 0.46580  0.57010  0.17770  Biso   1.000  H
  H270     1.0000 0.03420  0.42990  0.67770  Biso   1.000  H
  H271     1.0000 0.53420  0.07010  0.32230  Biso   1.000  H
  H272     1.0000 0.96580  0.92990  0.82230  Biso   1.000  H
  C217     1.0000 0.51710  0.51270  0.85500  Biso   1.000  C
  C218     1.0000 0.98290  0.48730  0.35500  Biso   1.000  C
  C219     1.0000 0.48290  0.01270  0.64500  Biso   1.000  C
  C220     1.0000 0.01710  0.98730  0.14500  Biso   1.000  C
  C221     1.0000 0.48290  0.48730  0.14500  Biso   1.000  C
  C222     1.0000 0.01710  0.51270  0.64500  Biso   1.000  C
  C223     1.0000 0.51710  0.98730  0.35500  Biso   1.000  C
  C224     1.0000 0.98290  0.01270  0.85500  Biso   1.000  C
  H273     1.0000 0.54160  0.53660  0.88510  Biso   1.000  H
  H274     1.0000 0.95840  0.46340  0.38510  Biso   1.000  H
  H275     1.0000 0.45840  0.03660  0.61490  Biso   1.000  H
  H276     1.0000 0.04160  0.96340  0.11490  Biso   1.000  H
  H277     1.0000 0.45840  0.46340  0.11490  Biso   1.000  H
  H278     1.0000 0.04160  0.53660  0.61490  Biso   1.000  H
  H279     1.0000 0.54160  0.96340  0.38510  Biso   1.000  H
  H280     1.0000 0.95840  0.03660  0.88510  Biso   1.000  H
  H281     1.0000 0.46610  0.50270  0.86900  Biso   1.000  H
  H282     1.0000 0.03390  0.49730  0.36900  Biso   1.000  H
  H283     1.0000 0.53390  0.00270  0.63100  Biso   1.000  H
  H284     1.0000 0.96610  0.99730  0.13100  Biso   1.000  H
  H285     1.0000 0.53390  0.49730  0.13100  Biso   1.000  H
  H286     1.0000 0.96610  0.50270  0.63100  Biso   1.000  H
  H287     1.0000 0.46610  0.99730  0.36900  Biso   1.000  H
  H288     1.0000 0.03390  0.00270  0.86900  Biso   1.000  H
  C225     1.0000 0.47680  0.52290  0.75240  Biso   1.000  C
  C226     1.0000 0.02320  0.47710  0.25240  Biso   1.000  C
  C227     1.0000 0.52320  0.02290  0.74760  Biso   1.000  C
  C228     1.0000 0.97680  0.97710  0.24760  Biso   1.000  C
  C229     1.0000 0.52320  0.47710  0.24760  Biso   1.000  C
  C230     1.0000 0.97680  0.52290  0.74760  Biso   1.000  C
  C231     1.0000 0.47680  0.97710  0.25240  Biso   1.000  C
  C232     1.0000 0.02320  0.02290  0.75240  Biso   1.000  C
  H289     1.0000 0.50780  0.48730  0.74340  Biso   1.000  H
  H290     1.0000 0.99220  0.51270  0.24340  Biso   1.000  H
  H291     1.0000 0.49220  0.98730  0.75660  Biso   1.000  H
  H292     1.0000 0.00780  0.01270  0.25660  Biso   1.000  H
  H293     1.0000 0.49220  0.51270  0.25660  Biso   1.000  H
  H294     1.0000 0.00780  0.48730  0.75660  Biso   1.000  H
  H295     1.0000 0.50780  0.01270  0.24340  Biso   1.000  H
  H296     1.0000 0.99220  0.98730  0.74340  Biso   1.000  H
  H297     1.0000 0.47930  0.55050  0.71960  Biso   1.000  H
  H298     1.0000 0.02070  0.44950  0.21960  Biso   1.000  H
  H299     1.0000 0.52070  0.05050  0.78040  Biso   1.000  H
  H300     1.0000 0.97930  0.94950  0.28040  Biso   1.000  H
  H301     1.0000 0.52070  0.44950  0.28040  Biso   1.000  H
  H302     1.0000 0.97930  0.55050  0.78040  Biso   1.000  H
  H303     1.0000 0.47930  0.94950  0.21960  Biso   1.000  H
  H304     1.0000 0.02070  0.05050  0.71960  Biso   1.000  H
  C233     1.0000 0.39670  0.50430  0.76250  Biso   1.000  C
  C234     1.0000 0.10330  0.49570  0.26250  Biso   1.000  C
  C235     1.0000 0.60330  0.00430  0.73750  Biso   1.000  C
  C236     1.0000 0.89670  0.99570  0.23750  Biso   1.000  C
  C237     1.0000 0.60330  0.49570  0.23750  Biso   1.000  C
  C238     1.0000 0.89670  0.50430  0.73750  Biso   1.000  C
  C239     1.0000 0.39670  0.99570  0.26250  Biso   1.000  C
  C240     1.0000 0.10330  0.00430  0.76250  Biso   1.000  C
  H305     1.0000 0.37450  0.48880  0.72690  Biso   1.000  H
  H306     1.0000 0.12550  0.51120  0.22690  Biso   1.000  H
  H307     1.0000 0.62550  0.98880  0.77310  Biso   1.000  H
  H308     1.0000 0.87450  0.01120  0.27310  Biso   1.000  H
  H309     1.0000 0.62550  0.51120  0.27310  Biso   1.000  H
  H310     1.0000 0.87450  0.48880  0.77310  Biso   1.000  H
  H311     1.0000 0.37450  0.01120  0.22690  Biso   1.000  H
  H312     1.0000 0.12550  0.98880  0.72690  Biso   1.000  H
  H313     1.0000 0.39500  0.47220  0.79140  Biso   1.000  H
  H314     1.0000 0.10500  0.52780  0.29140  Biso   1.000  H
  H315     1.0000 0.60500  0.97220  0.70860  Biso   1.000  H
  H316     1.0000 0.89500  0.02780  0.20860  Biso   1.000  H
  H317     1.0000 0.60500  0.52780  0.20860  Biso   1.000  H
  H318     1.0000 0.89500  0.47220  0.70860  Biso   1.000  H
  H319     1.0000 0.39500  0.02780  0.29140  Biso   1.000  H
  H320     1.0000 0.10500  0.97220  0.79140  Biso   1.000  H
  C241     1.0000 0.31220  0.52110  0.87690  Biso   1.000  C
  C242     1.0000 0.18780  0.47890  0.37690  Biso   1.000  C
  C243     1.0000 0.68780  0.02110  0.62310  Biso   1.000  C
  C244     1.0000 0.81220  0.97890  0.12310  Biso   1.000  C
  C245     1.0000 0.68780  0.47890  0.12310  Biso   1.000  C
  C246     1.0000 0.81220  0.52110  0.62310  Biso   1.000  C
  C247     1.0000 0.31220  0.97890  0.37690  Biso   1.000  C
  C248     1.0000 0.18780  0.02110  0.87690  Biso   1.000  C
  H321     1.0000 0.26750  0.51150  0.90030  Biso   1.000  H
  H322     1.0000 0.23250  0.48850  0.40030  Biso   1.000  H
  H323     1.0000 0.73250  0.01150  0.59970  Biso   1.000  H
  H324     1.0000 0.76750  0.98850  0.09970  Biso   1.000  H
  H325     1.0000 0.73250  0.48850  0.09970  Biso   1.000  H
  H326     1.0000 0.76750  0.51150  0.59970  Biso   1.000  H
  H327     1.0000 0.26750  0.98850  0.40030  Biso   1.000  H
  H328     1.0000 0.23250  0.01150  0.90030  Biso   1.000  H
  H329     1.0000 0.34460  0.48510  0.87550  Biso   1.000  H
  H330     1.0000 0.15540  0.51490  0.37550  Biso   1.000  H
  H331     1.0000 0.65540  0.98510  0.62450  Biso   1.000  H
  H332     1.0000 0.84460  0.01490  0.12450  Biso   1.000  H
  H333     1.0000 0.65540  0.51490  0.12450  Biso   1.000  H
  H334     1.0000 0.84460  0.48510  0.62450  Biso   1.000  H
  H335     1.0000 0.34460  0.01490  0.37550  Biso   1.000  H
  H336     1.0000 0.15540  0.98510  0.87550  Biso   1.000  H
  C249     1.0000 0.28710  0.53690  0.81720  Biso   1.000  C
  C250     1.0000 0.21290  0.46310  0.31720  Biso   1.000  C
  C251     1.0000 0.71290  0.03690  0.68280  Biso   1.000  C
  C252     1.0000 0.78710  0.96310  0.18280  Biso   1.000  C
  C253     1.0000 0.71290  0.46310  0.18280  Biso   1.000  C
  C254     1.0000 0.78710  0.53690  0.68280  Biso   1.000  C
  C255     1.0000 0.28710  0.96310  0.31720  Biso   1.000  C
  C256     1.0000 0.21290  0.03690  0.81720  Biso   1.000  C
  H337     1.0000 0.26390  0.50150  0.79900  Biso   1.000  H
  H338     1.0000 0.23610  0.49850  0.29900  Biso   1.000  H
  H339     1.0000 0.73610  0.00150  0.70100  Biso   1.000  H
  H340     1.0000 0.76390  0.99850  0.20100  Biso   1.000  H
  H341     1.0000 0.73610  0.49850  0.20100  Biso   1.000  H
  H342     1.0000 0.76390  0.50150  0.70100  Biso   1.000  H
  H343     1.0000 0.26390  0.99850  0.29900  Biso   1.000  H
  H344     1.0000 0.23610  0.00150  0.79900  Biso   1.000  H
  H345     1.0000 0.24890  0.56900  0.81880  Biso   1.000  H
  H346     1.0000 0.25110  0.43100  0.31880  Biso   1.000  H
  H347     1.0000 0.75110  0.06900  0.68120  Biso   1.000  H
  H348     1.0000 0.74890  0.93100  0.18120  Biso   1.000  H
  H349     1.0000 0.75110  0.43100  0.18120  Biso   1.000  H
  H350     1.0000 0.74890  0.56900  0.68120  Biso   1.000  H
  H351     1.0000 0.24890  0.93100  0.31880  Biso   1.000  H
  H352     1.0000 0.25110  0.06900  0.81880  Biso   1.000  H
  C257     1.0000 0.32480  0.59360  0.73410  Biso   1.000  C
  C258     1.0000 0.17520  0.40640  0.23410  Biso   1.000  C
  C259     1.0000 0.67520  0.09360  0.76590  Biso   1.000  C
  C260     1.0000 0.82480  0.90640  0.26590  Biso   1.000  C
  C261     1.0000 0.67520  0.40640  0.26590  Biso   1.000  C
  C262     1.0000 0.82480  0.59360  0.76590  Biso   1.000  C
  C263     1.0000 0.32480  0.90640  0.23410  Biso   1.000  C
  C264     1.0000 0.17520  0.09360  0.73410  Biso   1.000  C
  H353     1.0000 0.28070  0.57380  0.71670  Biso   1.000  H
  H354     1.0000 0.21930  0.42620  0.21670  Biso   1.000  H
  H355     1.0000 0.71930  0.07380  0.78330  Biso   1.000  H
  H356     1.0000 0.78070  0.92620  0.28330  Biso   1.000  H
  H357     1.0000 0.71930  0.42620  0.28330  Biso   1.000  H
  H358     1.0000 0.78070  0.57380  0.78330  Biso   1.000  H
  H359     1.0000 0.28070  0.92620  0.21670  Biso   1.000  H
  H360     1.0000 0.21930  0.07380  0.71670  Biso   1.000  H
  H361     1.0000 0.36470  0.59680  0.70490  Biso   1.000  H
  H362     1.0000 0.13530  0.40320  0.20490  Biso   1.000  H
  H363     1.0000 0.63530  0.09680  0.79510  Biso   1.000  H
  H364     1.0000 0.86470  0.90320  0.29510  Biso   1.000  H
  H365     1.0000 0.63530  0.40320  0.29510  Biso   1.000  H
  H366     1.0000 0.86470  0.59680  0.79510  Biso   1.000  H
  H367     1.0000 0.36470  0.90320  0.20490  Biso   1.000  H
  H368     1.0000 0.13530  0.09680  0.70490  Biso   1.000  H
  C265     1.0000 0.30250  0.65650  0.75470  Biso   1.000  C
  C266     1.0000 0.19750  0.34350  0.25470  Biso   1.000  C
  C267     1.0000 0.69750  0.15650  0.74530  Biso   1.000  C
  C268     1.0000 0.80250  0.84350  0.24530  Biso   1.000  C
  C269     1.0000 0.69750  0.34350  0.24530  Biso   1.000  C
  C270     1.0000 0.80250  0.65650  0.74530  Biso   1.000  C
  C271     1.0000 0.30250  0.84350  0.25470  Biso   1.000  C
  C272     1.0000 0.19750  0.15650  0.75470  Biso   1.000  C
  H369     1.0000 0.29390  0.68320  0.72180  Biso   1.000  H
  H370     1.0000 0.20610  0.31680  0.22180  Biso   1.000  H
  H371     1.0000 0.70610  0.18320  0.77820  Biso   1.000  H
  H372     1.0000 0.79390  0.81680  0.27820  Biso   1.000  H
  H373     1.0000 0.70610  0.31680  0.27820  Biso   1.000  H
  H374     1.0000 0.79390  0.68320  0.77820  Biso   1.000  H
  H375     1.0000 0.29390  0.81680  0.22180  Biso   1.000  H
  H376     1.0000 0.20610  0.18320  0.72180  Biso   1.000  H
  H377     1.0000 0.25560  0.65460  0.77730  Biso   1.000  H
  H378     1.0000 0.24440  0.34540  0.27730  Biso   1.000  H
  H379     1.0000 0.74440  0.15460  0.72270  Biso   1.000  H
  H380     1.0000 0.75560  0.84540  0.22270  Biso   1.000  H
  H381     1.0000 0.74440  0.34540  0.22270  Biso   1.000  H
  H382     1.0000 0.75560  0.65460  0.72270  Biso   1.000  H
  H383     1.0000 0.25560  0.84540  0.27730  Biso   1.000  H
  H384     1.0000 0.24440  0.15460  0.77730  Biso   1.000  H
  N1       1.0000 0.60460  0.79870  0.81480  Biso   1.000  N
  N2       1.0000 0.89540  0.20130  0.31480  Biso   1.000  N
  N3       1.0000 0.39540  0.29870  0.68520  Biso   1.000  N
  N4       1.0000 0.10460  0.70130  0.18520  Biso   1.000  N
  N5       1.0000 0.39540  0.20130  0.18520  Biso   1.000  N
  N6       1.0000 0.10460  0.79870  0.68520  Biso   1.000  N
  N7       1.0000 0.60460  0.70130  0.31480  Biso   1.000  N
  N8       1.0000 0.89540  0.29870  0.81480  Biso   1.000  N
  N9       1.0000 0.55530  0.75410  0.91960  Biso   1.000  N
  N10      1.0000 0.94470  0.24590  0.41960  Biso   1.000  N
  N11      1.0000 0.44470  0.25410  0.58040  Biso   1.000  N
  N12      1.0000 0.05530  0.74590  0.08040  Biso   1.000  N
  N13      1.0000 0.44470  0.24590  0.08040  Biso   1.000  N
  N14      1.0000 0.05530  0.75410  0.58040  Biso   1.000  N
  N15      1.0000 0.55530  0.74590  0.41960  Biso   1.000  N
  N16      1.0000 0.94470  0.25410  0.91960  Biso   1.000  N
  N17      1.0000 0.35260  0.55720  0.78280  Biso   1.000  N
  N18      1.0000 0.14740  0.44280  0.28280  Biso   1.000  N
  N19      1.0000 0.64740  0.05720  0.71720  Biso   1.000  N
  N20      1.0000 0.85260  0.94280  0.21720  Biso   1.000  N
  N21      1.0000 0.64740  0.44280  0.21720  Biso   1.000  N
  N22      1.0000 0.85260  0.55720  0.71720  Biso   1.000  N
  N23      1.0000 0.35260  0.94280  0.28280  Biso   1.000  N
  N24      1.0000 0.14740  0.05720  0.78280  Biso   1.000  N
  N25      1.0000 0.50700  0.55320  0.80460  Biso   1.000  N
  N26      1.0000 0.99300  0.44680  0.30460  Biso   1.000  N
  N27      1.0000 0.49300  0.05320  0.69540  Biso   1.000  N
  N28      1.0000 0.00700  0.94680  0.19540  Biso   1.000  N
  N29      1.0000 0.49300  0.44680  0.19540  Biso   1.000  N
  N30      1.0000 0.00700  0.55320  0.69540  Biso   1.000  N
  N31      1.0000 0.50700  0.94680  0.30460  Biso   1.000  N
  N32      1.0000 0.99300  0.05320  0.80460  Biso   1.000  N
  O1       1.0000 0.35670  0.82360  0.87720  Biso   1.000  O
  O2       1.0000 0.14330  0.17640  0.37720  Biso   1.000  O
  O3       1.0000 0.64330  0.32360  0.62280  Biso   1.000  O
  O4       1.0000 0.85670  0.67640  0.12280  Biso   1.000  O
  O5       1.0000 0.64330  0.17640  0.12280  Biso   1.000  O
  O6       1.0000 0.85670  0.82360  0.62280  Biso   1.000  O
  O7       1.0000 0.35670  0.67640  0.37720  Biso   1.000  O
  O8       1.0000 0.14330  0.32360  0.87720  Biso   1.000  O
  O9       1.0000 0.25390  0.73440  0.85490  Biso   1.000  O
  O10      1.0000 0.24610  0.26560  0.35490  Biso   1.000  O
  O11      1.0000 0.74610  0.23440  0.64510  Biso   1.000  O
  O12      1.0000 0.75390  0.76560  0.14510  Biso   1.000  O
  O13      1.0000 0.74610  0.26560  0.14510  Biso   1.000  O
  O14      1.0000 0.75390  0.73440  0.64510  Biso   1.000  O
  O15      1.0000 0.25390  0.76560  0.35490  Biso   1.000  O
  O16      1.0000 0.24610  0.23440  0.85490  Biso   1.000  O
  O17      1.0000 0.31550  0.89930  0.92850  Biso   1.000  O
  O18      1.0000 0.18450  0.10070  0.42850  Biso   1.000  O
  O19      1.0000 0.68450  0.39930  0.57150  Biso   1.000  O
  O20      1.0000 0.81550  0.60070  0.07150  Biso   1.000  O
  O21      1.0000 0.68450  0.10070  0.07150  Biso   1.000  O
  O22      1.0000 0.81550  0.89930  0.57150  Biso   1.000  O
  O23      1.0000 0.31550  0.60070  0.42850  Biso   1.000  O
  O24      1.0000 0.18450  0.39930  0.92850  Biso   1.000  O
  O25      1.0000 0.39290  0.77250  0.68370  Biso   1.000  O
  O26      1.0000 0.10710  0.22750  0.18370  Biso   1.000  O
  O27      1.0000 0.60710  0.27250  0.81630  Biso   1.000  O
  O28      1.0000 0.89290  0.72750  0.31630  Biso   1.000  O
  O29      1.0000 0.60710  0.22750  0.31630  Biso   1.000  O
  O30      1.0000 0.89290  0.77250  0.81630  Biso   1.000  O
  O31      1.0000 0.39290  0.72750  0.18370  Biso   1.000  O
  O32      1.0000 0.10710  0.27250  0.68370  Biso   1.000  O
  O33      1.0000 0.46220  0.66400  0.66570  Biso   1.000  O
  O34      1.0000 0.03780  0.33600  0.16570  Biso   1.000  O
  O35      1.0000 0.53780  0.16400  0.83430  Biso   1.000  O
  O36      1.0000 0.96220  0.83600  0.33430  Biso   1.000  O
  O37      1.0000 0.53780  0.33600  0.33430  Biso   1.000  O
  O38      1.0000 0.96220  0.66400  0.83430  Biso   1.000  O
  O39      1.0000 0.46220  0.83600  0.16570  Biso   1.000  O
  O40      1.0000 0.03780  0.16400  0.66570  Biso   1.000  O
  O41      1.0000 0.43440  0.61710  0.58710  Biso   1.000  O
  O42      1.0000 0.06560  0.38290  0.08710  Biso   1.000  O
  O43      1.0000 0.56560  0.11710  0.91290  Biso   1.000  O
  O44      1.0000 0.93440  0.88290  0.41290  Biso   1.000  O
  O45      1.0000 0.56560  0.38290  0.41290  Biso   1.000  O
  O46      1.0000 0.93440  0.61710  0.91290  Biso   1.000  O
  O47      1.0000 0.43440  0.88290  0.08710  Biso   1.000  O
  O48      1.0000 0.06560  0.11710  0.58710  Biso   1.000  O
  O49      1.0000 0.44820  0.77300  0.79340  Biso   1.000  O
  O50      1.0000 0.05180  0.22700  0.29340  Biso   1.000  O
  O51      1.0000 0.55180  0.27300  0.70660  Biso   1.000  O
  O52      1.0000 0.94820  0.72700  0.20660  Biso   1.000  O
  O53      1.0000 0.55180  0.22700  0.20660  Biso   1.000  O
  O54      1.0000 0.94820  0.77300  0.70660  Biso   1.000  O
  O55      1.0000 0.44820  0.72700  0.29340  Biso   1.000  O
  O56      1.0000 0.05180  0.27300  0.79340  Biso   1.000  O
  O57      1.0000 0.79520  0.81950  0.74650  Biso   1.000  O
  O58      1.0000 0.70480  0.18050  0.24650  Biso   1.000  O
  O59      1.0000 0.20480  0.31950  0.75350  Biso   1.000  O
  O60      1.0000 0.29520  0.68050  0.25350  Biso   1.000  O
  O61      1.0000 0.20480  0.18050  0.25350  Biso   1.000  O
  O62      1.0000 0.29520  0.81950  0.75350  Biso   1.000  O
  O63      1.0000 0.79520  0.68050  0.24650  Biso   1.000  O
  O64      1.0000 0.70480  0.31950  0.74650  Biso   1.000  O
  O65      1.0000 0.67300  0.67250  0.88090  Biso   1.000  O
  O66      1.0000 0.82700  0.32750  0.38090  Biso   1.000  O
  O67      1.0000 0.32700  0.17250  0.61910  Biso   1.000  O
  O68      1.0000 0.17300  0.82750  0.11910  Biso   1.000  O
  O69      1.0000 0.32700  0.32750  0.11910  Biso   1.000  O
  O70      1.0000 0.17300  0.67250  0.61910  Biso   1.000  O
  O71      1.0000 0.67300  0.82750  0.38090  Biso   1.000  O
  O72      1.0000 0.82700  0.17250  0.88090  Biso   1.000  O
  O73      1.0000 0.53670  0.68310  0.76740  Biso   1.000  O
  O74      1.0000 0.96330  0.31690  0.26740  Biso   1.000  O
  O75      1.0000 0.46330  0.18310  0.73260  Biso   1.000  O
  O76      1.0000 0.03670  0.81690  0.23260  Biso   1.000  O
  O77      1.0000 0.46330  0.31690  0.23260  Biso   1.000  O
  O78      1.0000 0.03670  0.68310  0.73260  Biso   1.000  O
  O79      1.0000 0.53670  0.81690  0.26740  Biso   1.000  O
  O80      1.0000 0.96330  0.18310  0.76740  Biso   1.000  O
  O81      1.0000 0.63730  0.46180  0.83520  Biso   1.000  O
  O82      1.0000 0.86270  0.53820  0.33520  Biso   1.000  O
  O83      1.0000 0.36270  0.96180  0.66480  Biso   1.000  O
  O84      1.0000 0.13730  0.03820  0.16480  Biso   1.000  O
  O85      1.0000 0.36270  0.53820  0.16480  Biso   1.000  O
  O86      1.0000 0.13730  0.46180  0.66480  Biso   1.000  O
  O87      1.0000 0.63730  0.03820  0.33520  Biso   1.000  O
  O88      1.0000 0.86270  0.96180  0.83520  Biso   1.000  O
  H385     1.0000 0.65940  0.48310  0.85950  Biso   1.000  H
  H386     1.0000 0.84060  0.51690  0.35950  Biso   1.000  H
  H387     1.0000 0.34060  0.98310  0.64050  Biso   1.000  H
  H388     1.0000 0.15940  0.01690  0.14050  Biso   1.000  H
  H389     1.0000 0.34060  0.51690  0.14050  Biso   1.000  H
  H390     1.0000 0.15940  0.48310  0.64050  Biso   1.000  H
  H391     1.0000 0.65940  0.01690  0.35950  Biso   1.000  H
  H392     1.0000 0.84060  0.98310  0.85950  Biso   1.000  H
  O89      1.0000 0.35250  0.56860  0.90250  Biso   1.000  O
  O90      1.0000 0.14750  0.43140  0.40250  Biso   1.000  O
  O91      1.0000 0.64750  0.06860  0.59750  Biso   1.000  O
  O92      1.0000 0.85250  0.93140  0.09750  Biso   1.000  O
  O93      1.0000 0.64750  0.43140  0.09750  Biso   1.000  O
  O94      1.0000 0.85250  0.56860  0.59750  Biso   1.000  O
  O95      1.0000 0.35250  0.93140  0.40250  Biso   1.000  O
  O96      1.0000 0.14750  0.06860  0.90250  Biso   1.000  O
  O97      1.0000 0.48060  0.66200  0.87330  Biso   1.000  O
  O98      1.0000 0.01940  0.33800  0.37330  Biso   1.000  O
  O99      1.0000 0.51940  0.16200  0.62670  Biso   1.000  O
  O100     1.0000 0.98060  0.83800  0.12670  Biso   1.000  O
  O101     1.0000 0.51940  0.33800  0.12670  Biso   1.000  O
  O102     1.0000 0.98060  0.66200  0.62670  Biso   1.000  O
  O103     1.0000 0.48060  0.83800  0.37330  Biso   1.000  O
  O104     1.0000 0.01940  0.16200  0.87330  Biso   1.000  O
  O105     1.0000 0.36290  0.67840  0.78870  Biso   1.000  O
  O106     1.0000 0.13710  0.32160  0.28870  Biso   1.000  O
  O107     1.0000 0.63710  0.17840  0.71130  Biso   1.000  O
  O108     1.0000 0.86290  0.82160  0.21130  Biso   1.000  O
  O109     1.0000 0.63710  0.32160  0.21130  Biso   1.000  O
  O110     1.0000 0.86290  0.67840  0.71130  Biso   1.000  O
  O111     1.0000 0.36290  0.82160  0.28870  Biso   1.000  O
  O112     1.0000 0.13710  0.17840  0.78870  Biso   1.000  O
  Cu1      1.0000 0.34965  0.75609  0.82668  Biso   1.000  Cu
  Cu2      1.0000 0.15035  0.24391  0.32668  Biso   1.000  Cu
  Cu3      1.0000 0.65035  0.25609  0.67332  Biso   1.000  Cu
  Cu4      1.0000 0.84965  0.74391  0.17332  Biso   1.000  Cu
  Cu5      1.0000 0.65035  0.24391  0.17332  Biso   1.000  Cu
  Cu6      1.0000 0.84965  0.75609  0.67332  Biso   1.000  Cu
  Cu7      1.0000 0.34965  0.74391  0.32668  Biso   1.000  Cu
  Cu8      1.0000 0.15035  0.25609  0.82668  Biso   1.000  Cu
  Cu9      1.0000 0.45604  0.72044  0.72627  Biso   1.000  Cu
  Cu10     1.0000 0.04396  0.27956  0.22627  Biso   1.000  Cu
  Cu11     1.0000 0.54396  0.22044  0.77373  Biso   1.000  Cu
  Cu12     1.0000 0.95604  0.77956  0.27373  Biso   1.000  Cu
  Cu13     1.0000 0.54396  0.27956  0.27373  Biso   1.000  Cu
  Cu14     1.0000 0.95604  0.72044  0.77373  Biso   1.000  Cu
  Cu15     1.0000 0.45604  0.77956  0.22627  Biso   1.000  Cu
  Cu16     1.0000 0.04396  0.22044  0.72627  Biso   1.000  Cu
  Cu17     1.0000 0.54789  0.72129  0.84113  Biso   1.000  Cu
  Cu18     1.0000 0.95211  0.27871  0.34113  Biso   1.000  Cu
  Cu19     1.0000 0.45211  0.22129  0.65887  Biso   1.000  Cu
  Cu20     1.0000 0.04789  0.77871  0.15887  Biso   1.000  Cu
  Cu21     1.0000 0.45211  0.27871  0.15887  Biso   1.000  Cu
  Cu22     1.0000 0.04789  0.72129  0.65887  Biso   1.000  Cu
  Cu23     1.0000 0.54789  0.77871  0.34113  Biso   1.000  Cu
  Cu24     1.0000 0.95211  0.22129  0.84113  Biso   1.000  Cu
  Cu25     1.0000 0.42204  0.61298  0.82433  Biso   1.000  Cu
  Cu26     1.0000 0.07796  0.38702  0.32433  Biso   1.000  Cu
  Cu27     1.0000 0.57796  0.11298  0.67567  Biso   1.000  Cu
  Cu28     1.0000 0.92204  0.88702  0.17567  Biso   1.000  Cu
  Cu29     1.0000 0.57796  0.38702  0.17567  Biso   1.000  Cu
  Cu30     1.0000 0.92204  0.61298  0.67567  Biso   1.000  Cu
  Cu31     1.0000 0.42204  0.88702  0.32433  Biso   1.000  Cu
  Cu32     1.0000 0.07796  0.11298  0.82433  Biso   1.000  Cu
  H393     1.0000 0.31100  0.60400  0.90600  Biso   1.000  H
  H394     1.0000 0.18900  0.39600  0.40600  Biso   1.000  H
  H395     1.0000 0.68900  0.10400  0.59400  Biso   1.000  H
  H396     1.0000 0.81100  0.89600  0.09400  Biso   1.000  H
  H397     1.0000 0.68900  0.39600  0.09400  Biso   1.000  H
  H398     1.0000 0.81100  0.60400  0.59400  Biso   1.000  H
  H399     1.0000 0.31100  0.89600  0.40600  Biso   1.000  H
  H400     1.0000 0.18900  0.10400  0.90600  Biso   1.000  H
  H401     1.0000 0.82000  0.81000  0.77900  Biso   1.000  H
  H402     1.0000 0.68000  0.19000  0.27900  Biso   1.000  H
  H403     1.0000 0.18000  0.31000  0.72100  Biso   1.000  H
  H404     1.0000 0.32000  0.69000  0.22100  Biso   1.000  H
  H405     1.0000 0.18000  0.19000  0.22100  Biso   1.000  H
  H406     1.0000 0.32000  0.81000  0.72100  Biso   1.000  H
  H407     1.0000 0.82000  0.69000  0.27900  Biso   1.000  H
  H408     1.0000 0.68000  0.31000  0.77900  Biso   1.000  H
  H409     1.0000 0.70900  0.64600  0.87200  Biso   1.000  H
  H410     1.0000 0.79100  0.35400  0.37200  Biso   1.000  H
  H411     1.0000 0.29100  0.14600  0.62800  Biso   1.000  H
  H412     1.0000 0.20900  0.85400  0.12800  Biso   1.000  H
  H413     1.0000 0.29100  0.35400  0.12800  Biso   1.000  H
  H414     1.0000 0.20900  0.64600  0.62800  Biso   1.000  H
  H415     1.0000 0.70900  0.85400  0.37200  Biso   1.000  H
  H416     1.0000 0.79100  0.14600  0.87200  Biso   1.000  H
  O113     1.0000 0.66150  0.43850  0.72810  Biso   1.000  O
  O114     1.0000 0.83850  0.56150  0.22810  Biso   1.000  O
  O115     1.0000 0.33850  0.93850  0.77190  Biso   1.000  O
  O116     1.0000 0.16150  0.06150  0.27190  Biso   1.000  O
  O117     1.0000 0.33850  0.56150  0.27190  Biso   1.000  O
  O118     1.0000 0.16150  0.43850  0.77190  Biso   1.000  O
  O119     1.0000 0.66150  0.06150  0.22810  Biso   1.000  O
  O120     1.0000 0.83850  0.93850  0.72810  Biso   1.000  O
  O121     1.0000 0.23850  0.63970  0.92270  Biso   1.000  O
  O122     1.0000 0.26150  0.36030  0.42270  Biso   1.000  O
  O123     1.0000 0.76150  0.13970  0.57730  Biso   1.000  O
  O124     1.0000 0.73850  0.86030  0.07730  Biso   1.000  O
  O125     1.0000 0.76150  0.36030  0.07730  Biso   1.000  O
  O126     1.0000 0.73850  0.63970  0.57730  Biso   1.000  O
  O127     1.0000 0.23850  0.86030  0.42270  Biso   1.000  O
  O128     1.0000 0.26150  0.13970  0.92270  Biso   1.000  O
  O129     1.0000 0.07970  0.00520  0.99360  Biso   1.000  O
  O130     1.0000 0.42030  0.99480  0.49360  Biso   1.000  O
  O131     1.0000 0.92030  0.50520  0.50640  Biso   1.000  O
  O132     1.0000 0.57970  0.49480  0.00640  Biso   1.000  O
  O133     1.0000 0.92030  0.99480  0.00640  Biso   1.000  O
  O134     1.0000 0.57970  0.00520  0.50640  Biso   1.000  O
  O135     1.0000 0.07970  0.49480  0.49360  Biso   1.000  O
  O136     1.0000 0.42030  0.50520  0.99360  Biso   1.000  O
  O137     1.0000 0.27780  0.95610  0.01820  Biso   1.000  O
  O138     1.0000 0.22220  0.04390  0.51820  Biso   1.000  O
  O139     1.0000 0.72220  0.45610  0.48180  Biso   1.000  O
  O140     1.0000 0.77780  0.54390  0.98180  Biso   1.000  O
  O141     1.0000 0.72220  0.04390  0.98180  Biso   1.000  O
  O142     1.0000 0.77780  0.95610  0.48180  Biso   1.000  O
  O143     1.0000 0.27780  0.54390  0.51820  Biso   1.000  O
  O144     1.0000 0.22220  0.45610  0.01820  Biso   1.000  O
  O145     1.0000 0.40780  0.97460  0.87030  Biso   1.000  O
  O146     1.0000 0.09220  0.02540  0.37030  Biso   1.000  O
  O147     1.0000 0.59220  0.47460  0.62970  Biso   1.000  O
  O148     1.0000 0.90780  0.52540  0.12970  Biso   1.000  O
  O149     1.0000 0.59220  0.02540  0.12970  Biso   1.000  O
  O150     1.0000 0.90780  0.97460  0.62970  Biso   1.000  O
  O151     1.0000 0.40780  0.52540  0.37030  Biso   1.000  O
  O152     1.0000 0.09220  0.47460  0.87030  Biso   1.000  O
  O153     1.0000 0.40310  0.08530  0.92210  Biso   1.000  O
  O154     1.0000 0.09690  0.91470  0.42210  Biso   1.000  O
  O155     1.0000 0.59690  0.58530  0.57790  Biso   1.000  O
  O156     1.0000 0.90310  0.41470  0.07790  Biso   1.000  O
  O157     1.0000 0.59690  0.91470  0.07790  Biso   1.000  O
  O158     1.0000 0.90310  0.08530  0.57790  Biso   1.000  O
  O159     1.0000 0.40310  0.41470  0.42210  Biso   1.000  O
  O160     1.0000 0.09690  0.58530  0.92210  Biso   1.000  O
  O161     1.0000 0.56150  0.99200  0.87890  Biso   1.000  O
  O162     1.0000 0.93850  0.00800  0.37890  Biso   1.000  O
  O163     1.0000 0.43850  0.49200  0.62110  Biso   1.000  O
  O164     1.0000 0.06150  0.50800  0.12110  Biso   1.000  O
  O165     1.0000 0.43850  0.00800  0.12110  Biso   1.000  O
  O166     1.0000 0.06150  0.99200  0.62110  Biso   1.000  O
  O167     1.0000 0.56150  0.50800  0.37890  Biso   1.000  O
  O168     1.0000 0.93850  0.49200  0.87890  Biso   1.000  O
  O169     1.0000 0.65150  0.94050  0.96350  Biso   1.000  O
  O170     1.0000 0.84850  0.05950  0.46350  Biso   1.000  O
  O171     1.0000 0.34850  0.44050  0.53650  Biso   1.000  O
  O172     1.0000 0.15150  0.55950  0.03650  Biso   1.000  O
  O173     1.0000 0.34850  0.05950  0.03650  Biso   1.000  O
  O174     1.0000 0.15150  0.94050  0.53650  Biso   1.000  O
  O175     1.0000 0.65150  0.55950  0.46350  Biso   1.000  O
  O176     1.0000 0.84850  0.44050  0.96350  Biso   1.000  O
  O177     1.0000 0.75150  0.07120  0.88340  Biso   1.000  O
  O178     1.0000 0.74850  0.92880  0.38340  Biso   1.000  O
  O179     1.0000 0.24850  0.57120  0.61660  Biso   1.000  O
  O180     1.0000 0.25150  0.42880  0.11660  Biso   1.000  O
  O181     1.0000 0.24850  0.92880  0.11660  Biso   1.000  O
  O182     1.0000 0.25150  0.07120  0.61660  Biso   1.000  O
  O183     1.0000 0.75150  0.42880  0.38340  Biso   1.000  O
  O184     1.0000 0.74850  0.57120  0.88340  Biso   1.000  O
  O185     1.0000 0.81550  0.01900  0.93120  Biso   1.000  O
  O186     1.0000 0.68450  0.98100  0.43120  Biso   1.000  O
  O187     1.0000 0.18450  0.51900  0.56880  Biso   1.000  O
  O188     1.0000 0.31550  0.48100  0.06880  Biso   1.000  O
  O189     1.0000 0.18450  0.98100  0.06880  Biso   1.000  O
  O190     1.0000 0.31550  0.01900  0.56880  Biso   1.000  O
  O191     1.0000 0.81550  0.48100  0.43120  Biso   1.000  O
  O192     1.0000 0.68450  0.51900  0.93120  Biso   1.000  O
