data_image0
_cell_length_a       33.3822
_cell_length_b       33.3822
_cell_length_c       27.7891
_cell_angle_alpha    90
_cell_angle_beta     90
_cell_angle_gamma    90

_symmetry_space_group_name_H-M    "P 1"
_symmetry_int_tables_number       1

loop_
  _symmetry_equiv_pos_as_xyz
  'x, y, z'

loop_
  _atom_site_label
  _atom_site_occupancy
  _atom_site_fract_x
  _atom_site_fract_y
  _atom_site_fract_z
  _atom_site_thermal_displace_type
  _atom_site_B_iso_or_equiv
  _atom_site_type_symbol
  Cu1      1.0000 0.16904  0.00000  0.20150  Biso   1.000  Cu
  Cu2      1.0000 0.00000  0.16904  0.20150  Biso   1.000  Cu
  Cu3      1.0000 0.83096  0.00000  0.20150  Biso   1.000  Cu
  Cu4      1.0000 0.00000  0.83096  0.20150  Biso   1.000  Cu
  Cu5      1.0000 0.16904  0.00000  0.79850  Biso   1.000  Cu
  Cu6      1.0000 0.00000  0.16904  0.79850  Biso   1.000  Cu
  Cu7      1.0000 0.83096  0.00000  0.79850  Biso   1.000  Cu
  Cu8      1.0000 0.00000  0.83096  0.79850  Biso   1.000  Cu
  Cu9      1.0000 0.66904  0.50000  0.70150  Biso   1.000  Cu
  Cu10     1.0000 0.50000  0.66904  0.70150  Biso   1.000  Cu
  Cu11     1.0000 0.33096  0.50000  0.70150  Biso   1.000  Cu
  Cu12     1.0000 0.50000  0.33096  0.70150  Biso   1.000  Cu
  Cu13     1.0000 0.66904  0.50000  0.29850  Biso   1.000  Cu
  Cu14     1.0000 0.50000  0.66904  0.29850  Biso   1.000  Cu
  Cu15     1.0000 0.33096  0.50000  0.29850  Biso   1.000  Cu
  Cu16     1.0000 0.50000  0.33096  0.29850  Biso   1.000  Cu
  Cu17     1.0000 0.22529  0.00000  0.26916  Biso   1.000  Cu
  Cu18     1.0000 0.00000  0.22529  0.26916  Biso   1.000  Cu
  Cu19     1.0000 0.77471  0.00000  0.26916  Biso   1.000  Cu
  Cu20     1.0000 0.00000  0.77471  0.26916  Biso   1.000  Cu
  Cu21     1.0000 0.22529  0.00000  0.73084  Biso   1.000  Cu
  Cu22     1.0000 0.00000  0.22529  0.73084  Biso   1.000  Cu
  Cu23     1.0000 0.77471  0.00000  0.73084  Biso   1.000  Cu
  Cu24     1.0000 0.00000  0.77471  0.73084  Biso   1.000  Cu
  Cu25     1.0000 0.72529  0.50000  0.76916  Biso   1.000  Cu
  Cu26     1.0000 0.50000  0.72529  0.76916  Biso   1.000  Cu
  Cu27     1.0000 0.27471  0.50000  0.76916  Biso   1.000  Cu
  Cu28     1.0000 0.50000  0.27471  0.76916  Biso   1.000  Cu
  Cu29     1.0000 0.72529  0.50000  0.23084  Biso   1.000  Cu
  Cu30     1.0000 0.50000  0.72529  0.23084  Biso   1.000  Cu
  Cu31     1.0000 0.27471  0.50000  0.23084  Biso   1.000  Cu
  Cu32     1.0000 0.50000  0.27471  0.23084  Biso   1.000  Cu
  Cu33     1.0000 0.17006  0.17006  0.00000  Biso   1.000  Cu
  Cu34     1.0000 0.82994  0.17006  0.00000  Biso   1.000  Cu
  Cu35     1.0000 0.82994  0.82994  0.00000  Biso   1.000  Cu
  Cu36     1.0000 0.17006  0.82994  0.00000  Biso   1.000  Cu
  Cu37     1.0000 0.67006  0.67006  0.50000  Biso   1.000  Cu
  Cu38     1.0000 0.32994  0.67006  0.50000  Biso   1.000  Cu
  Cu39     1.0000 0.32994  0.32994  0.50000  Biso   1.000  Cu
  Cu40     1.0000 0.67006  0.32994  0.50000  Biso   1.000  Cu
  Cu41     1.0000 0.22589  0.22589  0.00000  Biso   1.000  Cu
  Cu42     1.0000 0.77411  0.22589  0.00000  Biso   1.000  Cu
  Cu43     1.0000 0.77411  0.77411  0.00000  Biso   1.000  Cu
  Cu44     1.0000 0.22589  0.77411  0.00000  Biso   1.000  Cu
  Cu45     1.0000 0.72589  0.72589  0.50000  Biso   1.000  Cu
  Cu46     1.0000 0.27411  0.72589  0.50000  Biso   1.000  Cu
  Cu47     1.0000 0.27411  0.27411  0.50000  Biso   1.000  Cu
  Cu48     1.0000 0.72589  0.27411  0.50000  Biso   1.000  Cu
  Cu49     1.0000 0.50000  0.00000  0.29774  Biso   1.000  Cu
  Cu50     1.0000 0.00000  0.50000  0.29774  Biso   1.000  Cu
  Cu51     1.0000 0.50000  0.00000  0.70226  Biso   1.000  Cu
  Cu52     1.0000 0.00000  0.50000  0.70226  Biso   1.000  Cu
  Cu53     1.0000 0.00000  0.50000  0.79774  Biso   1.000  Cu
  Cu54     1.0000 0.50000  0.00000  0.79774  Biso   1.000  Cu
  Cu55     1.0000 0.00000  0.50000  0.20226  Biso   1.000  Cu
  Cu56     1.0000 0.50000  0.00000  0.20226  Biso   1.000  Cu
  Cu57     1.0000 0.00000  0.00000  0.45245  Biso   1.000  Cu
  Cu58     1.0000 0.00000  0.00000  0.54755  Biso   1.000  Cu
  Cu59     1.0000 0.50000  0.50000  0.95245  Biso   1.000  Cu
  Cu60     1.0000 0.50000  0.50000  0.04755  Biso   1.000  Cu
  O1       1.0000 0.20251  0.04124  0.17230  Biso   1.000  O
  O2       1.0000 0.95876  0.20251  0.17230  Biso   1.000  O
  O3       1.0000 0.79749  0.95876  0.17230  Biso   1.000  O
  O4       1.0000 0.04124  0.79749  0.17230  Biso   1.000  O
  O5       1.0000 0.20251  0.95876  0.82770  Biso   1.000  O
  O6       1.0000 0.04124  0.20251  0.82770  Biso   1.000  O
  O7       1.0000 0.79749  0.04124  0.82770  Biso   1.000  O
  O8       1.0000 0.95876  0.79749  0.82770  Biso   1.000  O
  O9       1.0000 0.70251  0.54124  0.67230  Biso   1.000  O
  O10      1.0000 0.45876  0.70251  0.67230  Biso   1.000  O
  O11      1.0000 0.29749  0.45876  0.67230  Biso   1.000  O
  O12      1.0000 0.54124  0.29749  0.67230  Biso   1.000  O
  O13      1.0000 0.70251  0.45876  0.32770  Biso   1.000  O
  O14      1.0000 0.54124  0.70251  0.32770  Biso   1.000  O
  O15      1.0000 0.29749  0.54124  0.32770  Biso   1.000  O
  O16      1.0000 0.45876  0.29749  0.32770  Biso   1.000  O
  O17      1.0000 0.79749  0.95876  0.82770  Biso   1.000  O
  O18      1.0000 0.04124  0.79749  0.82770  Biso   1.000  O
  O19      1.0000 0.20251  0.04124  0.82770  Biso   1.000  O
  O20      1.0000 0.95876  0.20251  0.82770  Biso   1.000  O
  O21      1.0000 0.79749  0.04124  0.17230  Biso   1.000  O
  O22      1.0000 0.95876  0.79749  0.17230  Biso   1.000  O
  O23      1.0000 0.20251  0.95876  0.17230  Biso   1.000  O
  O24      1.0000 0.04124  0.20251  0.17230  Biso   1.000  O
  O25      1.0000 0.29749  0.45876  0.32770  Biso   1.000  O
  O26      1.0000 0.54124  0.29749  0.32770  Biso   1.000  O
  O27      1.0000 0.70251  0.54124  0.32770  Biso   1.000  O
  O28      1.0000 0.45876  0.70251  0.32770  Biso   1.000  O
  O29      1.0000 0.29749  0.54124  0.67230  Biso   1.000  O
  O30      1.0000 0.45876  0.29749  0.67230  Biso   1.000  O
  O31      1.0000 0.70251  0.45876  0.67230  Biso   1.000  O
  O32      1.0000 0.54124  0.70251  0.67230  Biso   1.000  O
  O33      1.0000 0.25017  0.04127  0.22867  Biso   1.000  O
  O34      1.0000 0.95873  0.25017  0.22867  Biso   1.000  O
  O35      1.0000 0.74983  0.95873  0.22867  Biso   1.000  O
  O36      1.0000 0.04127  0.74983  0.22867  Biso   1.000  O
  O37      1.0000 0.25017  0.95873  0.77133  Biso   1.000  O
  O38      1.0000 0.04127  0.25017  0.77133  Biso   1.000  O
  O39      1.0000 0.74983  0.04127  0.77133  Biso   1.000  O
  O40      1.0000 0.95873  0.74983  0.77133  Biso   1.000  O
  O41      1.0000 0.75017  0.54127  0.72867  Biso   1.000  O
  O42      1.0000 0.45873  0.75017  0.72867  Biso   1.000  O
  O43      1.0000 0.24983  0.45873  0.72867  Biso   1.000  O
  O44      1.0000 0.54127  0.24983  0.72867  Biso   1.000  O
  O45      1.0000 0.75017  0.45873  0.27133  Biso   1.000  O
  O46      1.0000 0.54127  0.75017  0.27133  Biso   1.000  O
  O47      1.0000 0.24983  0.54127  0.27133  Biso   1.000  O
  O48      1.0000 0.45873  0.24983  0.27133  Biso   1.000  O
  O49      1.0000 0.74983  0.95873  0.77133  Biso   1.000  O
  O50      1.0000 0.04127  0.74983  0.77133  Biso   1.000  O
  O51      1.0000 0.25017  0.04127  0.77133  Biso   1.000  O
  O52      1.0000 0.95873  0.25017  0.77133  Biso   1.000  O
  O53      1.0000 0.74983  0.04127  0.22867  Biso   1.000  O
  O54      1.0000 0.95873  0.74983  0.22867  Biso   1.000  O
  O55      1.0000 0.25017  0.95873  0.22867  Biso   1.000  O
  O56      1.0000 0.04127  0.25017  0.22867  Biso   1.000  O
  O57      1.0000 0.24983  0.45873  0.27133  Biso   1.000  O
  O58      1.0000 0.54127  0.24983  0.27133  Biso   1.000  O
  O59      1.0000 0.75017  0.54127  0.27133  Biso   1.000  O
  O60      1.0000 0.45873  0.75017  0.27133  Biso   1.000  O
  O61      1.0000 0.24983  0.54127  0.72867  Biso   1.000  O
  O62      1.0000 0.45873  0.24983  0.72867  Biso   1.000  O
  O63      1.0000 0.75017  0.45873  0.72867  Biso   1.000  O
  O64      1.0000 0.54127  0.75017  0.72867  Biso   1.000  O
  O65      1.0000 0.20304  0.14495  0.04926  Biso   1.000  O
  O66      1.0000 0.85505  0.20304  0.04926  Biso   1.000  O
  O67      1.0000 0.79696  0.85505  0.04926  Biso   1.000  O
  O68      1.0000 0.14495  0.79696  0.04926  Biso   1.000  O
  O69      1.0000 0.20304  0.85505  0.95074  Biso   1.000  O
  O70      1.0000 0.14495  0.20304  0.95074  Biso   1.000  O
  O71      1.0000 0.79696  0.14495  0.95074  Biso   1.000  O
  O72      1.0000 0.85505  0.79696  0.95074  Biso   1.000  O
  O73      1.0000 0.70304  0.64495  0.54926  Biso   1.000  O
  O74      1.0000 0.35505  0.70304  0.54926  Biso   1.000  O
  O75      1.0000 0.29696  0.35505  0.54926  Biso   1.000  O
  O76      1.0000 0.64495  0.29696  0.54926  Biso   1.000  O
  O77      1.0000 0.70304  0.35505  0.45074  Biso   1.000  O
  O78      1.0000 0.64495  0.70304  0.45074  Biso   1.000  O
  O79      1.0000 0.29696  0.64495  0.45074  Biso   1.000  O
  O80      1.0000 0.35505  0.29696  0.45074  Biso   1.000  O
  O81      1.0000 0.79696  0.85505  0.95074  Biso   1.000  O
  O82      1.0000 0.14495  0.79696  0.95074  Biso   1.000  O
  O83      1.0000 0.20304  0.14495  0.95074  Biso   1.000  O
  O84      1.0000 0.85505  0.20304  0.95074  Biso   1.000  O
  O85      1.0000 0.79696  0.14495  0.04926  Biso   1.000  O
  O86      1.0000 0.85505  0.79696  0.04926  Biso   1.000  O
  O87      1.0000 0.20304  0.85505  0.04926  Biso   1.000  O
  O88      1.0000 0.14495  0.20304  0.04926  Biso   1.000  O
  O89      1.0000 0.29696  0.35505  0.45074  Biso   1.000  O
  O90      1.0000 0.64495  0.29696  0.45074  Biso   1.000  O
  O91      1.0000 0.70304  0.64495  0.45074  Biso   1.000  O
  O92      1.0000 0.35505  0.70304  0.45074  Biso   1.000  O
  O93      1.0000 0.29696  0.64495  0.54926  Biso   1.000  O
  O94      1.0000 0.35505  0.29696  0.54926  Biso   1.000  O
  O95      1.0000 0.70304  0.35505  0.54926  Biso   1.000  O
  O96      1.0000 0.64495  0.70304  0.54926  Biso   1.000  O
  O97      1.0000 0.25088  0.19223  0.04931  Biso   1.000  O
  O98      1.0000 0.80777  0.25088  0.04931  Biso   1.000  O
  O99      1.0000 0.74912  0.80777  0.04931  Biso   1.000  O
  O100     1.0000 0.19223  0.74912  0.04931  Biso   1.000  O
  O101     1.0000 0.25088  0.80777  0.95069  Biso   1.000  O
  O102     1.0000 0.19223  0.25088  0.95069  Biso   1.000  O
  O103     1.0000 0.74912  0.19223  0.95069  Biso   1.000  O
  O104     1.0000 0.80777  0.74912  0.95069  Biso   1.000  O
  O105     1.0000 0.75088  0.69223  0.54931  Biso   1.000  O
  O106     1.0000 0.30777  0.75088  0.54931  Biso   1.000  O
  O107     1.0000 0.24912  0.30777  0.54931  Biso   1.000  O
  O108     1.0000 0.69223  0.24912  0.54931  Biso   1.000  O
  O109     1.0000 0.75088  0.30777  0.45069  Biso   1.000  O
  O110     1.0000 0.69223  0.75088  0.45069  Biso   1.000  O
  O111     1.0000 0.24912  0.69223  0.45069  Biso   1.000  O
  O112     1.0000 0.30777  0.24912  0.45069  Biso   1.000  O
  O113     1.0000 0.74912  0.80777  0.95069  Biso   1.000  O
  O114     1.0000 0.19223  0.74912  0.95069  Biso   1.000  O
  O115     1.0000 0.25088  0.19223  0.95069  Biso   1.000  O
  O116     1.0000 0.80777  0.25088  0.95069  Biso   1.000  O
  O117     1.0000 0.74912  0.19223  0.04931  Biso   1.000  O
  O118     1.0000 0.80777  0.74912  0.04931  Biso   1.000  O
  O119     1.0000 0.25088  0.80777  0.04931  Biso   1.000  O
  O120     1.0000 0.19223  0.25088  0.04931  Biso   1.000  O
  O121     1.0000 0.24912  0.30777  0.45069  Biso   1.000  O
  O122     1.0000 0.69223  0.24912  0.45069  Biso   1.000  O
  O123     1.0000 0.75088  0.69223  0.45069  Biso   1.000  O
  O124     1.0000 0.30777  0.75088  0.45069  Biso   1.000  O
  O125     1.0000 0.24912  0.69223  0.54931  Biso   1.000  O
  O126     1.0000 0.30777  0.24912  0.54931  Biso   1.000  O
  O127     1.0000 0.75088  0.30777  0.54931  Biso   1.000  O
  O128     1.0000 0.69223  0.75088  0.54931  Biso   1.000  O
  O129     1.0000 0.35259  0.14002  0.16398  Biso   1.000  O
  O130     1.0000 0.85998  0.35259  0.16398  Biso   1.000  O
  O131     1.0000 0.64741  0.85998  0.16398  Biso   1.000  O
  O132     1.0000 0.14002  0.64741  0.16398  Biso   1.000  O
  O133     1.0000 0.35259  0.85998  0.83602  Biso   1.000  O
  O134     1.0000 0.14002  0.35259  0.83602  Biso   1.000  O
  O135     1.0000 0.64741  0.14002  0.83602  Biso   1.000  O
  O136     1.0000 0.85998  0.64741  0.83602  Biso   1.000  O
  O137     1.0000 0.85259  0.64002  0.66398  Biso   1.000  O
  O138     1.0000 0.35998  0.85259  0.66398  Biso   1.000  O
  O139     1.0000 0.14741  0.35998  0.66398  Biso   1.000  O
  O140     1.0000 0.64002  0.14741  0.66398  Biso   1.000  O
  O141     1.0000 0.85259  0.35998  0.33602  Biso   1.000  O
  O142     1.0000 0.64002  0.85259  0.33602  Biso   1.000  O
  O143     1.0000 0.14741  0.64002  0.33602  Biso   1.000  O
  O144     1.0000 0.35998  0.14741  0.33602  Biso   1.000  O
  O145     1.0000 0.64741  0.85998  0.83602  Biso   1.000  O
  O146     1.0000 0.14002  0.64741  0.83602  Biso   1.000  O
  O147     1.0000 0.35259  0.14002  0.83602  Biso   1.000  O
  O148     1.0000 0.85998  0.35259  0.83602  Biso   1.000  O
  O149     1.0000 0.64741  0.14002  0.16398  Biso   1.000  O
  O150     1.0000 0.85998  0.64741  0.16398  Biso   1.000  O
  O151     1.0000 0.35259  0.85998  0.16398  Biso   1.000  O
  O152     1.0000 0.14002  0.35259  0.16398  Biso   1.000  O
  O153     1.0000 0.14741  0.35998  0.33602  Biso   1.000  O
  O154     1.0000 0.64002  0.14741  0.33602  Biso   1.000  O
  O155     1.0000 0.85259  0.64002  0.33602  Biso   1.000  O
  O156     1.0000 0.35998  0.85259  0.33602  Biso   1.000  O
  O157     1.0000 0.14741  0.64002  0.66398  Biso   1.000  O
  O158     1.0000 0.35998  0.14741  0.66398  Biso   1.000  O
  O159     1.0000 0.85259  0.35998  0.66398  Biso   1.000  O
  O160     1.0000 0.64002  0.85259  0.66398  Biso   1.000  O
  O161     1.0000 0.45866  0.04119  0.29021  Biso   1.000  O
  O162     1.0000 0.95881  0.45866  0.29021  Biso   1.000  O
  O163     1.0000 0.54134  0.95881  0.29021  Biso   1.000  O
  O164     1.0000 0.04119  0.54134  0.29021  Biso   1.000  O
  O165     1.0000 0.45866  0.95881  0.70979  Biso   1.000  O
  O166     1.0000 0.04119  0.45866  0.70979  Biso   1.000  O
  O167     1.0000 0.54134  0.04119  0.70979  Biso   1.000  O
  O168     1.0000 0.95881  0.54134  0.70979  Biso   1.000  O
  O169     1.0000 0.95866  0.54119  0.79021  Biso   1.000  O
  O170     1.0000 0.45881  0.95866  0.79021  Biso   1.000  O
  O171     1.0000 0.04134  0.45881  0.79021  Biso   1.000  O
  O172     1.0000 0.54119  0.04134  0.79021  Biso   1.000  O
  O173     1.0000 0.95866  0.45881  0.20979  Biso   1.000  O
  O174     1.0000 0.54119  0.95866  0.20979  Biso   1.000  O
  O175     1.0000 0.04134  0.54119  0.20979  Biso   1.000  O
  O176     1.0000 0.45881  0.04134  0.20979  Biso   1.000  O
  O177     1.0000 0.54134  0.95881  0.70979  Biso   1.000  O
  O178     1.0000 0.04119  0.54134  0.70979  Biso   1.000  O
  O179     1.0000 0.45866  0.04119  0.70979  Biso   1.000  O
  O180     1.0000 0.95881  0.45866  0.70979  Biso   1.000  O
  O181     1.0000 0.54134  0.04119  0.29021  Biso   1.000  O
  O182     1.0000 0.95881  0.54134  0.29021  Biso   1.000  O
  O183     1.0000 0.45866  0.95881  0.29021  Biso   1.000  O
  O184     1.0000 0.04119  0.45866  0.29021  Biso   1.000  O
  O185     1.0000 0.04134  0.45881  0.20979  Biso   1.000  O
  O186     1.0000 0.54119  0.04134  0.20979  Biso   1.000  O
  O187     1.0000 0.95866  0.54119  0.20979  Biso   1.000  O
  O188     1.0000 0.45881  0.95866  0.20979  Biso   1.000  O
  O189     1.0000 0.04134  0.54119  0.79021  Biso   1.000  O
  O190     1.0000 0.45881  0.04134  0.79021  Biso   1.000  O
  O191     1.0000 0.95866  0.45881  0.79021  Biso   1.000  O
  O192     1.0000 0.54119  0.95866  0.79021  Biso   1.000  O
  O193     1.0000 0.14438  0.04160  0.24119  Biso   1.000  O
  O194     1.0000 0.95840  0.14438  0.24119  Biso   1.000  O
  O195     1.0000 0.85562  0.95840  0.24119  Biso   1.000  O
  O196     1.0000 0.04160  0.85562  0.24119  Biso   1.000  O
  O197     1.0000 0.14438  0.95840  0.75881  Biso   1.000  O
  O198     1.0000 0.04160  0.14438  0.75881  Biso   1.000  O
  O199     1.0000 0.85562  0.04160  0.75881  Biso   1.000  O
  O200     1.0000 0.95840  0.85562  0.75881  Biso   1.000  O
  O201     1.0000 0.64438  0.54160  0.74119  Biso   1.000  O
  O202     1.0000 0.45840  0.64438  0.74119  Biso   1.000  O
  O203     1.0000 0.35562  0.45840  0.74119  Biso   1.000  O
  O204     1.0000 0.54160  0.35562  0.74119  Biso   1.000  O
  O205     1.0000 0.64438  0.45840  0.25881  Biso   1.000  O
  O206     1.0000 0.54160  0.64438  0.25881  Biso   1.000  O
  O207     1.0000 0.35562  0.54160  0.25881  Biso   1.000  O
  O208     1.0000 0.45840  0.35562  0.25881  Biso   1.000  O
  O209     1.0000 0.85562  0.95840  0.75881  Biso   1.000  O
  O210     1.0000 0.04160  0.85562  0.75881  Biso   1.000  O
  O211     1.0000 0.14438  0.04160  0.75881  Biso   1.000  O
  O212     1.0000 0.95840  0.14438  0.75881  Biso   1.000  O
  O213     1.0000 0.85562  0.04160  0.24119  Biso   1.000  O
  O214     1.0000 0.95840  0.85562  0.24119  Biso   1.000  O
  O215     1.0000 0.14438  0.95840  0.24119  Biso   1.000  O
  O216     1.0000 0.04160  0.14438  0.24119  Biso   1.000  O
  O217     1.0000 0.35562  0.45840  0.25881  Biso   1.000  O
  O218     1.0000 0.54160  0.35562  0.25881  Biso   1.000  O
  O219     1.0000 0.64438  0.54160  0.25881  Biso   1.000  O
  O220     1.0000 0.45840  0.64438  0.25881  Biso   1.000  O
  O221     1.0000 0.35562  0.54160  0.74119  Biso   1.000  O
  O222     1.0000 0.45840  0.35562  0.74119  Biso   1.000  O
  O223     1.0000 0.64438  0.45840  0.74119  Biso   1.000  O
  O224     1.0000 0.54160  0.64438  0.74119  Biso   1.000  O
  O225     1.0000 0.19161  0.04118  0.29927  Biso   1.000  O
  O226     1.0000 0.95882  0.19161  0.29927  Biso   1.000  O
  O227     1.0000 0.80839  0.95882  0.29927  Biso   1.000  O
  O228     1.0000 0.04118  0.80839  0.29927  Biso   1.000  O
  O229     1.0000 0.19161  0.95882  0.70073  Biso   1.000  O
  O230     1.0000 0.04118  0.19161  0.70073  Biso   1.000  O
  O231     1.0000 0.80839  0.04118  0.70073  Biso   1.000  O
  O232     1.0000 0.95882  0.80839  0.70073  Biso   1.000  O
  O233     1.0000 0.69161  0.54118  0.79927  Biso   1.000  O
  O234     1.0000 0.45882  0.69161  0.79927  Biso   1.000  O
  O235     1.0000 0.30839  0.45882  0.79927  Biso   1.000  O
  O236     1.0000 0.54118  0.30839  0.79927  Biso   1.000  O
  O237     1.0000 0.69161  0.45882  0.20073  Biso   1.000  O
  O238     1.0000 0.54118  0.69161  0.20073  Biso   1.000  O
  O239     1.0000 0.30839  0.54118  0.20073  Biso   1.000  O
  O240     1.0000 0.45882  0.30839  0.20073  Biso   1.000  O
  O241     1.0000 0.80839  0.95882  0.70073  Biso   1.000  O
  O242     1.0000 0.04118  0.80839  0.70073  Biso   1.000  O
  O243     1.0000 0.19161  0.04118  0.70073  Biso   1.000  O
  O244     1.0000 0.95882  0.19161  0.70073  Biso   1.000  O
  O245     1.0000 0.80839  0.04118  0.29927  Biso   1.000  O
  O246     1.0000 0.95882  0.80839  0.29927  Biso   1.000  O
  O247     1.0000 0.19161  0.95882  0.29927  Biso   1.000  O
  O248     1.0000 0.04118  0.19161  0.29927  Biso   1.000  O
  O249     1.0000 0.30839  0.45882  0.20073  Biso   1.000  O
  O250     1.0000 0.54118  0.30839  0.20073  Biso   1.000  O
  O251     1.0000 0.69161  0.54118  0.20073  Biso   1.000  O
  O252     1.0000 0.45882  0.69161  0.20073  Biso   1.000  O
  O253     1.0000 0.30839  0.54118  0.79927  Biso   1.000  O
  O254     1.0000 0.45882  0.30839  0.79927  Biso   1.000  O
  O255     1.0000 0.69161  0.45882  0.79927  Biso   1.000  O
  O256     1.0000 0.54118  0.69161  0.79927  Biso   1.000  O
  O257     1.0000 0.14590  0.14590  0.41601  Biso   1.000  O
  O258     1.0000 0.85410  0.14590  0.41601  Biso   1.000  O
  O259     1.0000 0.85410  0.85410  0.41601  Biso   1.000  O
  O260     1.0000 0.14590  0.85410  0.41601  Biso   1.000  O
  O261     1.0000 0.14590  0.85410  0.58399  Biso   1.000  O
  O262     1.0000 0.14590  0.14590  0.58399  Biso   1.000  O
  O263     1.0000 0.85410  0.14590  0.58399  Biso   1.000  O
  O264     1.0000 0.85410  0.85410  0.58399  Biso   1.000  O
  O265     1.0000 0.64590  0.64590  0.91601  Biso   1.000  O
  O266     1.0000 0.35410  0.64590  0.91601  Biso   1.000  O
  O267     1.0000 0.35410  0.35410  0.91601  Biso   1.000  O
  O268     1.0000 0.64590  0.35410  0.91601  Biso   1.000  O
  O269     1.0000 0.64590  0.35410  0.08399  Biso   1.000  O
  O270     1.0000 0.64590  0.64590  0.08399  Biso   1.000  O
  O271     1.0000 0.35410  0.64590  0.08399  Biso   1.000  O
  O272     1.0000 0.35410  0.35410  0.08399  Biso   1.000  O
  O273     1.0000 0.04113  0.04113  0.45965  Biso   1.000  O
  O274     1.0000 0.95887  0.04113  0.45965  Biso   1.000  O
  O275     1.0000 0.95887  0.95887  0.45965  Biso   1.000  O
  O276     1.0000 0.04113  0.95887  0.45965  Biso   1.000  O
  O277     1.0000 0.04113  0.95887  0.54035  Biso   1.000  O
  O278     1.0000 0.04113  0.04113  0.54035  Biso   1.000  O
  O279     1.0000 0.95887  0.04113  0.54035  Biso   1.000  O
  O280     1.0000 0.95887  0.95887  0.54035  Biso   1.000  O
  O281     1.0000 0.54113  0.54113  0.95965  Biso   1.000  O
  O282     1.0000 0.45887  0.54113  0.95965  Biso   1.000  O
  O283     1.0000 0.45887  0.45887  0.95965  Biso   1.000  O
  O284     1.0000 0.54113  0.45887  0.95965  Biso   1.000  O
  O285     1.0000 0.54113  0.45887  0.04035  Biso   1.000  O
  O286     1.0000 0.54113  0.54113  0.04035  Biso   1.000  O
  O287     1.0000 0.45887  0.54113  0.04035  Biso   1.000  O
  O288     1.0000 0.45887  0.45887  0.04035  Biso   1.000  O
  O289     1.0000 0.12300  0.00000  0.14530  Biso   1.000  O
  O290     1.0000 0.00000  0.12300  0.14530  Biso   1.000  O
  O291     1.0000 0.87700  0.00000  0.14530  Biso   1.000  O
  O292     1.0000 0.00000  0.87700  0.14530  Biso   1.000  O
  O293     1.0000 0.12300  0.00000  0.85470  Biso   1.000  O
  O294     1.0000 0.00000  0.12300  0.85470  Biso   1.000  O
  O295     1.0000 0.87700  0.00000  0.85470  Biso   1.000  O
  O296     1.0000 0.00000  0.87700  0.85470  Biso   1.000  O
  O297     1.0000 0.62300  0.50000  0.64530  Biso   1.000  O
  O298     1.0000 0.50000  0.62300  0.64530  Biso   1.000  O
  O299     1.0000 0.37700  0.50000  0.64530  Biso   1.000  O
  O300     1.0000 0.50000  0.37700  0.64530  Biso   1.000  O
  O301     1.0000 0.62300  0.50000  0.35470  Biso   1.000  O
  O302     1.0000 0.50000  0.62300  0.35470  Biso   1.000  O
  O303     1.0000 0.37700  0.50000  0.35470  Biso   1.000  O
  O304     1.0000 0.50000  0.37700  0.35470  Biso   1.000  O
  O305     1.0000 0.27110  0.00000  0.32510  Biso   1.000  O
  O306     1.0000 0.00000  0.27110  0.32510  Biso   1.000  O
  O307     1.0000 0.72890  0.00000  0.32510  Biso   1.000  O
  O308     1.0000 0.00000  0.72890  0.32510  Biso   1.000  O
  O309     1.0000 0.27110  0.00000  0.67490  Biso   1.000  O
  O310     1.0000 0.00000  0.27110  0.67490  Biso   1.000  O
  O311     1.0000 0.72890  0.00000  0.67490  Biso   1.000  O
  O312     1.0000 0.00000  0.72890  0.67490  Biso   1.000  O
  O313     1.0000 0.77110  0.50000  0.82510  Biso   1.000  O
  O314     1.0000 0.50000  0.77110  0.82510  Biso   1.000  O
  O315     1.0000 0.22890  0.50000  0.82510  Biso   1.000  O
  O316     1.0000 0.50000  0.22890  0.82510  Biso   1.000  O
  O317     1.0000 0.77110  0.50000  0.17490  Biso   1.000  O
  O318     1.0000 0.50000  0.77110  0.17490  Biso   1.000  O
  O319     1.0000 0.22890  0.50000  0.17490  Biso   1.000  O
  O320     1.0000 0.50000  0.22890  0.17490  Biso   1.000  O
  O321     1.0000 0.12321  0.12321  0.00000  Biso   1.000  O
  O322     1.0000 0.87679  0.12321  0.00000  Biso   1.000  O
  O323     1.0000 0.87679  0.87679  0.00000  Biso   1.000  O
  O324     1.0000 0.12321  0.87679  0.00000  Biso   1.000  O
  O325     1.0000 0.62321  0.62321  0.50000  Biso   1.000  O
  O326     1.0000 0.37679  0.62321  0.50000  Biso   1.000  O
  O327     1.0000 0.37679  0.37679  0.50000  Biso   1.000  O
  O328     1.0000 0.62321  0.37679  0.50000  Biso   1.000  O
  O329     1.0000 0.27030  0.27030  0.00000  Biso   1.000  O
  O330     1.0000 0.72970  0.27030  0.00000  Biso   1.000  O
  O331     1.0000 0.72970  0.72970  0.00000  Biso   1.000  O
  O332     1.0000 0.27030  0.72970  0.00000  Biso   1.000  O
  O333     1.0000 0.77030  0.77030  0.50000  Biso   1.000  O
  O334     1.0000 0.22970  0.77030  0.50000  Biso   1.000  O
  O335     1.0000 0.22970  0.22970  0.50000  Biso   1.000  O
  O336     1.0000 0.77030  0.22970  0.50000  Biso   1.000  O
  O337     1.0000 0.50000  0.00000  0.37610  Biso   1.000  O
  O338     1.0000 0.00000  0.50000  0.37610  Biso   1.000  O
  O339     1.0000 0.50000  0.00000  0.62390  Biso   1.000  O
  O340     1.0000 0.00000  0.50000  0.62390  Biso   1.000  O
  O341     1.0000 0.00000  0.50000  0.87610  Biso   1.000  O
  O342     1.0000 0.50000  0.00000  0.87610  Biso   1.000  O
  O343     1.0000 0.00000  0.50000  0.12390  Biso   1.000  O
  O344     1.0000 0.50000  0.00000  0.12390  Biso   1.000  O
  O345     1.0000 0.00000  0.00000  0.37260  Biso   1.000  O
  O346     1.0000 0.00000  0.00000  0.62740  Biso   1.000  O
  O347     1.0000 0.50000  0.50000  0.87260  Biso   1.000  O
  O348     1.0000 0.50000  0.50000  0.12740  Biso   1.000  O
  C1       1.0000 0.25680  0.08638  0.16373  Biso   1.000  C
  C2       1.0000 0.91362  0.25680  0.16373  Biso   1.000  C
  C3       1.0000 0.74320  0.91362  0.16373  Biso   1.000  C
  C4       1.0000 0.08638  0.74320  0.16373  Biso   1.000  C
  C5       1.0000 0.25680  0.91362  0.83627  Biso   1.000  C
  C6       1.0000 0.08638  0.25680  0.83627  Biso   1.000  C
  C7       1.0000 0.74320  0.08638  0.83627  Biso   1.000  C
  C8       1.0000 0.91362  0.74320  0.83627  Biso   1.000  C
  C9       1.0000 0.75680  0.58638  0.66373  Biso   1.000  C
  C10      1.0000 0.41362  0.75680  0.66373  Biso   1.000  C
  C11      1.0000 0.24320  0.41362  0.66373  Biso   1.000  C
  C12      1.0000 0.58638  0.24320  0.66373  Biso   1.000  C
  C13      1.0000 0.75680  0.41362  0.33627  Biso   1.000  C
  C14      1.0000 0.58638  0.75680  0.33627  Biso   1.000  C
  C15      1.0000 0.24320  0.58638  0.33627  Biso   1.000  C
  C16      1.0000 0.41362  0.24320  0.33627  Biso   1.000  C
  C17      1.0000 0.74320  0.91362  0.83627  Biso   1.000  C
  C18      1.0000 0.08638  0.74320  0.83627  Biso   1.000  C
  C19      1.0000 0.25680  0.08638  0.83627  Biso   1.000  C
  C20      1.0000 0.91362  0.25680  0.83627  Biso   1.000  C
  C21      1.0000 0.74320  0.08638  0.16373  Biso   1.000  C
  C22      1.0000 0.91362  0.74320  0.16373  Biso   1.000  C
  C23      1.0000 0.25680  0.91362  0.16373  Biso   1.000  C
  C24      1.0000 0.08638  0.25680  0.16373  Biso   1.000  C
  C25      1.0000 0.24320  0.41362  0.33627  Biso   1.000  C
  C26      1.0000 0.58638  0.24320  0.33627  Biso   1.000  C
  C27      1.0000 0.75680  0.58638  0.33627  Biso   1.000  C
  C28      1.0000 0.41362  0.75680  0.33627  Biso   1.000  C
  C29      1.0000 0.24320  0.58638  0.66373  Biso   1.000  C
  C30      1.0000 0.41362  0.24320  0.66373  Biso   1.000  C
  C31      1.0000 0.75680  0.41362  0.66373  Biso   1.000  C
  C32      1.0000 0.58638  0.75680  0.66373  Biso   1.000  C
  C33      1.0000 0.23774  0.10620  0.12577  Biso   1.000  C
  C34      1.0000 0.89380  0.23774  0.12577  Biso   1.000  C
  C35      1.0000 0.76226  0.89380  0.12577  Biso   1.000  C
  C36      1.0000 0.10620  0.76226  0.12577  Biso   1.000  C
  C37      1.0000 0.23774  0.89380  0.87423  Biso   1.000  C
  C38      1.0000 0.10620  0.23774  0.87423  Biso   1.000  C
  C39      1.0000 0.76226  0.10620  0.87423  Biso   1.000  C
  C40      1.0000 0.89380  0.76226  0.87423  Biso   1.000  C
  C41      1.0000 0.73774  0.60620  0.62577  Biso   1.000  C
  C42      1.0000 0.39380  0.73774  0.62577  Biso   1.000  C
  C43      1.0000 0.26226  0.39380  0.62577  Biso   1.000  C
  C44      1.0000 0.60620  0.26226  0.62577  Biso   1.000  C
  C45      1.0000 0.73774  0.39380  0.37423  Biso   1.000  C
  C46      1.0000 0.60620  0.73774  0.37423  Biso   1.000  C
  C47      1.0000 0.26226  0.60620  0.37423  Biso   1.000  C
  C48      1.0000 0.39380  0.26226  0.37423  Biso   1.000  C
  C49      1.0000 0.76226  0.89380  0.87423  Biso   1.000  C
  C50      1.0000 0.10620  0.76226  0.87423  Biso   1.000  C
  C51      1.0000 0.23774  0.10620  0.87423  Biso   1.000  C
  C52      1.0000 0.89380  0.23774  0.87423  Biso   1.000  C
  C53      1.0000 0.76226  0.10620  0.12577  Biso   1.000  C
  C54      1.0000 0.89380  0.76226  0.12577  Biso   1.000  C
  C55      1.0000 0.23774  0.89380  0.12577  Biso   1.000  C
  C56      1.0000 0.10620  0.23774  0.12577  Biso   1.000  C
  C57      1.0000 0.26226  0.39380  0.37423  Biso   1.000  C
  C58      1.0000 0.60620  0.26226  0.37423  Biso   1.000  C
  C59      1.0000 0.73774  0.60620  0.37423  Biso   1.000  C
  C60      1.0000 0.39380  0.73774  0.37423  Biso   1.000  C
  C61      1.0000 0.26226  0.60620  0.62577  Biso   1.000  C
  C62      1.0000 0.39380  0.26226  0.62577  Biso   1.000  C
  C63      1.0000 0.73774  0.39380  0.62577  Biso   1.000  C
  C64      1.0000 0.60620  0.73774  0.62577  Biso   1.000  C
  H1       1.0000 0.21230  0.09840  0.11600  Biso   1.000  H
  H2       1.0000 0.90160  0.21230  0.11600  Biso   1.000  H
  H3       1.0000 0.78770  0.90160  0.11600  Biso   1.000  H
  H4       1.0000 0.09840  0.78770  0.11600  Biso   1.000  H
  H5       1.0000 0.21230  0.90160  0.88400  Biso   1.000  H
  H6       1.0000 0.09840  0.21230  0.88400  Biso   1.000  H
  H7       1.0000 0.78770  0.09840  0.88400  Biso   1.000  H
  H8       1.0000 0.90160  0.78770  0.88400  Biso   1.000  H
  H9       1.0000 0.71230  0.59840  0.61600  Biso   1.000  H
  H10      1.0000 0.40160  0.71230  0.61600  Biso   1.000  H
  H11      1.0000 0.28770  0.40160  0.61600  Biso   1.000  H
  H12      1.0000 0.59840  0.28770  0.61600  Biso   1.000  H
  H13      1.0000 0.71230  0.40160  0.38400  Biso   1.000  H
  H14      1.0000 0.59840  0.71230  0.38400  Biso   1.000  H
  H15      1.0000 0.28770  0.59840  0.38400  Biso   1.000  H
  H16      1.0000 0.40160  0.28770  0.38400  Biso   1.000  H
  H17      1.0000 0.78770  0.90160  0.88400  Biso   1.000  H
  H18      1.0000 0.09840  0.78770  0.88400  Biso   1.000  H
  H19      1.0000 0.21230  0.09840  0.88400  Biso   1.000  H
  H20      1.0000 0.90160  0.21230  0.88400  Biso   1.000  H
  H21      1.0000 0.78770  0.09840  0.11600  Biso   1.000  H
  H22      1.0000 0.90160  0.78770  0.11600  Biso   1.000  H
  H23      1.0000 0.21230  0.90160  0.11600  Biso   1.000  H
  H24      1.0000 0.09840  0.21230  0.11600  Biso   1.000  H
  H25      1.0000 0.28770  0.40160  0.38400  Biso   1.000  H
  H26      1.0000 0.59840  0.28770  0.38400  Biso   1.000  H
  H27      1.0000 0.71230  0.59840  0.38400  Biso   1.000  H
  H28      1.0000 0.40160  0.71230  0.38400  Biso   1.000  H
  H29      1.0000 0.28770  0.59840  0.61600  Biso   1.000  H
  H30      1.0000 0.40160  0.28770  0.61600  Biso   1.000  H
  H31      1.0000 0.71230  0.40160  0.61600  Biso   1.000  H
  H32      1.0000 0.59840  0.71230  0.61600  Biso   1.000  H
  C65      1.0000 0.25685  0.13725  0.10297  Biso   1.000  C
  C66      1.0000 0.86275  0.25685  0.10297  Biso   1.000  C
  C67      1.0000 0.74315  0.86275  0.10297  Biso   1.000  C
  C68      1.0000 0.13725  0.74315  0.10297  Biso   1.000  C
  C69      1.0000 0.25685  0.86275  0.89703  Biso   1.000  C
  C70      1.0000 0.13725  0.25685  0.89703  Biso   1.000  C
  C71      1.0000 0.74315  0.13725  0.89703  Biso   1.000  C
  C72      1.0000 0.86275  0.74315  0.89703  Biso   1.000  C
  C73      1.0000 0.75685  0.63725  0.60297  Biso   1.000  C
  C74      1.0000 0.36275  0.75685  0.60297  Biso   1.000  C
  C75      1.0000 0.24315  0.36275  0.60297  Biso   1.000  C
  C76      1.0000 0.63725  0.24315  0.60297  Biso   1.000  C
  C77      1.0000 0.75685  0.36275  0.39703  Biso   1.000  C
  C78      1.0000 0.63725  0.75685  0.39703  Biso   1.000  C
  C79      1.0000 0.24315  0.63725  0.39703  Biso   1.000  C
  C80      1.0000 0.36275  0.24315  0.39703  Biso   1.000  C
  C81      1.0000 0.74315  0.86275  0.89703  Biso   1.000  C
  C82      1.0000 0.13725  0.74315  0.89703  Biso   1.000  C
  C83      1.0000 0.25685  0.13725  0.89703  Biso   1.000  C
  C84      1.0000 0.86275  0.25685  0.89703  Biso   1.000  C
  C85      1.0000 0.74315  0.13725  0.10297  Biso   1.000  C
  C86      1.0000 0.86275  0.74315  0.10297  Biso   1.000  C
  C87      1.0000 0.25685  0.86275  0.10297  Biso   1.000  C
  C88      1.0000 0.13725  0.25685  0.10297  Biso   1.000  C
  C89      1.0000 0.24315  0.36275  0.39703  Biso   1.000  C
  C90      1.0000 0.63725  0.24315  0.39703  Biso   1.000  C
  C91      1.0000 0.75685  0.63725  0.39703  Biso   1.000  C
  C92      1.0000 0.36275  0.75685  0.39703  Biso   1.000  C
  C93      1.0000 0.24315  0.63725  0.60297  Biso   1.000  C
  C94      1.0000 0.36275  0.24315  0.60297  Biso   1.000  C
  C95      1.0000 0.75685  0.36275  0.60297  Biso   1.000  C
  C96      1.0000 0.63725  0.75685  0.60297  Biso   1.000  C
  C97      1.0000 0.29479  0.14885  0.11725  Biso   1.000  C
  C98      1.0000 0.85115  0.29479  0.11725  Biso   1.000  C
  C99      1.0000 0.70521  0.85115  0.11725  Biso   1.000  C
  C100     1.0000 0.14885  0.70521  0.11725  Biso   1.000  C
  C101     1.0000 0.29479  0.85115  0.88275  Biso   1.000  C
  C102     1.0000 0.14885  0.29479  0.88275  Biso   1.000  C
  C103     1.0000 0.70521  0.14885  0.88275  Biso   1.000  C
  C104     1.0000 0.85115  0.70521  0.88275  Biso   1.000  C
  C105     1.0000 0.79479  0.64885  0.61725  Biso   1.000  C
  C106     1.0000 0.35115  0.79479  0.61725  Biso   1.000  C
  C107     1.0000 0.20521  0.35115  0.61725  Biso   1.000  C
  C108     1.0000 0.64885  0.20521  0.61725  Biso   1.000  C
  C109     1.0000 0.79479  0.35115  0.38275  Biso   1.000  C
  C110     1.0000 0.64885  0.79479  0.38275  Biso   1.000  C
  C111     1.0000 0.20521  0.64885  0.38275  Biso   1.000  C
  C112     1.0000 0.35115  0.20521  0.38275  Biso   1.000  C
  C113     1.0000 0.70521  0.85115  0.88275  Biso   1.000  C
  C114     1.0000 0.14885  0.70521  0.88275  Biso   1.000  C
  C115     1.0000 0.29479  0.14885  0.88275  Biso   1.000  C
  C116     1.0000 0.85115  0.29479  0.88275  Biso   1.000  C
  C117     1.0000 0.70521  0.14885  0.11725  Biso   1.000  C
  C118     1.0000 0.85115  0.70521  0.11725  Biso   1.000  C
  C119     1.0000 0.29479  0.85115  0.11725  Biso   1.000  C
  C120     1.0000 0.14885  0.29479  0.11725  Biso   1.000  C
  C121     1.0000 0.20521  0.35115  0.38275  Biso   1.000  C
  C122     1.0000 0.64885  0.20521  0.38275  Biso   1.000  C
  C123     1.0000 0.79479  0.64885  0.38275  Biso   1.000  C
  C124     1.0000 0.35115  0.79479  0.38275  Biso   1.000  C
  C125     1.0000 0.20521  0.64885  0.61725  Biso   1.000  C
  C126     1.0000 0.35115  0.20521  0.61725  Biso   1.000  C
  C127     1.0000 0.79479  0.35115  0.61725  Biso   1.000  C
  C128     1.0000 0.64885  0.79479  0.61725  Biso   1.000  C
  H33      1.0000 0.30740  0.17040  0.10240  Biso   1.000  H
  H34      1.0000 0.82960  0.30740  0.10240  Biso   1.000  H
  H35      1.0000 0.69260  0.82960  0.10240  Biso   1.000  H
  H36      1.0000 0.17040  0.69260  0.10240  Biso   1.000  H
  H37      1.0000 0.30740  0.82960  0.89760  Biso   1.000  H
  H38      1.0000 0.17040  0.30740  0.89760  Biso   1.000  H
  H39      1.0000 0.69260  0.17040  0.89760  Biso   1.000  H
  H40      1.0000 0.82960  0.69260  0.89760  Biso   1.000  H
  H41      1.0000 0.80740  0.67040  0.60240  Biso   1.000  H
  H42      1.0000 0.32960  0.80740  0.60240  Biso   1.000  H
  H43      1.0000 0.19260  0.32960  0.60240  Biso   1.000  H
  H44      1.0000 0.67040  0.19260  0.60240  Biso   1.000  H
  H45      1.0000 0.80740  0.32960  0.39760  Biso   1.000  H
  H46      1.0000 0.67040  0.80740  0.39760  Biso   1.000  H
  H47      1.0000 0.19260  0.67040  0.39760  Biso   1.000  H
  H48      1.0000 0.32960  0.19260  0.39760  Biso   1.000  H
  H49      1.0000 0.69260  0.82960  0.89760  Biso   1.000  H
  H50      1.0000 0.17040  0.69260  0.89760  Biso   1.000  H
  H51      1.0000 0.30740  0.17040  0.89760  Biso   1.000  H
  H52      1.0000 0.82960  0.30740  0.89760  Biso   1.000  H
  H53      1.0000 0.69260  0.17040  0.10240  Biso   1.000  H
  H54      1.0000 0.82960  0.69260  0.10240  Biso   1.000  H
  H55      1.0000 0.30740  0.82960  0.10240  Biso   1.000  H
  H56      1.0000 0.17040  0.30740  0.10240  Biso   1.000  H
  H57      1.0000 0.19260  0.32960  0.39760  Biso   1.000  H
  H58      1.0000 0.67040  0.19260  0.39760  Biso   1.000  H
  H59      1.0000 0.80740  0.67040  0.39760  Biso   1.000  H
  H60      1.0000 0.32960  0.80740  0.39760  Biso   1.000  H
  H61      1.0000 0.19260  0.67040  0.60240  Biso   1.000  H
  H62      1.0000 0.32960  0.19260  0.60240  Biso   1.000  H
  H63      1.0000 0.80740  0.32960  0.60240  Biso   1.000  H
  H64      1.0000 0.67040  0.80740  0.60240  Biso   1.000  H
  C129     1.0000 0.31370  0.12807  0.15377  Biso   1.000  C
  C130     1.0000 0.87193  0.31370  0.15377  Biso   1.000  C
  C131     1.0000 0.68630  0.87193  0.15377  Biso   1.000  C
  C132     1.0000 0.12807  0.68630  0.15377  Biso   1.000  C
  C133     1.0000 0.31370  0.87193  0.84623  Biso   1.000  C
  C134     1.0000 0.12807  0.31370  0.84623  Biso   1.000  C
  C135     1.0000 0.68630  0.12807  0.84623  Biso   1.000  C
  C136     1.0000 0.87193  0.68630  0.84623  Biso   1.000  C
  C137     1.0000 0.81370  0.62807  0.65377  Biso   1.000  C
  C138     1.0000 0.37193  0.81370  0.65377  Biso   1.000  C
  C139     1.0000 0.18630  0.37193  0.65377  Biso   1.000  C
  C140     1.0000 0.62807  0.18630  0.65377  Biso   1.000  C
  C141     1.0000 0.81370  0.37193  0.34623  Biso   1.000  C
  C142     1.0000 0.62807  0.81370  0.34623  Biso   1.000  C
  C143     1.0000 0.18630  0.62807  0.34623  Biso   1.000  C
  C144     1.0000 0.37193  0.18630  0.34623  Biso   1.000  C
  C145     1.0000 0.68630  0.87193  0.84623  Biso   1.000  C
  C146     1.0000 0.12807  0.68630  0.84623  Biso   1.000  C
  C147     1.0000 0.31370  0.12807  0.84623  Biso   1.000  C
  C148     1.0000 0.87193  0.31370  0.84623  Biso   1.000  C
  C149     1.0000 0.68630  0.12807  0.15377  Biso   1.000  C
  C150     1.0000 0.87193  0.68630  0.15377  Biso   1.000  C
  C151     1.0000 0.31370  0.87193  0.15377  Biso   1.000  C
  C152     1.0000 0.12807  0.31370  0.15377  Biso   1.000  C
  C153     1.0000 0.18630  0.37193  0.34623  Biso   1.000  C
  C154     1.0000 0.62807  0.18630  0.34623  Biso   1.000  C
  C155     1.0000 0.81370  0.62807  0.34623  Biso   1.000  C
  C156     1.0000 0.37193  0.81370  0.34623  Biso   1.000  C
  C157     1.0000 0.18630  0.62807  0.65377  Biso   1.000  C
  C158     1.0000 0.37193  0.18630  0.65377  Biso   1.000  C
  C159     1.0000 0.81370  0.37193  0.65377  Biso   1.000  C
  C160     1.0000 0.62807  0.81370  0.65377  Biso   1.000  C
  C161     1.0000 0.29435  0.09750  0.17799  Biso   1.000  C
  C162     1.0000 0.90250  0.29435  0.17799  Biso   1.000  C
  C163     1.0000 0.70565  0.90250  0.17799  Biso   1.000  C
  C164     1.0000 0.09750  0.70565  0.17799  Biso   1.000  C
  C165     1.0000 0.29435  0.90250  0.82201  Biso   1.000  C
  C166     1.0000 0.09750  0.29435  0.82201  Biso   1.000  C
  C167     1.0000 0.70565  0.09750  0.82201  Biso   1.000  C
  C168     1.0000 0.90250  0.70565  0.82201  Biso   1.000  C
  C169     1.0000 0.79435  0.59750  0.67799  Biso   1.000  C
  C170     1.0000 0.40250  0.79435  0.67799  Biso   1.000  C
  C171     1.0000 0.20565  0.40250  0.67799  Biso   1.000  C
  C172     1.0000 0.59750  0.20565  0.67799  Biso   1.000  C
  C173     1.0000 0.79435  0.40250  0.32201  Biso   1.000  C
  C174     1.0000 0.59750  0.79435  0.32201  Biso   1.000  C
  C175     1.0000 0.20565  0.59750  0.32201  Biso   1.000  C
  C176     1.0000 0.40250  0.20565  0.32201  Biso   1.000  C
  C177     1.0000 0.70565  0.90250  0.82201  Biso   1.000  C
  C178     1.0000 0.09750  0.70565  0.82201  Biso   1.000  C
  C179     1.0000 0.29435  0.09750  0.82201  Biso   1.000  C
  C180     1.0000 0.90250  0.29435  0.82201  Biso   1.000  C
  C181     1.0000 0.70565  0.09750  0.17799  Biso   1.000  C
  C182     1.0000 0.90250  0.70565  0.17799  Biso   1.000  C
  C183     1.0000 0.29435  0.90250  0.17799  Biso   1.000  C
  C184     1.0000 0.09750  0.29435  0.17799  Biso   1.000  C
  C185     1.0000 0.20565  0.40250  0.32201  Biso   1.000  C
  C186     1.0000 0.59750  0.20565  0.32201  Biso   1.000  C
  C187     1.0000 0.79435  0.59750  0.32201  Biso   1.000  C
  C188     1.0000 0.40250  0.79435  0.32201  Biso   1.000  C
  C189     1.0000 0.20565  0.59750  0.67799  Biso   1.000  C
  C190     1.0000 0.40250  0.20565  0.67799  Biso   1.000  C
  C191     1.0000 0.79435  0.40250  0.67799  Biso   1.000  C
  C192     1.0000 0.59750  0.79435  0.67799  Biso   1.000  C
  H65      1.0000 0.30680  0.08470  0.20370  Biso   1.000  H
  H66      1.0000 0.91530  0.30680  0.20370  Biso   1.000  H
  H67      1.0000 0.69320  0.91530  0.20370  Biso   1.000  H
  H68      1.0000 0.08470  0.69320  0.20370  Biso   1.000  H
  H69      1.0000 0.30680  0.91530  0.79630  Biso   1.000  H
  H70      1.0000 0.08470  0.30680  0.79630  Biso   1.000  H
  H71      1.0000 0.69320  0.08470  0.79630  Biso   1.000  H
  H72      1.0000 0.91530  0.69320  0.79630  Biso   1.000  H
  H73      1.0000 0.80680  0.58470  0.70370  Biso   1.000  H
  H74      1.0000 0.41530  0.80680  0.70370  Biso   1.000  H
  H75      1.0000 0.19320  0.41530  0.70370  Biso   1.000  H
  H76      1.0000 0.58470  0.19320  0.70370  Biso   1.000  H
  H77      1.0000 0.80680  0.41530  0.29630  Biso   1.000  H
  H78      1.0000 0.58470  0.80680  0.29630  Biso   1.000  H
  H79      1.0000 0.19320  0.58470  0.29630  Biso   1.000  H
  H80      1.0000 0.41530  0.19320  0.29630  Biso   1.000  H
  H81      1.0000 0.69320  0.91530  0.79630  Biso   1.000  H
  H82      1.0000 0.08470  0.69320  0.79630  Biso   1.000  H
  H83      1.0000 0.30680  0.08470  0.79630  Biso   1.000  H
  H84      1.0000 0.91530  0.30680  0.79630  Biso   1.000  H
  H85      1.0000 0.69320  0.08470  0.20370  Biso   1.000  H
  H86      1.0000 0.91530  0.69320  0.20370  Biso   1.000  H
  H87      1.0000 0.30680  0.91530  0.20370  Biso   1.000  H
  H88      1.0000 0.08470  0.30680  0.20370  Biso   1.000  H
  H89      1.0000 0.19320  0.41530  0.29630  Biso   1.000  H
  H90      1.0000 0.58470  0.19320  0.29630  Biso   1.000  H
  H91      1.0000 0.80680  0.58470  0.29630  Biso   1.000  H
  H92      1.0000 0.41530  0.80680  0.29630  Biso   1.000  H
  H93      1.0000 0.19320  0.58470  0.70370  Biso   1.000  H
  H94      1.0000 0.41530  0.19320  0.70370  Biso   1.000  H
  H95      1.0000 0.80680  0.41530  0.70370  Biso   1.000  H
  H96      1.0000 0.58470  0.80680  0.70370  Biso   1.000  H
  C193     1.0000 0.23441  0.05339  0.19021  Biso   1.000  C
  C194     1.0000 0.94661  0.23441  0.19021  Biso   1.000  C
  C195     1.0000 0.76559  0.94661  0.19021  Biso   1.000  C
  C196     1.0000 0.05339  0.76559  0.19021  Biso   1.000  C
  C197     1.0000 0.23441  0.94661  0.80979  Biso   1.000  C
  C198     1.0000 0.05339  0.23441  0.80979  Biso   1.000  C
  C199     1.0000 0.76559  0.05339  0.80979  Biso   1.000  C
  C200     1.0000 0.94661  0.76559  0.80979  Biso   1.000  C
  C201     1.0000 0.73441  0.55339  0.69021  Biso   1.000  C
  C202     1.0000 0.44661  0.73441  0.69021  Biso   1.000  C
  C203     1.0000 0.26559  0.44661  0.69021  Biso   1.000  C
  C204     1.0000 0.55339  0.26559  0.69021  Biso   1.000  C
  C205     1.0000 0.73441  0.44661  0.30979  Biso   1.000  C
  C206     1.0000 0.55339  0.73441  0.30979  Biso   1.000  C
  C207     1.0000 0.26559  0.55339  0.30979  Biso   1.000  C
  C208     1.0000 0.44661  0.26559  0.30979  Biso   1.000  C
  C209     1.0000 0.76559  0.94661  0.80979  Biso   1.000  C
  C210     1.0000 0.05339  0.76559  0.80979  Biso   1.000  C
  C211     1.0000 0.23441  0.05339  0.80979  Biso   1.000  C
  C212     1.0000 0.94661  0.23441  0.80979  Biso   1.000  C
  C213     1.0000 0.76559  0.05339  0.19021  Biso   1.000  C
  C214     1.0000 0.94661  0.76559  0.19021  Biso   1.000  C
  C215     1.0000 0.23441  0.94661  0.19021  Biso   1.000  C
  C216     1.0000 0.05339  0.23441  0.19021  Biso   1.000  C
  C217     1.0000 0.26559  0.44661  0.30979  Biso   1.000  C
  C218     1.0000 0.55339  0.26559  0.30979  Biso   1.000  C
  C219     1.0000 0.73441  0.55339  0.30979  Biso   1.000  C
  C220     1.0000 0.44661  0.73441  0.30979  Biso   1.000  C
  C221     1.0000 0.26559  0.55339  0.69021  Biso   1.000  C
  C222     1.0000 0.44661  0.26559  0.69021  Biso   1.000  C
  C223     1.0000 0.73441  0.44661  0.69021  Biso   1.000  C
  C224     1.0000 0.55339  0.73441  0.69021  Biso   1.000  C
  C225     1.0000 0.23526  0.15996  0.06398  Biso   1.000  C
  C226     1.0000 0.84004  0.23526  0.06398  Biso   1.000  C
  C227     1.0000 0.76474  0.84004  0.06398  Biso   1.000  C
  C228     1.0000 0.15996  0.76474  0.06398  Biso   1.000  C
  C229     1.0000 0.23526  0.84004  0.93602  Biso   1.000  C
  C230     1.0000 0.15996  0.23526  0.93602  Biso   1.000  C
  C231     1.0000 0.76474  0.15996  0.93602  Biso   1.000  C
  C232     1.0000 0.84004  0.76474  0.93602  Biso   1.000  C
  C233     1.0000 0.73526  0.65996  0.56398  Biso   1.000  C
  C234     1.0000 0.34004  0.73526  0.56398  Biso   1.000  C
  C235     1.0000 0.26474  0.34004  0.56398  Biso   1.000  C
  C236     1.0000 0.65996  0.26474  0.56398  Biso   1.000  C
  C237     1.0000 0.73526  0.34004  0.43602  Biso   1.000  C
  C238     1.0000 0.65996  0.73526  0.43602  Biso   1.000  C
  C239     1.0000 0.26474  0.65996  0.43602  Biso   1.000  C
  C240     1.0000 0.34004  0.26474  0.43602  Biso   1.000  C
  C241     1.0000 0.76474  0.84004  0.93602  Biso   1.000  C
  C242     1.0000 0.15996  0.76474  0.93602  Biso   1.000  C
  C243     1.0000 0.23526  0.15996  0.93602  Biso   1.000  C
  C244     1.0000 0.84004  0.23526  0.93602  Biso   1.000  C
  C245     1.0000 0.76474  0.15996  0.06398  Biso   1.000  C
  C246     1.0000 0.84004  0.76474  0.06398  Biso   1.000  C
  C247     1.0000 0.23526  0.84004  0.06398  Biso   1.000  C
  C248     1.0000 0.15996  0.23526  0.06398  Biso   1.000  C
  C249     1.0000 0.26474  0.34004  0.43602  Biso   1.000  C
  C250     1.0000 0.65996  0.26474  0.43602  Biso   1.000  C
  C251     1.0000 0.73526  0.65996  0.43602  Biso   1.000  C
  C252     1.0000 0.34004  0.73526  0.43602  Biso   1.000  C
  C253     1.0000 0.26474  0.65996  0.56398  Biso   1.000  C
  C254     1.0000 0.34004  0.26474  0.56398  Biso   1.000  C
  C255     1.0000 0.73526  0.34004  0.56398  Biso   1.000  C
  C256     1.0000 0.65996  0.73526  0.56398  Biso   1.000  C
  C257     1.0000 0.36909  0.12661  0.20793  Biso   1.000  C
  C258     1.0000 0.87339  0.36909  0.20793  Biso   1.000  C
  C259     1.0000 0.63091  0.87339  0.20793  Biso   1.000  C
  C260     1.0000 0.12661  0.63091  0.20793  Biso   1.000  C
  C261     1.0000 0.36909  0.87339  0.79207  Biso   1.000  C
  C262     1.0000 0.12661  0.36909  0.79207  Biso   1.000  C
  C263     1.0000 0.63091  0.12661  0.79207  Biso   1.000  C
  C264     1.0000 0.87339  0.63091  0.79207  Biso   1.000  C
  C265     1.0000 0.86909  0.62661  0.70793  Biso   1.000  C
  C266     1.0000 0.37339  0.86909  0.70793  Biso   1.000  C
  C267     1.0000 0.13091  0.37339  0.70793  Biso   1.000  C
  C268     1.0000 0.62661  0.13091  0.70793  Biso   1.000  C
  C269     1.0000 0.86909  0.37339  0.29207  Biso   1.000  C
  C270     1.0000 0.62661  0.86909  0.29207  Biso   1.000  C
  C271     1.0000 0.13091  0.62661  0.29207  Biso   1.000  C
  C272     1.0000 0.37339  0.13091  0.29207  Biso   1.000  C
  C273     1.0000 0.63091  0.87339  0.79207  Biso   1.000  C
  C274     1.0000 0.12661  0.63091  0.79207  Biso   1.000  C
  C275     1.0000 0.36909  0.12661  0.79207  Biso   1.000  C
  C276     1.0000 0.87339  0.36909  0.79207  Biso   1.000  C
  C277     1.0000 0.63091  0.12661  0.20793  Biso   1.000  C
  C278     1.0000 0.87339  0.63091  0.20793  Biso   1.000  C
  C279     1.0000 0.36909  0.87339  0.20793  Biso   1.000  C
  C280     1.0000 0.12661  0.36909  0.20793  Biso   1.000  C
  C281     1.0000 0.13091  0.37339  0.29207  Biso   1.000  C
  C282     1.0000 0.62661  0.13091  0.29207  Biso   1.000  C
  C283     1.0000 0.86909  0.62661  0.29207  Biso   1.000  C
  C284     1.0000 0.37339  0.86909  0.29207  Biso   1.000  C
  C285     1.0000 0.13091  0.62661  0.70793  Biso   1.000  C
  C286     1.0000 0.37339  0.13091  0.70793  Biso   1.000  C
  C287     1.0000 0.86909  0.37339  0.70793  Biso   1.000  C
  C288     1.0000 0.62661  0.86909  0.70793  Biso   1.000  C
  C289     1.0000 0.35560  0.14440  0.25000  Biso   1.000  C
  C290     1.0000 0.85560  0.35560  0.25000  Biso   1.000  C
  C291     1.0000 0.64440  0.85560  0.25000  Biso   1.000  C
  C292     1.0000 0.14440  0.64440  0.25000  Biso   1.000  C
  C293     1.0000 0.35560  0.85560  0.75000  Biso   1.000  C
  C294     1.0000 0.14440  0.35560  0.75000  Biso   1.000  C
  C295     1.0000 0.64440  0.14440  0.75000  Biso   1.000  C
  C296     1.0000 0.85560  0.64440  0.75000  Biso   1.000  C
  C297     1.0000 0.64440  0.85560  0.75000  Biso   1.000  C
  C298     1.0000 0.14440  0.64440  0.75000  Biso   1.000  C
  C299     1.0000 0.35560  0.14440  0.75000  Biso   1.000  C
  C300     1.0000 0.85560  0.35560  0.75000  Biso   1.000  C
  C301     1.0000 0.64440  0.14440  0.25000  Biso   1.000  C
  C302     1.0000 0.85560  0.64440  0.25000  Biso   1.000  C
  C303     1.0000 0.35560  0.85560  0.25000  Biso   1.000  C
  C304     1.0000 0.14440  0.35560  0.25000  Biso   1.000  C
  H97      1.0000 0.33590  0.16410  0.25000  Biso   1.000  H
  H98      1.0000 0.83590  0.33590  0.25000  Biso   1.000  H
  H99      1.0000 0.66410  0.83590  0.25000  Biso   1.000  H
  H100     1.0000 0.16410  0.66410  0.25000  Biso   1.000  H
  H101     1.0000 0.33590  0.83590  0.75000  Biso   1.000  H
  H102     1.0000 0.16410  0.33590  0.75000  Biso   1.000  H
  H103     1.0000 0.66410  0.16410  0.75000  Biso   1.000  H
  H104     1.0000 0.83590  0.66410  0.75000  Biso   1.000  H
  H105     1.0000 0.66410  0.83590  0.75000  Biso   1.000  H
  H106     1.0000 0.16410  0.66410  0.75000  Biso   1.000  H
  H107     1.0000 0.33590  0.16410  0.75000  Biso   1.000  H
  H108     1.0000 0.83590  0.33590  0.75000  Biso   1.000  H
  H109     1.0000 0.66410  0.16410  0.25000  Biso   1.000  H
  H110     1.0000 0.83590  0.66410  0.25000  Biso   1.000  H
  H111     1.0000 0.33590  0.83590  0.25000  Biso   1.000  H
  H112     1.0000 0.16410  0.33590  0.25000  Biso   1.000  H
  C305     1.0000 0.39791  0.09795  0.20710  Biso   1.000  C
  C306     1.0000 0.90205  0.39791  0.20710  Biso   1.000  C
  C307     1.0000 0.60209  0.90205  0.20710  Biso   1.000  C
  C308     1.0000 0.09795  0.60209  0.20710  Biso   1.000  C
  C309     1.0000 0.39791  0.90205  0.79290  Biso   1.000  C
  C310     1.0000 0.09795  0.39791  0.79290  Biso   1.000  C
  C311     1.0000 0.60209  0.09795  0.79290  Biso   1.000  C
  C312     1.0000 0.90205  0.60209  0.79290  Biso   1.000  C
  C313     1.0000 0.89791  0.59795  0.70710  Biso   1.000  C
  C314     1.0000 0.40205  0.89791  0.70710  Biso   1.000  C
  C315     1.0000 0.10209  0.40205  0.70710  Biso   1.000  C
  C316     1.0000 0.59795  0.10209  0.70710  Biso   1.000  C
  C317     1.0000 0.89791  0.40205  0.29290  Biso   1.000  C
  C318     1.0000 0.59795  0.89791  0.29290  Biso   1.000  C
  C319     1.0000 0.10209  0.59795  0.29290  Biso   1.000  C
  C320     1.0000 0.40205  0.10209  0.29290  Biso   1.000  C
  C321     1.0000 0.60209  0.90205  0.79290  Biso   1.000  C
  C322     1.0000 0.09795  0.60209  0.79290  Biso   1.000  C
  C323     1.0000 0.39791  0.09795  0.79290  Biso   1.000  C
  C324     1.0000 0.90205  0.39791  0.79290  Biso   1.000  C
  C325     1.0000 0.60209  0.09795  0.20710  Biso   1.000  C
  C326     1.0000 0.90205  0.60209  0.20710  Biso   1.000  C
  C327     1.0000 0.39791  0.90205  0.20710  Biso   1.000  C
  C328     1.0000 0.09795  0.39791  0.20710  Biso   1.000  C
  C329     1.0000 0.10209  0.40205  0.29290  Biso   1.000  C
  C330     1.0000 0.59795  0.10209  0.29290  Biso   1.000  C
  C331     1.0000 0.89791  0.59795  0.29290  Biso   1.000  C
  C332     1.0000 0.40205  0.89791  0.29290  Biso   1.000  C
  C333     1.0000 0.10209  0.59795  0.70710  Biso   1.000  C
  C334     1.0000 0.40205  0.10209  0.70710  Biso   1.000  C
  C335     1.0000 0.89791  0.40205  0.70710  Biso   1.000  C
  C336     1.0000 0.59795  0.89791  0.70710  Biso   1.000  C
  H113     1.0000 0.40620  0.08700  0.17800  Biso   1.000  H
  H114     1.0000 0.91300  0.40620  0.17800  Biso   1.000  H
  H115     1.0000 0.59380  0.91300  0.17800  Biso   1.000  H
  H116     1.0000 0.08700  0.59380  0.17800  Biso   1.000  H
  H117     1.0000 0.40620  0.91300  0.82200  Biso   1.000  H
  H118     1.0000 0.08700  0.40620  0.82200  Biso   1.000  H
  H119     1.0000 0.59380  0.08700  0.82200  Biso   1.000  H
  H120     1.0000 0.91300  0.59380  0.82200  Biso   1.000  H
  H121     1.0000 0.90620  0.58700  0.67800  Biso   1.000  H
  H122     1.0000 0.41300  0.90620  0.67800  Biso   1.000  H
  H123     1.0000 0.09380  0.41300  0.67800  Biso   1.000  H
  H124     1.0000 0.58700  0.09380  0.67800  Biso   1.000  H
  H125     1.0000 0.90620  0.41300  0.32200  Biso   1.000  H
  H126     1.0000 0.58700  0.90620  0.32200  Biso   1.000  H
  H127     1.0000 0.09380  0.58700  0.32200  Biso   1.000  H
  H128     1.0000 0.41300  0.09380  0.32200  Biso   1.000  H
  H129     1.0000 0.59380  0.91300  0.82200  Biso   1.000  H
  H130     1.0000 0.08700  0.59380  0.82200  Biso   1.000  H
  H131     1.0000 0.40620  0.08700  0.82200  Biso   1.000  H
  H132     1.0000 0.91300  0.40620  0.82200  Biso   1.000  H
  H133     1.0000 0.59380  0.08700  0.17800  Biso   1.000  H
  H134     1.0000 0.91300  0.59380  0.17800  Biso   1.000  H
  H135     1.0000 0.40620  0.91300  0.17800  Biso   1.000  H
  H136     1.0000 0.08700  0.40620  0.17800  Biso   1.000  H
  H137     1.0000 0.09380  0.41300  0.32200  Biso   1.000  H
  H138     1.0000 0.58700  0.09380  0.32200  Biso   1.000  H
  H139     1.0000 0.90620  0.58700  0.32200  Biso   1.000  H
  H140     1.0000 0.41300  0.90620  0.32200  Biso   1.000  H
  H141     1.0000 0.09380  0.58700  0.67800  Biso   1.000  H
  H142     1.0000 0.41300  0.09380  0.67800  Biso   1.000  H
  H143     1.0000 0.90620  0.41300  0.67800  Biso   1.000  H
  H144     1.0000 0.58700  0.90620  0.67800  Biso   1.000  H
  C337     1.0000 0.41482  0.08518  0.25000  Biso   1.000  C
  C338     1.0000 0.91482  0.41482  0.25000  Biso   1.000  C
  C339     1.0000 0.58518  0.91482  0.25000  Biso   1.000  C
  C340     1.0000 0.08518  0.58518  0.25000  Biso   1.000  C
  C341     1.0000 0.41482  0.91482  0.75000  Biso   1.000  C
  C342     1.0000 0.08518  0.41482  0.75000  Biso   1.000  C
  C343     1.0000 0.58518  0.08518  0.75000  Biso   1.000  C
  C344     1.0000 0.91482  0.58518  0.75000  Biso   1.000  C
  C345     1.0000 0.58518  0.91482  0.75000  Biso   1.000  C
  C346     1.0000 0.08518  0.58518  0.75000  Biso   1.000  C
  C347     1.0000 0.41482  0.08518  0.75000  Biso   1.000  C
  C348     1.0000 0.91482  0.41482  0.75000  Biso   1.000  C
  C349     1.0000 0.58518  0.08518  0.25000  Biso   1.000  C
  C350     1.0000 0.91482  0.58518  0.25000  Biso   1.000  C
  C351     1.0000 0.41482  0.91482  0.25000  Biso   1.000  C
  C352     1.0000 0.08518  0.41482  0.25000  Biso   1.000  C
  C353     1.0000 0.44683  0.05317  0.25000  Biso   1.000  C
  C354     1.0000 0.94683  0.44683  0.25000  Biso   1.000  C
  C355     1.0000 0.55317  0.94683  0.25000  Biso   1.000  C
  C356     1.0000 0.05317  0.55317  0.25000  Biso   1.000  C
  C357     1.0000 0.44683  0.94683  0.75000  Biso   1.000  C
  C358     1.0000 0.05317  0.44683  0.75000  Biso   1.000  C
  C359     1.0000 0.55317  0.05317  0.75000  Biso   1.000  C
  C360     1.0000 0.94683  0.55317  0.75000  Biso   1.000  C
  C361     1.0000 0.55317  0.94683  0.75000  Biso   1.000  C
  C362     1.0000 0.05317  0.55317  0.75000  Biso   1.000  C
  C363     1.0000 0.44683  0.05317  0.75000  Biso   1.000  C
  C364     1.0000 0.94683  0.44683  0.75000  Biso   1.000  C
  C365     1.0000 0.55317  0.05317  0.25000  Biso   1.000  C
  C366     1.0000 0.94683  0.55317  0.25000  Biso   1.000  C
  C367     1.0000 0.44683  0.94683  0.25000  Biso   1.000  C
  C368     1.0000 0.05317  0.44683  0.25000  Biso   1.000  C
  C369     1.0000 0.13898  0.08749  0.30556  Biso   1.000  C
  C370     1.0000 0.91251  0.13898  0.30556  Biso   1.000  C
  C371     1.0000 0.86102  0.91251  0.30556  Biso   1.000  C
  C372     1.0000 0.08749  0.86102  0.30556  Biso   1.000  C
  C373     1.0000 0.13898  0.91251  0.69444  Biso   1.000  C
  C374     1.0000 0.08749  0.13898  0.69444  Biso   1.000  C
  C375     1.0000 0.86102  0.08749  0.69444  Biso   1.000  C
  C376     1.0000 0.91251  0.86102  0.69444  Biso   1.000  C
  C377     1.0000 0.63898  0.58749  0.80556  Biso   1.000  C
  C378     1.0000 0.41251  0.63898  0.80556  Biso   1.000  C
  C379     1.0000 0.36102  0.41251  0.80556  Biso   1.000  C
  C380     1.0000 0.58749  0.36102  0.80556  Biso   1.000  C
  C381     1.0000 0.63898  0.41251  0.19444  Biso   1.000  C
  C382     1.0000 0.58749  0.63898  0.19444  Biso   1.000  C
  C383     1.0000 0.36102  0.58749  0.19444  Biso   1.000  C
  C384     1.0000 0.41251  0.36102  0.19444  Biso   1.000  C
  C385     1.0000 0.86102  0.91251  0.69444  Biso   1.000  C
  C386     1.0000 0.08749  0.86102  0.69444  Biso   1.000  C
  C387     1.0000 0.13898  0.08749  0.69444  Biso   1.000  C
  C388     1.0000 0.91251  0.13898  0.69444  Biso   1.000  C
  C389     1.0000 0.86102  0.08749  0.30556  Biso   1.000  C
  C390     1.0000 0.91251  0.86102  0.30556  Biso   1.000  C
  C391     1.0000 0.13898  0.91251  0.30556  Biso   1.000  C
  C392     1.0000 0.08749  0.13898  0.30556  Biso   1.000  C
  C393     1.0000 0.36102  0.41251  0.19444  Biso   1.000  C
  C394     1.0000 0.58749  0.36102  0.19444  Biso   1.000  C
  C395     1.0000 0.63898  0.58749  0.19444  Biso   1.000  C
  C396     1.0000 0.41251  0.63898  0.19444  Biso   1.000  C
  C397     1.0000 0.36102  0.58749  0.80556  Biso   1.000  C
  C398     1.0000 0.41251  0.36102  0.80556  Biso   1.000  C
  C399     1.0000 0.63898  0.41251  0.80556  Biso   1.000  C
  C400     1.0000 0.58749  0.63898  0.80556  Biso   1.000  C
  C401     1.0000 0.10652  0.10652  0.28300  Biso   1.000  C
  C402     1.0000 0.89348  0.10652  0.28300  Biso   1.000  C
  C403     1.0000 0.89348  0.89348  0.28300  Biso   1.000  C
  C404     1.0000 0.10652  0.89348  0.28300  Biso   1.000  C
  C405     1.0000 0.10652  0.89348  0.71700  Biso   1.000  C
  C406     1.0000 0.10652  0.10652  0.71700  Biso   1.000  C
  C407     1.0000 0.89348  0.10652  0.71700  Biso   1.000  C
  C408     1.0000 0.89348  0.89348  0.71700  Biso   1.000  C
  C409     1.0000 0.60652  0.60652  0.78300  Biso   1.000  C
  C410     1.0000 0.39348  0.60652  0.78300  Biso   1.000  C
  C411     1.0000 0.39348  0.39348  0.78300  Biso   1.000  C
  C412     1.0000 0.60652  0.39348  0.78300  Biso   1.000  C
  C413     1.0000 0.60652  0.39348  0.21700  Biso   1.000  C
  C414     1.0000 0.60652  0.60652  0.21700  Biso   1.000  C
  C415     1.0000 0.39348  0.60652  0.21700  Biso   1.000  C
  C416     1.0000 0.39348  0.39348  0.21700  Biso   1.000  C
  H145     1.0000 0.09760  0.09760  0.25310  Biso   1.000  H
  H146     1.0000 0.90240  0.09760  0.25310  Biso   1.000  H
  H147     1.0000 0.90240  0.90240  0.25310  Biso   1.000  H
  H148     1.0000 0.09760  0.90240  0.25310  Biso   1.000  H
  H149     1.0000 0.09760  0.90240  0.74690  Biso   1.000  H
  H150     1.0000 0.09760  0.09760  0.74690  Biso   1.000  H
  H151     1.0000 0.90240  0.09760  0.74690  Biso   1.000  H
  H152     1.0000 0.90240  0.90240  0.74690  Biso   1.000  H
  H153     1.0000 0.59760  0.59760  0.75310  Biso   1.000  H
  H154     1.0000 0.40240  0.59760  0.75310  Biso   1.000  H
  H155     1.0000 0.40240  0.40240  0.75310  Biso   1.000  H
  H156     1.0000 0.59760  0.40240  0.75310  Biso   1.000  H
  H157     1.0000 0.59760  0.40240  0.24690  Biso   1.000  H
  H158     1.0000 0.59760  0.59760  0.24690  Biso   1.000  H
  H159     1.0000 0.40240  0.59760  0.24690  Biso   1.000  H
  H160     1.0000 0.40240  0.40240  0.24690  Biso   1.000  H
  C417     1.0000 0.15105  0.10031  0.35017  Biso   1.000  C
  C418     1.0000 0.89969  0.15105  0.35017  Biso   1.000  C
  C419     1.0000 0.84895  0.89969  0.35017  Biso   1.000  C
  C420     1.0000 0.10031  0.84895  0.35017  Biso   1.000  C
  C421     1.0000 0.15105  0.89969  0.64983  Biso   1.000  C
  C422     1.0000 0.10031  0.15105  0.64983  Biso   1.000  C
  C423     1.0000 0.84895  0.10031  0.64983  Biso   1.000  C
  C424     1.0000 0.89969  0.84895  0.64983  Biso   1.000  C
  C425     1.0000 0.65105  0.60031  0.85017  Biso   1.000  C
  C426     1.0000 0.39969  0.65105  0.85017  Biso   1.000  C
  C427     1.0000 0.34895  0.39969  0.85017  Biso   1.000  C
  C428     1.0000 0.60031  0.34895  0.85017  Biso   1.000  C
  C429     1.0000 0.65105  0.39969  0.14983  Biso   1.000  C
  C430     1.0000 0.60031  0.65105  0.14983  Biso   1.000  C
  C431     1.0000 0.34895  0.60031  0.14983  Biso   1.000  C
  C432     1.0000 0.39969  0.34895  0.14983  Biso   1.000  C
  C433     1.0000 0.84895  0.89969  0.64983  Biso   1.000  C
  C434     1.0000 0.10031  0.84895  0.64983  Biso   1.000  C
  C435     1.0000 0.15105  0.10031  0.64983  Biso   1.000  C
  C436     1.0000 0.89969  0.15105  0.64983  Biso   1.000  C
  C437     1.0000 0.84895  0.10031  0.35017  Biso   1.000  C
  C438     1.0000 0.89969  0.84895  0.35017  Biso   1.000  C
  C439     1.0000 0.15105  0.89969  0.35017  Biso   1.000  C
  C440     1.0000 0.10031  0.15105  0.35017  Biso   1.000  C
  C441     1.0000 0.34895  0.39969  0.14983  Biso   1.000  C
  C442     1.0000 0.60031  0.34895  0.14983  Biso   1.000  C
  C443     1.0000 0.65105  0.60031  0.14983  Biso   1.000  C
  C444     1.0000 0.39969  0.65105  0.14983  Biso   1.000  C
  C445     1.0000 0.34895  0.60031  0.85017  Biso   1.000  C
  C446     1.0000 0.39969  0.34895  0.85017  Biso   1.000  C
  C447     1.0000 0.65105  0.39969  0.85017  Biso   1.000  C
  C448     1.0000 0.60031  0.65105  0.85017  Biso   1.000  C
  H161     1.0000 0.17240  0.08780  0.36560  Biso   1.000  H
  H162     1.0000 0.91220  0.17240  0.36560  Biso   1.000  H
  H163     1.0000 0.82760  0.91220  0.36560  Biso   1.000  H
  H164     1.0000 0.08780  0.82760  0.36560  Biso   1.000  H
  H165     1.0000 0.17240  0.91220  0.63440  Biso   1.000  H
  H166     1.0000 0.08780  0.17240  0.63440  Biso   1.000  H
  H167     1.0000 0.82760  0.08780  0.63440  Biso   1.000  H
  H168     1.0000 0.91220  0.82760  0.63440  Biso   1.000  H
  H169     1.0000 0.67240  0.58780  0.86560  Biso   1.000  H
  H170     1.0000 0.41220  0.67240  0.86560  Biso   1.000  H
  H171     1.0000 0.32760  0.41220  0.86560  Biso   1.000  H
  H172     1.0000 0.58780  0.32760  0.86560  Biso   1.000  H
  H173     1.0000 0.67240  0.41220  0.13440  Biso   1.000  H
  H174     1.0000 0.58780  0.67240  0.13440  Biso   1.000  H
  H175     1.0000 0.32760  0.58780  0.13440  Biso   1.000  H
  H176     1.0000 0.41220  0.32760  0.13440  Biso   1.000  H
  H177     1.0000 0.82760  0.91220  0.63440  Biso   1.000  H
  H178     1.0000 0.08780  0.82760  0.63440  Biso   1.000  H
  H179     1.0000 0.17240  0.08780  0.63440  Biso   1.000  H
  H180     1.0000 0.91220  0.17240  0.63440  Biso   1.000  H
  H181     1.0000 0.82760  0.08780  0.36560  Biso   1.000  H
  H182     1.0000 0.91220  0.82760  0.36560  Biso   1.000  H
  H183     1.0000 0.17240  0.91220  0.36560  Biso   1.000  H
  H184     1.0000 0.08780  0.17240  0.36560  Biso   1.000  H
  H185     1.0000 0.32760  0.41220  0.13440  Biso   1.000  H
  H186     1.0000 0.58780  0.32760  0.13440  Biso   1.000  H
  H187     1.0000 0.67240  0.58780  0.13440  Biso   1.000  H
  H188     1.0000 0.41220  0.67240  0.13440  Biso   1.000  H
  H189     1.0000 0.32760  0.58780  0.86560  Biso   1.000  H
  H190     1.0000 0.41220  0.32760  0.86560  Biso   1.000  H
  H191     1.0000 0.67240  0.41220  0.86560  Biso   1.000  H
  H192     1.0000 0.58780  0.67240  0.86560  Biso   1.000  H
  C449     1.0000 0.13167  0.13167  0.37210  Biso   1.000  C
  C450     1.0000 0.86833  0.13167  0.37210  Biso   1.000  C
  C451     1.0000 0.86833  0.86833  0.37210  Biso   1.000  C
  C452     1.0000 0.13167  0.86833  0.37210  Biso   1.000  C
  C453     1.0000 0.13167  0.86833  0.62790  Biso   1.000  C
  C454     1.0000 0.13167  0.13167  0.62790  Biso   1.000  C
  C455     1.0000 0.86833  0.13167  0.62790  Biso   1.000  C
  C456     1.0000 0.86833  0.86833  0.62790  Biso   1.000  C
  C457     1.0000 0.63167  0.63167  0.87210  Biso   1.000  C
  C458     1.0000 0.36833  0.63167  0.87210  Biso   1.000  C
  C459     1.0000 0.36833  0.36833  0.87210  Biso   1.000  C
  C460     1.0000 0.63167  0.36833  0.87210  Biso   1.000  C
  C461     1.0000 0.63167  0.36833  0.12790  Biso   1.000  C
  C462     1.0000 0.63167  0.63167  0.12790  Biso   1.000  C
  C463     1.0000 0.36833  0.63167  0.12790  Biso   1.000  C
  C464     1.0000 0.36833  0.36833  0.12790  Biso   1.000  C
  C465     1.0000 0.15912  0.05380  0.28000  Biso   1.000  C
  C466     1.0000 0.94620  0.15912  0.28000  Biso   1.000  C
  C467     1.0000 0.84088  0.94620  0.28000  Biso   1.000  C
  C468     1.0000 0.05380  0.84088  0.28000  Biso   1.000  C
  C469     1.0000 0.15912  0.94620  0.72000  Biso   1.000  C
  C470     1.0000 0.05380  0.15912  0.72000  Biso   1.000  C
  C471     1.0000 0.84088  0.05380  0.72000  Biso   1.000  C
  C472     1.0000 0.94620  0.84088  0.72000  Biso   1.000  C
  C473     1.0000 0.65912  0.55380  0.78000  Biso   1.000  C
  C474     1.0000 0.44620  0.65912  0.78000  Biso   1.000  C
  C475     1.0000 0.34088  0.44620  0.78000  Biso   1.000  C
  C476     1.0000 0.55380  0.34088  0.78000  Biso   1.000  C
  C477     1.0000 0.65912  0.44620  0.22000  Biso   1.000  C
  C478     1.0000 0.55380  0.65912  0.22000  Biso   1.000  C
  C479     1.0000 0.34088  0.55380  0.22000  Biso   1.000  C
  C480     1.0000 0.44620  0.34088  0.22000  Biso   1.000  C
  C481     1.0000 0.84088  0.94620  0.72000  Biso   1.000  C
  C482     1.0000 0.05380  0.84088  0.72000  Biso   1.000  C
  C483     1.0000 0.15912  0.05380  0.72000  Biso   1.000  C
  C484     1.0000 0.94620  0.15912  0.72000  Biso   1.000  C
  C485     1.0000 0.84088  0.05380  0.28000  Biso   1.000  C
  C486     1.0000 0.94620  0.84088  0.28000  Biso   1.000  C
  C487     1.0000 0.15912  0.94620  0.28000  Biso   1.000  C
  C488     1.0000 0.05380  0.15912  0.28000  Biso   1.000  C
  C489     1.0000 0.34088  0.44620  0.22000  Biso   1.000  C
  C490     1.0000 0.55380  0.34088  0.22000  Biso   1.000  C
  C491     1.0000 0.65912  0.55380  0.22000  Biso   1.000  C
  C492     1.0000 0.44620  0.65912  0.22000  Biso   1.000  C
  C493     1.0000 0.34088  0.55380  0.78000  Biso   1.000  C
  C494     1.0000 0.44620  0.34088  0.78000  Biso   1.000  C
  C495     1.0000 0.65912  0.44620  0.78000  Biso   1.000  C
  C496     1.0000 0.55380  0.65912  0.78000  Biso   1.000  C
  C497     1.0000 0.12878  0.12878  0.45710  Biso   1.000  C
  C498     1.0000 0.87122  0.12878  0.45710  Biso   1.000  C
  C499     1.0000 0.87122  0.87122  0.45710  Biso   1.000  C
  C500     1.0000 0.12878  0.87122  0.45710  Biso   1.000  C
  C501     1.0000 0.12878  0.87122  0.54290  Biso   1.000  C
  C502     1.0000 0.12878  0.12878  0.54290  Biso   1.000  C
  C503     1.0000 0.87122  0.12878  0.54290  Biso   1.000  C
  C504     1.0000 0.87122  0.87122  0.54290  Biso   1.000  C
  C505     1.0000 0.62878  0.62878  0.95710  Biso   1.000  C
  C506     1.0000 0.37122  0.62878  0.95710  Biso   1.000  C
  C507     1.0000 0.37122  0.37122  0.95710  Biso   1.000  C
  C508     1.0000 0.62878  0.37122  0.95710  Biso   1.000  C
  C509     1.0000 0.62878  0.37122  0.04290  Biso   1.000  C
  C510     1.0000 0.62878  0.62878  0.04290  Biso   1.000  C
  C511     1.0000 0.37122  0.62878  0.04290  Biso   1.000  C
  C512     1.0000 0.37122  0.37122  0.04290  Biso   1.000  C
  C513     1.0000 0.09952  0.09952  0.45590  Biso   1.000  C
  C514     1.0000 0.90048  0.09952  0.45590  Biso   1.000  C
  C515     1.0000 0.90048  0.90048  0.45590  Biso   1.000  C
  C516     1.0000 0.09952  0.90048  0.45590  Biso   1.000  C
  C517     1.0000 0.09952  0.90048  0.54410  Biso   1.000  C
  C518     1.0000 0.09952  0.09952  0.54410  Biso   1.000  C
  C519     1.0000 0.90048  0.09952  0.54410  Biso   1.000  C
  C520     1.0000 0.90048  0.90048  0.54410  Biso   1.000  C
  C521     1.0000 0.59952  0.59952  0.95590  Biso   1.000  C
  C522     1.0000 0.40048  0.59952  0.95590  Biso   1.000  C
  C523     1.0000 0.40048  0.40048  0.95590  Biso   1.000  C
  C524     1.0000 0.59952  0.40048  0.95590  Biso   1.000  C
  C525     1.0000 0.59952  0.40048  0.04410  Biso   1.000  C
  C526     1.0000 0.59952  0.59952  0.04410  Biso   1.000  C
  C527     1.0000 0.40048  0.59952  0.04410  Biso   1.000  C
  C528     1.0000 0.40048  0.40048  0.04410  Biso   1.000  C
  H193     1.0000 0.08970  0.08970  0.42690  Biso   1.000  H
  H194     1.0000 0.91030  0.08970  0.42690  Biso   1.000  H
  H195     1.0000 0.91030  0.91030  0.42690  Biso   1.000  H
  H196     1.0000 0.08970  0.91030  0.42690  Biso   1.000  H
  H197     1.0000 0.08970  0.91030  0.57310  Biso   1.000  H
  H198     1.0000 0.08970  0.08970  0.57310  Biso   1.000  H
  H199     1.0000 0.91030  0.08970  0.57310  Biso   1.000  H
  H200     1.0000 0.91030  0.91030  0.57310  Biso   1.000  H
  H201     1.0000 0.58970  0.58970  0.92690  Biso   1.000  H
  H202     1.0000 0.41030  0.58970  0.92690  Biso   1.000  H
  H203     1.0000 0.41030  0.41030  0.92690  Biso   1.000  H
  H204     1.0000 0.58970  0.41030  0.92690  Biso   1.000  H
  H205     1.0000 0.58970  0.41030  0.07310  Biso   1.000  H
  H206     1.0000 0.58970  0.58970  0.07310  Biso   1.000  H
  H207     1.0000 0.41030  0.58970  0.07310  Biso   1.000  H
  H208     1.0000 0.41030  0.41030  0.07310  Biso   1.000  H
  C529     1.0000 0.08528  0.08528  0.50000  Biso   1.000  C
  C530     1.0000 0.91472  0.08528  0.50000  Biso   1.000  C
  C531     1.0000 0.91472  0.91472  0.50000  Biso   1.000  C
  C532     1.0000 0.08528  0.91472  0.50000  Biso   1.000  C
  C533     1.0000 0.58528  0.58528  0.00000  Biso   1.000  C
  C534     1.0000 0.41472  0.58528  0.00000  Biso   1.000  C
  C535     1.0000 0.41472  0.41472  0.00000  Biso   1.000  C
  C536     1.0000 0.58528  0.41472  0.00000  Biso   1.000  C
  C537     1.0000 0.05380  0.05380  0.50000  Biso   1.000  C
  C538     1.0000 0.94620  0.05380  0.50000  Biso   1.000  C
  C539     1.0000 0.94620  0.94620  0.50000  Biso   1.000  C
  C540     1.0000 0.05380  0.94620  0.50000  Biso   1.000  C
  C541     1.0000 0.55380  0.55380  0.00000  Biso   1.000  C
  C542     1.0000 0.44620  0.55380  0.00000  Biso   1.000  C
  C543     1.0000 0.44620  0.44620  0.00000  Biso   1.000  C
  C544     1.0000 0.55380  0.44620  0.00000  Biso   1.000  C
  C545     1.0000 0.14440  0.14440  0.50000  Biso   1.000  C
  C546     1.0000 0.85560  0.14440  0.50000  Biso   1.000  C
  C547     1.0000 0.85560  0.85560  0.50000  Biso   1.000  C
  C548     1.0000 0.14440  0.85560  0.50000  Biso   1.000  C
  C549     1.0000 0.64440  0.64440  0.00000  Biso   1.000  C
  C550     1.0000 0.35560  0.64440  0.00000  Biso   1.000  C
  C551     1.0000 0.35560  0.35560  0.00000  Biso   1.000  C
  C552     1.0000 0.64440  0.35560  0.00000  Biso   1.000  C
  H209     1.0000 0.16410  0.16410  0.50000  Biso   1.000  H
  H210     1.0000 0.83590  0.16410  0.50000  Biso   1.000  H
  H211     1.0000 0.83590  0.83590  0.50000  Biso   1.000  H
  H212     1.0000 0.16410  0.83590  0.50000  Biso   1.000  H
  H213     1.0000 0.66410  0.66410  0.00000  Biso   1.000  H
  H214     1.0000 0.33590  0.66410  0.00000  Biso   1.000  H
  H215     1.0000 0.33590  0.33590  0.00000  Biso   1.000  H
  H216     1.0000 0.66410  0.33590  0.00000  Biso   1.000  H
