data_image0
_cell_length_a       33.048
_cell_length_b       9.4327
_cell_length_c       24.01
_cell_angle_alpha    90
_cell_angle_beta     112.513
_cell_angle_gamma    90

_symmetry_space_group_name_H-M    "P 1"
_symmetry_int_tables_number       1

loop_
  _symmetry_equiv_pos_as_xyz
  'x, y, z'

loop_
  _atom_site_label
  _atom_site_occupancy
  _atom_site_fract_x
  _atom_site_fract_y
  _atom_site_fract_z
  _atom_site_thermal_displace_type
  _atom_site_B_iso_or_equiv
  _atom_site_type_symbol
  Cu1      1.0000 0.09092  0.22296  0.51760  Biso   1.000  Cu
  Cu2      1.0000 0.59092  0.72296  0.51760  Biso   1.000  Cu
  Cu3      1.0000 0.90908  0.22296  0.98240  Biso   1.000  Cu
  Cu4      1.0000 0.40908  0.72296  0.98240  Biso   1.000  Cu
  Cu5      1.0000 0.90908  0.77704  0.48240  Biso   1.000  Cu
  Cu6      1.0000 0.40908  0.27704  0.48240  Biso   1.000  Cu
  Cu7      1.0000 0.09092  0.77704  0.01760  Biso   1.000  Cu
  Cu8      1.0000 0.59092  0.27704  0.01760  Biso   1.000  Cu
  Cu9      1.0000 0.86163  0.25741  0.74898  Biso   1.000  Cu
  Cu10     1.0000 0.36163  0.75741  0.74898  Biso   1.000  Cu
  Cu11     1.0000 0.13837  0.25741  0.75102  Biso   1.000  Cu
  Cu12     1.0000 0.63837  0.75741  0.75102  Biso   1.000  Cu
  Cu13     1.0000 0.13837  0.74259  0.25102  Biso   1.000  Cu
  Cu14     1.0000 0.63837  0.24259  0.25102  Biso   1.000  Cu
  Cu15     1.0000 0.86163  0.74259  0.24898  Biso   1.000  Cu
  Cu16     1.0000 0.36163  0.24259  0.24898  Biso   1.000  Cu
  N1       1.0000 0.05519  0.22730  0.56741  Biso   1.000  N
  N2       1.0000 0.55519  0.72730  0.56741  Biso   1.000  N
  N3       1.0000 0.94481  0.22730  0.93259  Biso   1.000  N
  N4       1.0000 0.44481  0.72730  0.93259  Biso   1.000  N
  N5       1.0000 0.94481  0.77270  0.43259  Biso   1.000  N
  N6       1.0000 0.44481  0.27270  0.43259  Biso   1.000  N
  N7       1.0000 0.05519  0.77270  0.06741  Biso   1.000  N
  N8       1.0000 0.55519  0.27270  0.06741  Biso   1.000  N
  N9       1.0000 0.90913  0.24600  0.71875  Biso   1.000  N
  N10      1.0000 0.40913  0.74600  0.71875  Biso   1.000  N
  N11      1.0000 0.09087  0.24600  0.78125  Biso   1.000  N
  N12      1.0000 0.59087  0.74600  0.78125  Biso   1.000  N
  N13      1.0000 0.09087  0.75400  0.28125  Biso   1.000  N
  N14      1.0000 0.59087  0.25400  0.28125  Biso   1.000  N
  N15      1.0000 0.90913  0.75400  0.21875  Biso   1.000  N
  N16      1.0000 0.40913  0.25400  0.21875  Biso   1.000  N
  N17      1.0000 0.12931  0.22200  0.46920  Biso   1.000  N
  N18      1.0000 0.62931  0.72200  0.46920  Biso   1.000  N
  N19      1.0000 0.87069  0.22200  0.03080  Biso   1.000  N
  N20      1.0000 0.37069  0.72200  0.03080  Biso   1.000  N
  N21      1.0000 0.87069  0.77800  0.53080  Biso   1.000  N
  N22      1.0000 0.37069  0.27800  0.53080  Biso   1.000  N
  N23      1.0000 0.12931  0.77800  0.96920  Biso   1.000  N
  N24      1.0000 0.62931  0.27800  0.96920  Biso   1.000  N
  N25      1.0000 0.80999  0.26810  0.77293  Biso   1.000  N
  N26      1.0000 0.30999  0.76810  0.77293  Biso   1.000  N
  N27      1.0000 0.19001  0.26810  0.72707  Biso   1.000  N
  N28      1.0000 0.69001  0.76810  0.72707  Biso   1.000  N
  N29      1.0000 0.19001  0.73190  0.22707  Biso   1.000  N
  N30      1.0000 0.69001  0.23190  0.22707  Biso   1.000  N
  N31      1.0000 0.80999  0.73190  0.27293  Biso   1.000  N
  N32      1.0000 0.30999  0.23190  0.27293  Biso   1.000  N
  O1       1.0000 0.04060  0.24080  0.43004  Biso   1.000  O
  O2       1.0000 0.54060  0.74080  0.43004  Biso   1.000  O
  O3       1.0000 0.95940  0.24080  0.06996  Biso   1.000  O
  O4       1.0000 0.45940  0.74080  0.06996  Biso   1.000  O
  O5       1.0000 0.95940  0.75920  0.56996  Biso   1.000  O
  O6       1.0000 0.45940  0.25920  0.56996  Biso   1.000  O
  O7       1.0000 0.04060  0.75920  0.93004  Biso   1.000  O
  O8       1.0000 0.54060  0.25920  0.93004  Biso   1.000  O
  O9       1.0000 0.09982  0.01630  0.52164  Biso   1.000  O
  O10      1.0000 0.59982  0.51630  0.52164  Biso   1.000  O
  O11      1.0000 0.90018  0.01630  0.97836  Biso   1.000  O
  O12      1.0000 0.40018  0.51630  0.97836  Biso   1.000  O
  O13      1.0000 0.90018  0.98370  0.47836  Biso   1.000  O
  O14      1.0000 0.40018  0.48370  0.47836  Biso   1.000  O
  O15      1.0000 0.09982  0.98370  0.02164  Biso   1.000  O
  O16      1.0000 0.59982  0.48370  0.02164  Biso   1.000  O
  O17      1.0000 0.12055  0.40660  0.54681  Biso   1.000  O
  O18      1.0000 0.62055  0.90660  0.54681  Biso   1.000  O
  O19      1.0000 0.87945  0.40660  0.95319  Biso   1.000  O
  O20      1.0000 0.37945  0.90660  0.95319  Biso   1.000  O
  O21      1.0000 0.87945  0.59340  0.45319  Biso   1.000  O
  O22      1.0000 0.37945  0.09340  0.45319  Biso   1.000  O
  O23      1.0000 0.12055  0.59340  0.04681  Biso   1.000  O
  O24      1.0000 0.62055  0.09340  0.04681  Biso   1.000  O
  O25      1.0000 0.81140  0.30030  0.66243  Biso   1.000  O
  O26      1.0000 0.31140  0.80030  0.66243  Biso   1.000  O
  O27      1.0000 0.18860  0.30030  0.83757  Biso   1.000  O
  O28      1.0000 0.68860  0.80030  0.83757  Biso   1.000  O
  O29      1.0000 0.18860  0.69970  0.33757  Biso   1.000  O
  O30      1.0000 0.68860  0.19970  0.33757  Biso   1.000  O
  O31      1.0000 0.81140  0.69970  0.16243  Biso   1.000  O
  O32      1.0000 0.31140  0.19970  0.16243  Biso   1.000  O
  O33      1.0000 0.87516  0.45320  0.78334  Biso   1.000  O
  O34      1.0000 0.37516  0.95320  0.78334  Biso   1.000  O
  O35      1.0000 0.12484  0.45320  0.71666  Biso   1.000  O
  O36      1.0000 0.62484  0.95320  0.71666  Biso   1.000  O
  O37      1.0000 0.12484  0.54680  0.21666  Biso   1.000  O
  O38      1.0000 0.62484  0.04680  0.21666  Biso   1.000  O
  O39      1.0000 0.87516  0.54680  0.28334  Biso   1.000  O
  O40      1.0000 0.37516  0.04680  0.28334  Biso   1.000  O
  O41      1.0000 0.86955  0.06600  0.78604  Biso   1.000  O
  O42      1.0000 0.36955  0.56600  0.78604  Biso   1.000  O
  O43      1.0000 0.13045  0.06600  0.71396  Biso   1.000  O
  O44      1.0000 0.63045  0.56600  0.71396  Biso   1.000  O
  O45      1.0000 0.13045  0.93400  0.21396  Biso   1.000  O
  O46      1.0000 0.63045  0.43400  0.21396  Biso   1.000  O
  O47      1.0000 0.86955  0.93400  0.28604  Biso   1.000  O
  O48      1.0000 0.36955  0.43400  0.28604  Biso   1.000  O
  O49      1.0000 0.03403  0.28530  0.33614  Biso   1.000  O
  O50      1.0000 0.53403  0.78530  0.33614  Biso   1.000  O
  O51      1.0000 0.96597  0.28530  0.16386  Biso   1.000  O
  O52      1.0000 0.46597  0.78530  0.16386  Biso   1.000  O
  O53      1.0000 0.96597  0.71470  0.66386  Biso   1.000  O
  O54      1.0000 0.46597  0.21470  0.66386  Biso   1.000  O
  O55      1.0000 0.03403  0.71470  0.83614  Biso   1.000  O
  O56      1.0000 0.53403  0.21470  0.83614  Biso   1.000  O
  O57      1.0000 0.13355  0.84410  0.49549  Biso   1.000  O
  O58      1.0000 0.63355  0.34410  0.49549  Biso   1.000  O
  O59      1.0000 0.86645  0.84410  0.00451  Biso   1.000  O
  O60      1.0000 0.36645  0.34410  0.00451  Biso   1.000  O
  O61      1.0000 0.86645  0.15590  0.50451  Biso   1.000  O
  O62      1.0000 0.36645  0.65590  0.50451  Biso   1.000  O
  O63      1.0000 0.13355  0.15590  0.99549  Biso   1.000  O
  O64      1.0000 0.63355  0.65590  0.99549  Biso   1.000  O
  O65      1.0000 0.17973  0.52830  0.55393  Biso   1.000  O
  O66      1.0000 0.67973  0.02830  0.55393  Biso   1.000  O
  O67      1.0000 0.82027  0.52830  0.94607  Biso   1.000  O
  O68      1.0000 0.32027  0.02830  0.94607  Biso   1.000  O
  O69      1.0000 0.82027  0.47170  0.44607  Biso   1.000  O
  O70      1.0000 0.32027  0.97170  0.44607  Biso   1.000  O
  O71      1.0000 0.17973  0.47170  0.05393  Biso   1.000  O
  O72      1.0000 0.67973  0.97170  0.05393  Biso   1.000  O
  O73      1.0000 0.73933  0.27670  0.61600  Biso   1.000  O
  O74      1.0000 0.23933  0.77670  0.61600  Biso   1.000  O
  O75      1.0000 0.26067  0.27670  0.88400  Biso   1.000  O
  O76      1.0000 0.76067  0.77670  0.88400  Biso   1.000  O
  O77      1.0000 0.26067  0.72330  0.38400  Biso   1.000  O
  O78      1.0000 0.76067  0.22330  0.38400  Biso   1.000  O
  O79      1.0000 0.73933  0.72330  0.11600  Biso   1.000  O
  O80      1.0000 0.23933  0.22330  0.11600  Biso   1.000  O
  O81      1.0000 0.84833  0.62210  0.82357  Biso   1.000  O
  O82      1.0000 0.34833  0.12210  0.82357  Biso   1.000  O
  O83      1.0000 0.15167  0.62210  0.67643  Biso   1.000  O
  O84      1.0000 0.65167  0.12210  0.67643  Biso   1.000  O
  O85      1.0000 0.15167  0.37790  0.17643  Biso   1.000  O
  O86      1.0000 0.65167  0.87790  0.17643  Biso   1.000  O
  O87      1.0000 0.84833  0.37790  0.32357  Biso   1.000  O
  O88      1.0000 0.34833  0.87790  0.32357  Biso   1.000  O
  O89      1.0000 0.84498  0.93200  0.84163  Biso   1.000  O
  O90      1.0000 0.34498  0.43200  0.84163  Biso   1.000  O
  O91      1.0000 0.15502  0.93200  0.65837  Biso   1.000  O
  O92      1.0000 0.65502  0.43200  0.65837  Biso   1.000  O
  O93      1.0000 0.15502  0.06800  0.15837  Biso   1.000  O
  O94      1.0000 0.65502  0.56800  0.15837  Biso   1.000  O
  O95      1.0000 0.84498  0.06800  0.34163  Biso   1.000  O
  O96      1.0000 0.34498  0.56800  0.34163  Biso   1.000  O
  O97      1.0000 0.29210  0.47520  0.63260  Biso   1.000  O
  O98      1.0000 0.79210  0.97520  0.63260  Biso   1.000  O
  O99      1.0000 0.70790  0.47520  0.86740  Biso   1.000  O
  O100     1.0000 0.20790  0.97520  0.86740  Biso   1.000  O
  O101     1.0000 0.70790  0.52480  0.36740  Biso   1.000  O
  O102     1.0000 0.20790  0.02480  0.36740  Biso   1.000  O
  O103     1.0000 0.29210  0.52480  0.13260  Biso   1.000  O
  O104     1.0000 0.79210  0.02480  0.13260  Biso   1.000  O
  O105     1.0000 0.27770  0.30370  0.68440  Biso   1.000  O
  O106     1.0000 0.77770  0.80370  0.68440  Biso   1.000  O
  O107     1.0000 0.72230  0.30370  0.81560  Biso   1.000  O
  O108     1.0000 0.22230  0.80370  0.81560  Biso   1.000  O
  O109     1.0000 0.72230  0.69630  0.31560  Biso   1.000  O
  O110     1.0000 0.22230  0.19630  0.31560  Biso   1.000  O
  O111     1.0000 0.27770  0.69630  0.18440  Biso   1.000  O
  O112     1.0000 0.77770  0.19630  0.18440  Biso   1.000  O
  O113     1.0000 0.29030  0.26880  0.59490  Biso   1.000  O
  O114     1.0000 0.79030  0.76880  0.59490  Biso   1.000  O
  O115     1.0000 0.70970  0.26880  0.90510  Biso   1.000  O
  O116     1.0000 0.20970  0.76880  0.90510  Biso   1.000  O
  O117     1.0000 0.70970  0.73120  0.40510  Biso   1.000  O
  O118     1.0000 0.20970  0.23120  0.40510  Biso   1.000  O
  O119     1.0000 0.29030  0.73120  0.09490  Biso   1.000  O
  O120     1.0000 0.79030  0.23120  0.09490  Biso   1.000  O
  O121     1.0000 0.34517  0.31690  0.68409  Biso   1.000  O
  O122     1.0000 0.84517  0.81690  0.68409  Biso   1.000  O
  O123     1.0000 0.65483  0.31690  0.81591  Biso   1.000  O
  O124     1.0000 0.15483  0.81690  0.81591  Biso   1.000  O
  O125     1.0000 0.65483  0.68310  0.31591  Biso   1.000  O
  O126     1.0000 0.15483  0.18310  0.31591  Biso   1.000  O
  O127     1.0000 0.34517  0.68310  0.18409  Biso   1.000  O
  O128     1.0000 0.84517  0.18310  0.18409  Biso   1.000  O
  C1       1.0000 0.04875  0.34580  0.59284  Biso   1.000  C
  C2       1.0000 0.54875  0.84580  0.59284  Biso   1.000  C
  C3       1.0000 0.95125  0.34580  0.90716  Biso   1.000  C
  C4       1.0000 0.45125  0.84580  0.90716  Biso   1.000  C
  C5       1.0000 0.95125  0.65420  0.40716  Biso   1.000  C
  C6       1.0000 0.45125  0.15420  0.40716  Biso   1.000  C
  C7       1.0000 0.04875  0.65420  0.09284  Biso   1.000  C
  C8       1.0000 0.54875  0.15420  0.09284  Biso   1.000  C
  H1       1.0000 0.06300  0.42800  0.58900  Biso   1.000  H
  H2       1.0000 0.56300  0.92800  0.58900  Biso   1.000  H
  H3       1.0000 0.93700  0.42800  0.91100  Biso   1.000  H
  H4       1.0000 0.43700  0.92800  0.91100  Biso   1.000  H
  H5       1.0000 0.93700  0.57200  0.41100  Biso   1.000  H
  H6       1.0000 0.43700  0.07200  0.41100  Biso   1.000  H
  H7       1.0000 0.06300  0.57200  0.08900  Biso   1.000  H
  H8       1.0000 0.56300  0.07200  0.08900  Biso   1.000  H
  C9       1.0000 0.02189  0.35200  0.62462  Biso   1.000  C
  C10      1.0000 0.52189  0.85200  0.62462  Biso   1.000  C
  C11      1.0000 0.97811  0.35200  0.87538  Biso   1.000  C
  C12      1.0000 0.47811  0.85200  0.87538  Biso   1.000  C
  C13      1.0000 0.97811  0.64800  0.37538  Biso   1.000  C
  C14      1.0000 0.47811  0.14800  0.37538  Biso   1.000  C
  C15      1.0000 0.02189  0.64800  0.12462  Biso   1.000  C
  C16      1.0000 0.52189  0.14800  0.12462  Biso   1.000  C
  H9       1.0000 0.01850  0.43710  0.64190  Biso   1.000  H
  H10      1.0000 0.51850  0.93710  0.64190  Biso   1.000  H
  H11      1.0000 0.98150  0.43710  0.85810  Biso   1.000  H
  H12      1.0000 0.48150  0.93710  0.85810  Biso   1.000  H
  H13      1.0000 0.98150  0.56290  0.35810  Biso   1.000  H
  H14      1.0000 0.48150  0.06290  0.35810  Biso   1.000  H
  H15      1.0000 0.01850  0.56290  0.14190  Biso   1.000  H
  H16      1.0000 0.51850  0.06290  0.14190  Biso   1.000  H
  C17      1.0000 0.99995  0.23210  0.63099  Biso   1.000  C
  C18      1.0000 0.49995  0.73210  0.63099  Biso   1.000  C
  C19      1.0000 0.00005  0.23210  0.86901  Biso   1.000  C
  C20      1.0000 0.50005  0.73210  0.86901  Biso   1.000  C
  C21      1.0000 0.00005  0.76790  0.36901  Biso   1.000  C
  C22      1.0000 0.50005  0.26790  0.36901  Biso   1.000  C
  C23      1.0000 0.99995  0.76790  0.13099  Biso   1.000  C
  C24      1.0000 0.49995  0.26790  0.13099  Biso   1.000  C
  C25      1.0000 0.00823  0.10900  0.60629  Biso   1.000  C
  C26      1.0000 0.50823  0.60900  0.60629  Biso   1.000  C
  C27      1.0000 0.99177  0.10900  0.89371  Biso   1.000  C
  C28      1.0000 0.49177  0.60900  0.89371  Biso   1.000  C
  C29      1.0000 0.99177  0.89100  0.39371  Biso   1.000  C
  C30      1.0000 0.49177  0.39100  0.39371  Biso   1.000  C
  C31      1.0000 0.00823  0.89100  0.10629  Biso   1.000  C
  C32      1.0000 0.50823  0.39100  0.10629  Biso   1.000  C
  H17      1.0000 0.99500  0.02470  0.61030  Biso   1.000  H
  H18      1.0000 0.49500  0.52470  0.61030  Biso   1.000  H
  H19      1.0000 0.00500  0.02470  0.88970  Biso   1.000  H
  H20      1.0000 0.50500  0.52470  0.88970  Biso   1.000  H
  H21      1.0000 0.00500  0.97530  0.38970  Biso   1.000  H
  H22      1.0000 0.50500  0.47530  0.38970  Biso   1.000  H
  H23      1.0000 0.99500  0.97530  0.11030  Biso   1.000  H
  H24      1.0000 0.49500  0.47530  0.11030  Biso   1.000  H
  C33      1.0000 0.03601  0.11000  0.57557  Biso   1.000  C
  C34      1.0000 0.53601  0.61000  0.57557  Biso   1.000  C
  C35      1.0000 0.96399  0.11000  0.92443  Biso   1.000  C
  C36      1.0000 0.46399  0.61000  0.92443  Biso   1.000  C
  C37      1.0000 0.96399  0.89000  0.42443  Biso   1.000  C
  C38      1.0000 0.46399  0.39000  0.42443  Biso   1.000  C
  C39      1.0000 0.03601  0.89000  0.07557  Biso   1.000  C
  C40      1.0000 0.53601  0.39000  0.07557  Biso   1.000  C
  H25      1.0000 0.04150  0.02520  0.56000  Biso   1.000  H
  H26      1.0000 0.54150  0.52520  0.56000  Biso   1.000  H
  H27      1.0000 0.95850  0.02520  0.94000  Biso   1.000  H
  H28      1.0000 0.45850  0.52520  0.94000  Biso   1.000  H
  H29      1.0000 0.95850  0.97480  0.44000  Biso   1.000  H
  H30      1.0000 0.45850  0.47480  0.44000  Biso   1.000  H
  H31      1.0000 0.04150  0.97480  0.06000  Biso   1.000  H
  H32      1.0000 0.54150  0.47480  0.06000  Biso   1.000  H
  C41      1.0000 0.92419  0.36470  0.70312  Biso   1.000  C
  C42      1.0000 0.42419  0.86470  0.70312  Biso   1.000  C
  C43      1.0000 0.07581  0.36470  0.79688  Biso   1.000  C
  C44      1.0000 0.57581  0.86470  0.79688  Biso   1.000  C
  C45      1.0000 0.07581  0.63530  0.29688  Biso   1.000  C
  C46      1.0000 0.57581  0.13530  0.29688  Biso   1.000  C
  C47      1.0000 0.92419  0.63530  0.20312  Biso   1.000  C
  C48      1.0000 0.42419  0.13530  0.20312  Biso   1.000  C
  H33      1.0000 0.91400  0.45150  0.71080  Biso   1.000  H
  H34      1.0000 0.41400  0.95150  0.71080  Biso   1.000  H
  H35      1.0000 0.08600  0.45150  0.78920  Biso   1.000  H
  H36      1.0000 0.58600  0.95150  0.78920  Biso   1.000  H
  H37      1.0000 0.08600  0.54850  0.28920  Biso   1.000  H
  H38      1.0000 0.58600  0.04850  0.28920  Biso   1.000  H
  H39      1.0000 0.91400  0.54850  0.21080  Biso   1.000  H
  H40      1.0000 0.41400  0.04850  0.21080  Biso   1.000  H
  C49      1.0000 0.95418  0.36360  0.67610  Biso   1.000  C
  C50      1.0000 0.45418  0.86360  0.67610  Biso   1.000  C
  C51      1.0000 0.04582  0.36360  0.82390  Biso   1.000  C
  C52      1.0000 0.54582  0.86360  0.82390  Biso   1.000  C
  C53      1.0000 0.04582  0.63640  0.32390  Biso   1.000  C
  C54      1.0000 0.54582  0.13640  0.32390  Biso   1.000  C
  C55      1.0000 0.95418  0.63640  0.17610  Biso   1.000  C
  C56      1.0000 0.45418  0.13640  0.17610  Biso   1.000  C
  H41      1.0000 0.96430  0.44880  0.66670  Biso   1.000  H
  H42      1.0000 0.46430  0.94880  0.66670  Biso   1.000  H
  H43      1.0000 0.03570  0.44880  0.83330  Biso   1.000  H
  H44      1.0000 0.53570  0.94880  0.83330  Biso   1.000  H
  H45      1.0000 0.03570  0.55120  0.33330  Biso   1.000  H
  H46      1.0000 0.53570  0.05120  0.33330  Biso   1.000  H
  H47      1.0000 0.96430  0.55120  0.16670  Biso   1.000  H
  H48      1.0000 0.46430  0.05120  0.16670  Biso   1.000  H
  C57      1.0000 0.96952  0.23590  0.66273  Biso   1.000  C
  C58      1.0000 0.46952  0.73590  0.66273  Biso   1.000  C
  C59      1.0000 0.03048  0.23590  0.83727  Biso   1.000  C
  C60      1.0000 0.53048  0.73590  0.83727  Biso   1.000  C
  C61      1.0000 0.03048  0.76410  0.33727  Biso   1.000  C
  C62      1.0000 0.53048  0.26410  0.33727  Biso   1.000  C
  C63      1.0000 0.96952  0.76410  0.16273  Biso   1.000  C
  C64      1.0000 0.46952  0.26410  0.16273  Biso   1.000  C
  C65      1.0000 0.95482  0.11350  0.68146  Biso   1.000  C
  C66      1.0000 0.45482  0.61350  0.68146  Biso   1.000  C
  C67      1.0000 0.04518  0.11350  0.81854  Biso   1.000  C
  C68      1.0000 0.54518  0.61350  0.81854  Biso   1.000  C
  C69      1.0000 0.04518  0.88650  0.31854  Biso   1.000  C
  C70      1.0000 0.54518  0.38650  0.31854  Biso   1.000  C
  C71      1.0000 0.95482  0.88650  0.18146  Biso   1.000  C
  C72      1.0000 0.45482  0.38650  0.18146  Biso   1.000  C
  H49      1.0000 0.96520  0.02540  0.67560  Biso   1.000  H
  H50      1.0000 0.46520  0.52540  0.67560  Biso   1.000  H
  H51      1.0000 0.03480  0.02540  0.82440  Biso   1.000  H
  H52      1.0000 0.53480  0.52540  0.82440  Biso   1.000  H
  H53      1.0000 0.03480  0.97460  0.32440  Biso   1.000  H
  H54      1.0000 0.53480  0.47460  0.32440  Biso   1.000  H
  H55      1.0000 0.96520  0.97460  0.17560  Biso   1.000  H
  H56      1.0000 0.46520  0.47460  0.17560  Biso   1.000  H
  C73      1.0000 0.92497  0.12240  0.70876  Biso   1.000  C
  C74      1.0000 0.42497  0.62240  0.70876  Biso   1.000  C
  C75      1.0000 0.07503  0.12240  0.79124  Biso   1.000  C
  C76      1.0000 0.57503  0.62240  0.79124  Biso   1.000  C
  C77      1.0000 0.07503  0.87760  0.29124  Biso   1.000  C
  C78      1.0000 0.57503  0.37760  0.29124  Biso   1.000  C
  C79      1.0000 0.92497  0.87760  0.20876  Biso   1.000  C
  C80      1.0000 0.42497  0.37760  0.20876  Biso   1.000  C
  H57      1.0000 0.91550  0.03920  0.72070  Biso   1.000  H
  H58      1.0000 0.41550  0.53920  0.72070  Biso   1.000  H
  H59      1.0000 0.08450  0.03920  0.77930  Biso   1.000  H
  H60      1.0000 0.58450  0.53920  0.77930  Biso   1.000  H
  H61      1.0000 0.08450  0.96080  0.27930  Biso   1.000  H
  H62      1.0000 0.58450  0.46080  0.27930  Biso   1.000  H
  H63      1.0000 0.91550  0.96080  0.22070  Biso   1.000  H
  H64      1.0000 0.41550  0.46080  0.22070  Biso   1.000  H
  C81      1.0000 0.05571  0.27170  0.39059  Biso   1.000  C
  C82      1.0000 0.55571  0.77170  0.39059  Biso   1.000  C
  C83      1.0000 0.94429  0.27170  0.10941  Biso   1.000  C
  C84      1.0000 0.44429  0.77170  0.10941  Biso   1.000  C
  C85      1.0000 0.94429  0.72830  0.60941  Biso   1.000  C
  C86      1.0000 0.44429  0.22830  0.60941  Biso   1.000  C
  C87      1.0000 0.05571  0.72830  0.89059  Biso   1.000  C
  C88      1.0000 0.55571  0.22830  0.89059  Biso   1.000  C
  C89      1.0000 0.10485  0.29930  0.41271  Biso   1.000  C
  C90      1.0000 0.60485  0.79930  0.41271  Biso   1.000  C
  C91      1.0000 0.89515  0.29930  0.08729  Biso   1.000  C
  C92      1.0000 0.39515  0.79930  0.08729  Biso   1.000  C
  C93      1.0000 0.89515  0.70070  0.58729  Biso   1.000  C
  C94      1.0000 0.39515  0.20070  0.58729  Biso   1.000  C
  C95      1.0000 0.10485  0.70070  0.91271  Biso   1.000  C
  C96      1.0000 0.60485  0.20070  0.91271  Biso   1.000  C
  H65      1.0000 0.11540  0.27000  0.38190  Biso   1.000  H
  H66      1.0000 0.61540  0.77000  0.38190  Biso   1.000  H
  H67      1.0000 0.88460  0.27000  0.11810  Biso   1.000  H
  H68      1.0000 0.38460  0.77000  0.11810  Biso   1.000  H
  H69      1.0000 0.88460  0.73000  0.61810  Biso   1.000  H
  H70      1.0000 0.38460  0.23000  0.61810  Biso   1.000  H
  H71      1.0000 0.11540  0.73000  0.88190  Biso   1.000  H
  H72      1.0000 0.61540  0.23000  0.88190  Biso   1.000  H
  H73      1.0000 0.11030  0.40010  0.41940  Biso   1.000  H
  H74      1.0000 0.61030  0.90010  0.41940  Biso   1.000  H
  H75      1.0000 0.88970  0.40010  0.08060  Biso   1.000  H
  H76      1.0000 0.38970  0.90010  0.08060  Biso   1.000  H
  H77      1.0000 0.88970  0.59990  0.58060  Biso   1.000  H
  H78      1.0000 0.38970  0.09990  0.58060  Biso   1.000  H
  H79      1.0000 0.11030  0.59990  0.91940  Biso   1.000  H
  H80      1.0000 0.61030  0.09990  0.91940  Biso   1.000  H
  C97      1.0000 0.12304  0.97040  0.49469  Biso   1.000  C
  C98      1.0000 0.62304  0.47040  0.49469  Biso   1.000  C
  C99      1.0000 0.87696  0.97040  0.00531  Biso   1.000  C
  C100     1.0000 0.37696  0.47040  0.00531  Biso   1.000  C
  C101     1.0000 0.87696  0.02960  0.50531  Biso   1.000  C
  C102     1.0000 0.37696  0.52960  0.50531  Biso   1.000  C
  C103     1.0000 0.12304  0.02960  0.99469  Biso   1.000  C
  C104     1.0000 0.62304  0.52960  0.99469  Biso   1.000  C
  C105     1.0000 0.13809  0.07340  0.45824  Biso   1.000  C
  C106     1.0000 0.63809  0.57340  0.45824  Biso   1.000  C
  C107     1.0000 0.86191  0.07340  0.04176  Biso   1.000  C
  C108     1.0000 0.36191  0.57340  0.04176  Biso   1.000  C
  C109     1.0000 0.86191  0.92660  0.54176  Biso   1.000  C
  C110     1.0000 0.36191  0.42660  0.54176  Biso   1.000  C
  C111     1.0000 0.13809  0.92660  0.95824  Biso   1.000  C
  C112     1.0000 0.63809  0.42660  0.95824  Biso   1.000  C
  H81      1.0000 0.16930  0.06120  0.46860  Biso   1.000  H
  H82      1.0000 0.66930  0.56120  0.46860  Biso   1.000  H
  H83      1.0000 0.83070  0.06120  0.03140  Biso   1.000  H
  H84      1.0000 0.33070  0.56120  0.03140  Biso   1.000  H
  H85      1.0000 0.83070  0.93880  0.53140  Biso   1.000  H
  H86      1.0000 0.33070  0.43880  0.53140  Biso   1.000  H
  H87      1.0000 0.16930  0.93880  0.96860  Biso   1.000  H
  H88      1.0000 0.66930  0.43880  0.96860  Biso   1.000  H
  H89      1.0000 0.12320  0.05210  0.41570  Biso   1.000  H
  H90      1.0000 0.62320  0.55210  0.41570  Biso   1.000  H
  H91      1.0000 0.87680  0.05210  0.08430  Biso   1.000  H
  H92      1.0000 0.37680  0.55210  0.08430  Biso   1.000  H
  H93      1.0000 0.87680  0.94790  0.58430  Biso   1.000  H
  H94      1.0000 0.37680  0.44790  0.58430  Biso   1.000  H
  H95      1.0000 0.12320  0.94790  0.91570  Biso   1.000  H
  H96      1.0000 0.62320  0.44790  0.91570  Biso   1.000  H
  C113     1.0000 0.15619  0.42410  0.53779  Biso   1.000  C
  C114     1.0000 0.65619  0.92410  0.53779  Biso   1.000  C
  C115     1.0000 0.84381  0.42410  0.96221  Biso   1.000  C
  C116     1.0000 0.34381  0.92410  0.96221  Biso   1.000  C
  C117     1.0000 0.84381  0.57590  0.46221  Biso   1.000  C
  C118     1.0000 0.34381  0.07590  0.46221  Biso   1.000  C
  C119     1.0000 0.15619  0.57590  0.03779  Biso   1.000  C
  C120     1.0000 0.65619  0.07590  0.03779  Biso   1.000  C
  C121     1.0000 0.16914  0.30130  0.50680  Biso   1.000  C
  C122     1.0000 0.66914  0.80130  0.50680  Biso   1.000  C
  C123     1.0000 0.83086  0.30130  0.99320  Biso   1.000  C
  C124     1.0000 0.33086  0.80130  0.99320  Biso   1.000  C
  C125     1.0000 0.83086  0.69870  0.49320  Biso   1.000  C
  C126     1.0000 0.33086  0.19870  0.49320  Biso   1.000  C
  C127     1.0000 0.16914  0.69870  0.00680  Biso   1.000  C
  C128     1.0000 0.66914  0.19870  0.00680  Biso   1.000  C
  H97      1.0000 0.18390  0.33730  0.48170  Biso   1.000  H
  H98      1.0000 0.68390  0.83730  0.48170  Biso   1.000  H
  H99      1.0000 0.81610  0.33730  0.01830  Biso   1.000  H
  H100     1.0000 0.31610  0.83730  0.01830  Biso   1.000  H
  H101     1.0000 0.81610  0.66270  0.51830  Biso   1.000  H
  H102     1.0000 0.31610  0.16270  0.51830  Biso   1.000  H
  H103     1.0000 0.18390  0.66270  0.98170  Biso   1.000  H
  H104     1.0000 0.68390  0.16270  0.98170  Biso   1.000  H
  H105     1.0000 0.18910  0.23860  0.53680  Biso   1.000  H
  H106     1.0000 0.68910  0.73860  0.53680  Biso   1.000  H
  H107     1.0000 0.81090  0.23860  0.96320  Biso   1.000  H
  H108     1.0000 0.31090  0.73860  0.96320  Biso   1.000  H
  H109     1.0000 0.81090  0.76140  0.46320  Biso   1.000  H
  H110     1.0000 0.31090  0.26140  0.46320  Biso   1.000  H
  H111     1.0000 0.18910  0.76140  0.03680  Biso   1.000  H
  H112     1.0000 0.68910  0.26140  0.03680  Biso   1.000  H
  C129     1.0000 0.84659  0.50410  0.80069  Biso   1.000  C
  C130     1.0000 0.34659  0.00410  0.80069  Biso   1.000  C
  C131     1.0000 0.15341  0.50410  0.69931  Biso   1.000  C
  C132     1.0000 0.65341  0.00410  0.69931  Biso   1.000  C
  C133     1.0000 0.15341  0.49590  0.19931  Biso   1.000  C
  C134     1.0000 0.65341  0.99590  0.19931  Biso   1.000  C
  C135     1.0000 0.84659  0.49590  0.30069  Biso   1.000  C
  C136     1.0000 0.34659  0.99590  0.30069  Biso   1.000  C
  C137     1.0000 0.80522  0.41790  0.78818  Biso   1.000  C
  C138     1.0000 0.30522  0.91790  0.78818  Biso   1.000  C
  C139     1.0000 0.19478  0.41790  0.71182  Biso   1.000  C
  C140     1.0000 0.69478  0.91790  0.71182  Biso   1.000  C
  C141     1.0000 0.19478  0.58210  0.21182  Biso   1.000  C
  C142     1.0000 0.69478  0.08210  0.21182  Biso   1.000  C
  C143     1.0000 0.80522  0.58210  0.28818  Biso   1.000  C
  C144     1.0000 0.30522  0.08210  0.28818  Biso   1.000  C
  H113     1.0000 0.79770  0.42050  0.82350  Biso   1.000  H
  H114     1.0000 0.29770  0.92050  0.82350  Biso   1.000  H
  H115     1.0000 0.20230  0.42050  0.67650  Biso   1.000  H
  H116     1.0000 0.70230  0.92050  0.67650  Biso   1.000  H
  H117     1.0000 0.20230  0.57950  0.17650  Biso   1.000  H
  H118     1.0000 0.70230  0.07950  0.17650  Biso   1.000  H
  H119     1.0000 0.79770  0.57950  0.32350  Biso   1.000  H
  H120     1.0000 0.29770  0.07950  0.32350  Biso   1.000  H
  H121     1.0000 0.78130  0.46100  0.75500  Biso   1.000  H
  H122     1.0000 0.28130  0.96100  0.75500  Biso   1.000  H
  H123     1.0000 0.21870  0.46100  0.74500  Biso   1.000  H
  H124     1.0000 0.71870  0.96100  0.74500  Biso   1.000  H
  H125     1.0000 0.21870  0.53900  0.24500  Biso   1.000  H
  H126     1.0000 0.71870  0.03900  0.24500  Biso   1.000  H
  H127     1.0000 0.78130  0.53900  0.25500  Biso   1.000  H
  H128     1.0000 0.28130  0.03900  0.25500  Biso   1.000  H
  C145     1.0000 0.84593  0.04330  0.81648  Biso   1.000  C
  C146     1.0000 0.34593  0.54330  0.81648  Biso   1.000  C
  C147     1.0000 0.15407  0.04330  0.68352  Biso   1.000  C
  C148     1.0000 0.65407  0.54330  0.68352  Biso   1.000  C
  C149     1.0000 0.15407  0.95670  0.18352  Biso   1.000  C
  C150     1.0000 0.65407  0.45670  0.18352  Biso   1.000  C
  C151     1.0000 0.84593  0.95670  0.31648  Biso   1.000  C
  C152     1.0000 0.34593  0.45670  0.31648  Biso   1.000  C
  C153     1.0000 0.82020  0.17020  0.82481  Biso   1.000  C
  C154     1.0000 0.32020  0.67020  0.82481  Biso   1.000  C
  C155     1.0000 0.17980  0.17020  0.67519  Biso   1.000  C
  C156     1.0000 0.67980  0.67020  0.67519  Biso   1.000  C
  C157     1.0000 0.17980  0.82980  0.17519  Biso   1.000  C
  C158     1.0000 0.67980  0.32980  0.17519  Biso   1.000  C
  C159     1.0000 0.82020  0.82980  0.32481  Biso   1.000  C
  C160     1.0000 0.32020  0.32980  0.32481  Biso   1.000  C
  H129     1.0000 0.79320  0.13790  0.82780  Biso   1.000  H
  H130     1.0000 0.29320  0.63790  0.82780  Biso   1.000  H
  H131     1.0000 0.20680  0.13790  0.67220  Biso   1.000  H
  H132     1.0000 0.70680  0.63790  0.67220  Biso   1.000  H
  H133     1.0000 0.20680  0.86210  0.17220  Biso   1.000  H
  H134     1.0000 0.70680  0.36210  0.17220  Biso   1.000  H
  H135     1.0000 0.79320  0.86210  0.32780  Biso   1.000  H
  H136     1.0000 0.29320  0.36210  0.32780  Biso   1.000  H
  H137     1.0000 0.83730  0.21940  0.86180  Biso   1.000  H
  H138     1.0000 0.33730  0.71940  0.86180  Biso   1.000  H
  H139     1.0000 0.16270  0.21940  0.63820  Biso   1.000  H
  H140     1.0000 0.66270  0.71940  0.63820  Biso   1.000  H
  H141     1.0000 0.16270  0.78060  0.13820  Biso   1.000  H
  H142     1.0000 0.66270  0.28060  0.13820  Biso   1.000  H
  H143     1.0000 0.83730  0.78060  0.36180  Biso   1.000  H
  H144     1.0000 0.33730  0.28060  0.36180  Biso   1.000  H
  C161     1.0000 0.77396  0.27290  0.66150  Biso   1.000  C
  C162     1.0000 0.27396  0.77290  0.66150  Biso   1.000  C
  C163     1.0000 0.22604  0.27290  0.83850  Biso   1.000  C
  C164     1.0000 0.72604  0.77290  0.83850  Biso   1.000  C
  C165     1.0000 0.22604  0.72710  0.33850  Biso   1.000  C
  C166     1.0000 0.72604  0.22710  0.33850  Biso   1.000  C
  C167     1.0000 0.77396  0.72710  0.16150  Biso   1.000  C
  C168     1.0000 0.27396  0.22710  0.16150  Biso   1.000  C
  C169     1.0000 0.77155  0.22010  0.72053  Biso   1.000  C
  C170     1.0000 0.27155  0.72010  0.72053  Biso   1.000  C
  C171     1.0000 0.22845  0.22010  0.77947  Biso   1.000  C
  C172     1.0000 0.72845  0.72010  0.77947  Biso   1.000  C
  C173     1.0000 0.22845  0.77990  0.27947  Biso   1.000  C
  C174     1.0000 0.72845  0.27990  0.27947  Biso   1.000  C
  C175     1.0000 0.77155  0.77990  0.22053  Biso   1.000  C
  C176     1.0000 0.27155  0.27990  0.22053  Biso   1.000  C
  H145     1.0000 0.74500  0.25560  0.72390  Biso   1.000  H
  H146     1.0000 0.24500  0.75560  0.72390  Biso   1.000  H
  H147     1.0000 0.25500  0.25560  0.77610  Biso   1.000  H
  H148     1.0000 0.75500  0.75560  0.77610  Biso   1.000  H
  H149     1.0000 0.25500  0.74440  0.27610  Biso   1.000  H
  H150     1.0000 0.75500  0.24440  0.27610  Biso   1.000  H
  H151     1.0000 0.74500  0.74440  0.22390  Biso   1.000  H
  H152     1.0000 0.24500  0.24440  0.22390  Biso   1.000  H
  H153     1.0000 0.77030  0.11730  0.72020  Biso   1.000  H
  H154     1.0000 0.27030  0.61730  0.72020  Biso   1.000  H
  H155     1.0000 0.22970  0.11730  0.77980  Biso   1.000  H
  H156     1.0000 0.72970  0.61730  0.77980  Biso   1.000  H
  H157     1.0000 0.22970  0.88270  0.27980  Biso   1.000  H
  H158     1.0000 0.72970  0.38270  0.27980  Biso   1.000  H
  H159     1.0000 0.77030  0.88270  0.22020  Biso   1.000  H
  H160     1.0000 0.27030  0.38270  0.22020  Biso   1.000  H
  Cl1      1.0000 0.30024  0.32992  0.65105  Biso   1.000  Cl
  Cl2      1.0000 0.80024  0.82992  0.65105  Biso   1.000  Cl
  Cl3      1.0000 0.69976  0.32992  0.84895  Biso   1.000  Cl
  Cl4      1.0000 0.19976  0.82992  0.84895  Biso   1.000  Cl
  Cl5      1.0000 0.69976  0.67008  0.34895  Biso   1.000  Cl
  Cl6      1.0000 0.19976  0.17008  0.34895  Biso   1.000  Cl
  Cl7      1.0000 0.30024  0.67008  0.15105  Biso   1.000  Cl
  Cl8      1.0000 0.80024  0.17008  0.15105  Biso   1.000  Cl
  Na1      1.0000 0.89112  0.79177  0.79931  Biso   1.000  Na
  Na2      1.0000 0.39112  0.29177  0.79931  Biso   1.000  Na
  Na3      1.0000 0.10888  0.79177  0.70069  Biso   1.000  Na
  Na4      1.0000 0.60888  0.29177  0.70069  Biso   1.000  Na
  Na5      1.0000 0.10888  0.20823  0.20069  Biso   1.000  Na
  Na6      1.0000 0.60888  0.70823  0.20069  Biso   1.000  Na
  Na7      1.0000 0.89112  0.20823  0.29931  Biso   1.000  Na
  Na8      1.0000 0.39112  0.70823  0.29931  Biso   1.000  Na
  Na9      1.0000 0.24303  0.59997  0.53862  Biso   1.000  Na
  Na10     1.0000 0.74303  0.09997  0.53862  Biso   1.000  Na
  Na11     1.0000 0.75697  0.59997  0.96138  Biso   1.000  Na
  Na12     1.0000 0.25697  0.09997  0.96138  Biso   1.000  Na
  Na13     1.0000 0.75697  0.40003  0.46138  Biso   1.000  Na
  Na14     1.0000 0.25697  0.90003  0.46138  Biso   1.000  Na
  Na15     1.0000 0.24303  0.40003  0.03862  Biso   1.000  Na
  Na16     1.0000 0.74303  0.90003  0.03862  Biso   1.000  Na
  Na17     1.0000 0.16498  0.74363  0.60196  Biso   1.000  Na
  Na18     1.0000 0.66498  0.24363  0.60196  Biso   1.000  Na
  Na19     1.0000 0.83502  0.74363  0.89804  Biso   1.000  Na
  Na20     1.0000 0.33502  0.24363  0.89804  Biso   1.000  Na
  Na21     1.0000 0.83502  0.25637  0.39804  Biso   1.000  Na
  Na22     1.0000 0.33502  0.75637  0.39804  Biso   1.000  Na
  Na23     1.0000 0.16498  0.25637  0.10196  Biso   1.000  Na
  Na24     1.0000 0.66498  0.75637  0.10196  Biso   1.000  Na
  O129     1.0000 0.25621  0.48680  0.45814  Biso   1.000  O
  O130     1.0000 0.75621  0.98680  0.45814  Biso   1.000  O
  O131     1.0000 0.74379  0.48680  0.04186  Biso   1.000  O
  O132     1.0000 0.24379  0.98680  0.04186  Biso   1.000  O
  O133     1.0000 0.74379  0.51320  0.54186  Biso   1.000  O
  O134     1.0000 0.24379  0.01320  0.54186  Biso   1.000  O
  O135     1.0000 0.25621  0.51320  0.95814  Biso   1.000  O
  O136     1.0000 0.75621  0.01320  0.95814  Biso   1.000  O
  O137     1.0000 0.94951  0.76030  0.89294  Biso   1.000  O
  O138     1.0000 0.44951  0.26030  0.89294  Biso   1.000  O
  O139     1.0000 0.05049  0.76030  0.60706  Biso   1.000  O
  O140     1.0000 0.55049  0.26030  0.60706  Biso   1.000  O
  O141     1.0000 0.05049  0.23970  0.10706  Biso   1.000  O
  O142     1.0000 0.55049  0.73970  0.10706  Biso   1.000  O
  O143     1.0000 0.94951  0.23970  0.39294  Biso   1.000  O
  O144     1.0000 0.44951  0.73970  0.39294  Biso   1.000  O
  O145     1.0000 0.94635  0.77650  0.76369  Biso   1.000  O
  O146     1.0000 0.44635  0.27650  0.76369  Biso   1.000  O
  O147     1.0000 0.05365  0.77650  0.73631  Biso   1.000  O
  O148     1.0000 0.55365  0.27650  0.73631  Biso   1.000  O
  O149     1.0000 0.05365  0.22350  0.23631  Biso   1.000  O
  O150     1.0000 0.55365  0.72350  0.23631  Biso   1.000  O
  O151     1.0000 0.94635  0.22350  0.26369  Biso   1.000  O
  O152     1.0000 0.44635  0.72350  0.26369  Biso   1.000  O
  O153     1.0000 0.30256  0.75020  0.54286  Biso   1.000  O
  O154     1.0000 0.80256  0.25020  0.54286  Biso   1.000  O
  O155     1.0000 0.69744  0.75020  0.95714  Biso   1.000  O
  O156     1.0000 0.19744  0.25020  0.95714  Biso   1.000  O
  O157     1.0000 0.69744  0.24980  0.45714  Biso   1.000  O
  O158     1.0000 0.19744  0.74980  0.45714  Biso   1.000  O
  O159     1.0000 0.30256  0.24980  0.04286  Biso   1.000  O
  O160     1.0000 0.80256  0.74980  0.04286  Biso   1.000  O
  O161     1.0000 0.92701  0.66420  0.98600  Biso   1.000  O
  O162     1.0000 0.42701  0.16420  0.98600  Biso   1.000  O
  O163     1.0000 0.07299  0.66420  0.51400  Biso   1.000  O
  O164     1.0000 0.57299  0.16420  0.51400  Biso   1.000  O
  O165     1.0000 0.07299  0.33580  0.01400  Biso   1.000  O
  O166     1.0000 0.57299  0.83580  0.01400  Biso   1.000  O
  O167     1.0000 0.92701  0.33580  0.48600  Biso   1.000  O
  O168     1.0000 0.42701  0.83580  0.48600  Biso   1.000  O
  H161     1.0000 0.93900  0.76000  0.92100  Biso   1.000  H
  H162     1.0000 0.43900  0.26000  0.92100  Biso   1.000  H
  H163     1.0000 0.06100  0.76000  0.57900  Biso   1.000  H
  H164     1.0000 0.56100  0.26000  0.57900  Biso   1.000  H
  H165     1.0000 0.06100  0.24000  0.07900  Biso   1.000  H
  H166     1.0000 0.56100  0.74000  0.07900  Biso   1.000  H
  H167     1.0000 0.93900  0.24000  0.42100  Biso   1.000  H
  H168     1.0000 0.43900  0.74000  0.42100  Biso   1.000  H
  H169     1.0000 0.95300  0.75900  0.73200  Biso   1.000  H
  H170     1.0000 0.45300  0.25900  0.73200  Biso   1.000  H
  H171     1.0000 0.04700  0.75900  0.76800  Biso   1.000  H
  H172     1.0000 0.54700  0.25900  0.76800  Biso   1.000  H
  H173     1.0000 0.04700  0.24100  0.26800  Biso   1.000  H
  H174     1.0000 0.54700  0.74100  0.26800  Biso   1.000  H
  H175     1.0000 0.95300  0.24100  0.23200  Biso   1.000  H
  H176     1.0000 0.45300  0.74100  0.23200  Biso   1.000  H
  H177     1.0000 0.96970  0.74100  0.79100  Biso   1.000  H
  H178     1.0000 0.46970  0.24100  0.79100  Biso   1.000  H
  H179     1.0000 0.03030  0.74100  0.70900  Biso   1.000  H
  H180     1.0000 0.53030  0.24100  0.70900  Biso   1.000  H
  H181     1.0000 0.03030  0.25900  0.20900  Biso   1.000  H
  H182     1.0000 0.53030  0.75900  0.20900  Biso   1.000  H
  H183     1.0000 0.96970  0.25900  0.29100  Biso   1.000  H
  H184     1.0000 0.46970  0.75900  0.29100  Biso   1.000  H
  H185     1.0000 0.25500  0.55500  0.43500  Biso   1.000  H
  H186     1.0000 0.75500  0.05500  0.43500  Biso   1.000  H
  H187     1.0000 0.74500  0.55500  0.06500  Biso   1.000  H
  H188     1.0000 0.24500  0.05500  0.06500  Biso   1.000  H
  H189     1.0000 0.74500  0.44500  0.56500  Biso   1.000  H
  H190     1.0000 0.24500  0.94500  0.56500  Biso   1.000  H
  H191     1.0000 0.25500  0.44500  0.93500  Biso   1.000  H
  H192     1.0000 0.75500  0.94500  0.93500  Biso   1.000  H
  H193     1.0000 0.24500  0.41900  0.43400  Biso   1.000  H
  H194     1.0000 0.74500  0.91900  0.43400  Biso   1.000  H
  H195     1.0000 0.75500  0.41900  0.06600  Biso   1.000  H
  H196     1.0000 0.25500  0.91900  0.06600  Biso   1.000  H
  H197     1.0000 0.75500  0.58100  0.56600  Biso   1.000  H
  H198     1.0000 0.25500  0.08100  0.56600  Biso   1.000  H
  H199     1.0000 0.24500  0.58100  0.93400  Biso   1.000  H
  H200     1.0000 0.74500  0.08100  0.93400  Biso   1.000  H
  H201     1.0000 0.97630  0.74900  0.91600  Biso   1.000  H
  H202     1.0000 0.47630  0.24900  0.91600  Biso   1.000  H
  H203     1.0000 0.02370  0.74900  0.58400  Biso   1.000  H
  H204     1.0000 0.52370  0.24900  0.58400  Biso   1.000  H
  H205     1.0000 0.02370  0.25100  0.08400  Biso   1.000  H
  H206     1.0000 0.52370  0.75100  0.08400  Biso   1.000  H
  H207     1.0000 0.97630  0.25100  0.41600  Biso   1.000  H
  H208     1.0000 0.47630  0.75100  0.41600  Biso   1.000  H
  H209     1.0000 0.30800  0.76200  0.58030  Biso   1.000  H
  H210     1.0000 0.80800  0.26200  0.58030  Biso   1.000  H
  H211     1.0000 0.69200  0.76200  0.91970  Biso   1.000  H
  H212     1.0000 0.19200  0.26200  0.91970  Biso   1.000  H
  H213     1.0000 0.69200  0.23800  0.41970  Biso   1.000  H
  H214     1.0000 0.19200  0.73800  0.41970  Biso   1.000  H
  H215     1.0000 0.30800  0.23800  0.08030  Biso   1.000  H
  H216     1.0000 0.80800  0.73800  0.08030  Biso   1.000  H
  H217     1.0000 0.32390  0.72100  0.53500  Biso   1.000  H
  H218     1.0000 0.82390  0.22100  0.53500  Biso   1.000  H
  H219     1.0000 0.67610  0.72100  0.96500  Biso   1.000  H
  H220     1.0000 0.17610  0.22100  0.96500  Biso   1.000  H
  H221     1.0000 0.67610  0.27900  0.46500  Biso   1.000  H
  H222     1.0000 0.17610  0.77900  0.46500  Biso   1.000  H
  H223     1.0000 0.32390  0.27900  0.03500  Biso   1.000  H
  H224     1.0000 0.82390  0.77900  0.03500  Biso   1.000  H
  H225     1.0000 0.91200  0.58600  0.97800  Biso   1.000  H
  H226     1.0000 0.41200  0.08600  0.97800  Biso   1.000  H
  H227     1.0000 0.08800  0.58600  0.52200  Biso   1.000  H
  H228     1.0000 0.58800  0.08600  0.52200  Biso   1.000  H
  H229     1.0000 0.08800  0.41400  0.02200  Biso   1.000  H
  H230     1.0000 0.58800  0.91400  0.02200  Biso   1.000  H
  H231     1.0000 0.91200  0.41400  0.47800  Biso   1.000  H
  H232     1.0000 0.41200  0.91400  0.47800  Biso   1.000  H
  H233     1.0000 0.90650  0.71600  0.99100  Biso   1.000  H
  H234     1.0000 0.40650  0.21600  0.99100  Biso   1.000  H
  H235     1.0000 0.09350  0.71600  0.50900  Biso   1.000  H
  H236     1.0000 0.59350  0.21600  0.50900  Biso   1.000  H
  H237     1.0000 0.09350  0.28400  0.00900  Biso   1.000  H
  H238     1.0000 0.59350  0.78400  0.00900  Biso   1.000  H
  H239     1.0000 0.90650  0.28400  0.49100  Biso   1.000  H
  H240     1.0000 0.40650  0.78400  0.49100  Biso   1.000  H
