data_image0
_cell_length_a       23.127
_cell_length_b       23.127
_cell_length_c       19.723
_cell_angle_alpha    90
_cell_angle_beta     90
_cell_angle_gamma    120

_symmetry_space_group_name_H-M    "P 1"
_symmetry_int_tables_number       1

loop_
  _symmetry_equiv_pos_as_xyz
  'x, y, z'

loop_
  _atom_site_label
  _atom_site_occupancy
  _atom_site_fract_x
  _atom_site_fract_y
  _atom_site_fract_z
  _atom_site_thermal_displace_type
  _atom_site_B_iso_or_equiv
  _atom_site_type_symbol
  Cu1      1.0000 0.19922  0.39839  0.32112  Biso   1.000  Cu
  Cu2      1.0000 0.60161  0.80083  0.32112  Biso   1.000  Cu
  Cu3      1.0000 0.19917  0.80078  0.32112  Biso   1.000  Cu
  Cu4      1.0000 0.86589  0.73172  0.65445  Biso   1.000  Cu
  Cu5      1.0000 0.26828  0.13416  0.65445  Biso   1.000  Cu
  Cu6      1.0000 0.86584  0.13411  0.65445  Biso   1.000  Cu
  Cu7      1.0000 0.53255  0.06506  0.98779  Biso   1.000  Cu
  Cu8      1.0000 0.93494  0.46750  0.98779  Biso   1.000  Cu
  Cu9      1.0000 0.53250  0.46745  0.98779  Biso   1.000  Cu
  Cu10     1.0000 0.80078  0.60161  0.67888  Biso   1.000  Cu
  Cu11     1.0000 0.39839  0.19917  0.67888  Biso   1.000  Cu
  Cu12     1.0000 0.80083  0.19922  0.67888  Biso   1.000  Cu
  Cu13     1.0000 0.46745  0.93494  0.01221  Biso   1.000  Cu
  Cu14     1.0000 0.06506  0.53250  0.01221  Biso   1.000  Cu
  Cu15     1.0000 0.46750  0.53255  0.01221  Biso   1.000  Cu
  Cu16     1.0000 0.13411  0.26828  0.34555  Biso   1.000  Cu
  Cu17     1.0000 0.73172  0.86584  0.34555  Biso   1.000  Cu
  Cu18     1.0000 0.13416  0.86589  0.34555  Biso   1.000  Cu
  O1       1.0000 0.25240  0.50090  0.30300  Biso   1.000  O
  O2       1.0000 0.49910  0.75150  0.30300  Biso   1.000  O
  O3       1.0000 0.24850  0.74760  0.30300  Biso   1.000  O
  O4       1.0000 0.91907  0.83423  0.63633  Biso   1.000  O
  O5       1.0000 0.16577  0.08483  0.63633  Biso   1.000  O
  O6       1.0000 0.91517  0.08093  0.63633  Biso   1.000  O
  O7       1.0000 0.58573  0.16757  0.96967  Biso   1.000  O
  O8       1.0000 0.83243  0.41817  0.96967  Biso   1.000  O
  O9       1.0000 0.58183  0.41427  0.96967  Biso   1.000  O
  O10      1.0000 0.74760  0.49910  0.69700  Biso   1.000  O
  O11      1.0000 0.50090  0.24850  0.69700  Biso   1.000  O
  O12      1.0000 0.75150  0.25240  0.69700  Biso   1.000  O
  O13      1.0000 0.41427  0.83243  0.03033  Biso   1.000  O
  O14      1.0000 0.16757  0.58183  0.03033  Biso   1.000  O
  O15      1.0000 0.41817  0.58573  0.03033  Biso   1.000  O
  O16      1.0000 0.08093  0.16577  0.36367  Biso   1.000  O
  O17      1.0000 0.83423  0.91517  0.36367  Biso   1.000  O
  O18      1.0000 0.08483  0.91907  0.36367  Biso   1.000  O
  H1       1.0000 0.27410  0.52580  0.34430  Biso   1.000  H
  H2       1.0000 0.47420  0.74830  0.34430  Biso   1.000  H
  H3       1.0000 0.25170  0.72590  0.34430  Biso   1.000  H
  H4       1.0000 0.94077  0.85913  0.67763  Biso   1.000  H
  H5       1.0000 0.14087  0.08163  0.67763  Biso   1.000  H
  H6       1.0000 0.91837  0.05923  0.67763  Biso   1.000  H
  H7       1.0000 0.60743  0.19247  0.01097  Biso   1.000  H
  H8       1.0000 0.80753  0.41497  0.01097  Biso   1.000  H
  H9       1.0000 0.58503  0.39257  0.01097  Biso   1.000  H
  H10      1.0000 0.72590  0.47420  0.65570  Biso   1.000  H
  H11      1.0000 0.52580  0.25170  0.65570  Biso   1.000  H
  H12      1.0000 0.74830  0.27410  0.65570  Biso   1.000  H
  H13      1.0000 0.39257  0.80753  0.98903  Biso   1.000  H
  H14      1.0000 0.19247  0.58503  0.98903  Biso   1.000  H
  H15      1.0000 0.41497  0.60743  0.98903  Biso   1.000  H
  H16      1.0000 0.05923  0.14087  0.32237  Biso   1.000  H
  H17      1.0000 0.85913  0.91837  0.32237  Biso   1.000  H
  H18      1.0000 0.08163  0.94077  0.32237  Biso   1.000  H
  H19      1.0000 0.22100  0.51450  0.28640  Biso   1.000  H
  H20      1.0000 0.48550  0.70650  0.28640  Biso   1.000  H
  H21      1.0000 0.29350  0.77900  0.28640  Biso   1.000  H
  H22      1.0000 0.88767  0.84783  0.61973  Biso   1.000  H
  H23      1.0000 0.15217  0.03983  0.61973  Biso   1.000  H
  H24      1.0000 0.96017  0.11233  0.61973  Biso   1.000  H
  H25      1.0000 0.55433  0.18117  0.95307  Biso   1.000  H
  H26      1.0000 0.81883  0.37317  0.95307  Biso   1.000  H
  H27      1.0000 0.62683  0.44567  0.95307  Biso   1.000  H
  H28      1.0000 0.77900  0.48550  0.71360  Biso   1.000  H
  H29      1.0000 0.51450  0.29350  0.71360  Biso   1.000  H
  H30      1.0000 0.70650  0.22100  0.71360  Biso   1.000  H
  H31      1.0000 0.44567  0.81883  0.04693  Biso   1.000  H
  H32      1.0000 0.18117  0.62683  0.04693  Biso   1.000  H
  H33      1.0000 0.37317  0.55433  0.04693  Biso   1.000  H
  H34      1.0000 0.11233  0.15217  0.38027  Biso   1.000  H
  H35      1.0000 0.84783  0.96017  0.38027  Biso   1.000  H
  H36      1.0000 0.03983  0.88767  0.38027  Biso   1.000  H
  H37      1.0000 0.28620  0.51030  0.26820  Biso   1.000  H
  H38      1.0000 0.48970  0.77590  0.26820  Biso   1.000  H
  H39      1.0000 0.22410  0.71380  0.26820  Biso   1.000  H
  H40      1.0000 0.95287  0.84363  0.60153  Biso   1.000  H
  H41      1.0000 0.15637  0.10923  0.60153  Biso   1.000  H
  H42      1.0000 0.89077  0.04713  0.60153  Biso   1.000  H
  H43      1.0000 0.61953  0.17697  0.93487  Biso   1.000  H
  H44      1.0000 0.82303  0.44257  0.93487  Biso   1.000  H
  H45      1.0000 0.55743  0.38047  0.93487  Biso   1.000  H
  H46      1.0000 0.71380  0.48970  0.73180  Biso   1.000  H
  H47      1.0000 0.51030  0.22410  0.73180  Biso   1.000  H
  H48      1.0000 0.77590  0.28620  0.73180  Biso   1.000  H
  H49      1.0000 0.38047  0.82303  0.06513  Biso   1.000  H
  H50      1.0000 0.17697  0.55743  0.06513  Biso   1.000  H
  H51      1.0000 0.44257  0.61953  0.06513  Biso   1.000  H
  H52      1.0000 0.04713  0.15637  0.39847  Biso   1.000  H
  H53      1.0000 0.84363  0.89077  0.39847  Biso   1.000  H
  H54      1.0000 0.10923  0.95287  0.39847  Biso   1.000  H
  O19      1.0000 0.13810  0.39960  0.39120  Biso   1.000  O
  O20      1.0000 0.60040  0.73850  0.39120  Biso   1.000  O
  O21      1.0000 0.26150  0.86190  0.39120  Biso   1.000  O
  O22      1.0000 0.80477  0.73293  0.72453  Biso   1.000  O
  O23      1.0000 0.26707  0.07183  0.72453  Biso   1.000  O
  O24      1.0000 0.92817  0.19523  0.72453  Biso   1.000  O
  O25      1.0000 0.47143  0.06627  0.05787  Biso   1.000  O
  O26      1.0000 0.93373  0.40517  0.05787  Biso   1.000  O
  O27      1.0000 0.59483  0.52857  0.05787  Biso   1.000  O
  O28      1.0000 0.86190  0.60040  0.60880  Biso   1.000  O
  O29      1.0000 0.39960  0.26150  0.60880  Biso   1.000  O
  O30      1.0000 0.73850  0.13810  0.60880  Biso   1.000  O
  O31      1.0000 0.52857  0.93373  0.94213  Biso   1.000  O
  O32      1.0000 0.06627  0.59483  0.94213  Biso   1.000  O
  O33      1.0000 0.40517  0.47143  0.94213  Biso   1.000  O
  O34      1.0000 0.19523  0.26707  0.27547  Biso   1.000  O
  O35      1.0000 0.73293  0.92817  0.27547  Biso   1.000  O
  O36      1.0000 0.07183  0.80477  0.27547  Biso   1.000  O
  O37      1.0000 0.24800  0.37800  0.25680  Biso   1.000  O
  O38      1.0000 0.62200  0.87000  0.25680  Biso   1.000  O
  O39      1.0000 0.13000  0.75200  0.25680  Biso   1.000  O
  O40      1.0000 0.91467  0.71133  0.59013  Biso   1.000  O
  O41      1.0000 0.28867  0.20333  0.59013  Biso   1.000  O
  O42      1.0000 0.79667  0.08533  0.59013  Biso   1.000  O
  O43      1.0000 0.58133  0.04467  0.92347  Biso   1.000  O
  O44      1.0000 0.95533  0.53667  0.92347  Biso   1.000  O
  O45      1.0000 0.46333  0.41867  0.92347  Biso   1.000  O
  O46      1.0000 0.75200  0.62200  0.74320  Biso   1.000  O
  O47      1.0000 0.37800  0.13000  0.74320  Biso   1.000  O
  O48      1.0000 0.87000  0.24800  0.74320  Biso   1.000  O
  O49      1.0000 0.41867  0.95533  0.07653  Biso   1.000  O
  O50      1.0000 0.04467  0.46333  0.07653  Biso   1.000  O
  O51      1.0000 0.53667  0.58133  0.07653  Biso   1.000  O
  O52      1.0000 0.08533  0.28867  0.40987  Biso   1.000  O
  O53      1.0000 0.71133  0.79667  0.40987  Biso   1.000  O
  O54      1.0000 0.20333  0.91467  0.40987  Biso   1.000  O
  O55      1.0000 0.26130  0.39900  0.38920  Biso   1.000  O
  O56      1.0000 0.60100  0.86230  0.38920  Biso   1.000  O
  O57      1.0000 0.13770  0.73870  0.38920  Biso   1.000  O
  O58      1.0000 0.92797  0.73233  0.72253  Biso   1.000  O
  O59      1.0000 0.26767  0.19563  0.72253  Biso   1.000  O
  O60      1.0000 0.80437  0.07203  0.72253  Biso   1.000  O
  O61      1.0000 0.59463  0.06567  0.05587  Biso   1.000  O
  O62      1.0000 0.93433  0.52897  0.05587  Biso   1.000  O
  O63      1.0000 0.47103  0.40537  0.05587  Biso   1.000  O
  O64      1.0000 0.73870  0.60100  0.61080  Biso   1.000  O
  O65      1.0000 0.39900  0.13770  0.61080  Biso   1.000  O
  O66      1.0000 0.86230  0.26130  0.61080  Biso   1.000  O
  O67      1.0000 0.40537  0.93433  0.94413  Biso   1.000  O
  O68      1.0000 0.06567  0.47103  0.94413  Biso   1.000  O
  O69      1.0000 0.52897  0.59463  0.94413  Biso   1.000  O
  O70      1.0000 0.07203  0.26767  0.27747  Biso   1.000  O
  O71      1.0000 0.73233  0.80437  0.27747  Biso   1.000  O
  O72      1.0000 0.19563  0.92797  0.27747  Biso   1.000  O
  O73      1.0000 0.12790  0.37580  0.25400  Biso   1.000  O
  O74      1.0000 0.62420  0.75210  0.25400  Biso   1.000  O
  O75      1.0000 0.24790  0.87210  0.25400  Biso   1.000  O
  O76      1.0000 0.79457  0.70913  0.58733  Biso   1.000  O
  O77      1.0000 0.29087  0.08543  0.58733  Biso   1.000  O
  O78      1.0000 0.91457  0.20543  0.58733  Biso   1.000  O
  O79      1.0000 0.46123  0.04247  0.92067  Biso   1.000  O
  O80      1.0000 0.95753  0.41877  0.92067  Biso   1.000  O
  O81      1.0000 0.58123  0.53877  0.92067  Biso   1.000  O
  O82      1.0000 0.87210  0.62420  0.74600  Biso   1.000  O
  O83      1.0000 0.37580  0.24790  0.74600  Biso   1.000  O
  O84      1.0000 0.75210  0.12790  0.74600  Biso   1.000  O
  O85      1.0000 0.53877  0.95753  0.07933  Biso   1.000  O
  O86      1.0000 0.04247  0.58123  0.07933  Biso   1.000  O
  O87      1.0000 0.41877  0.46123  0.07933  Biso   1.000  O
  O88      1.0000 0.20543  0.29087  0.41267  Biso   1.000  O
  O89      1.0000 0.70913  0.91457  0.41267  Biso   1.000  O
  O90      1.0000 0.08543  0.79457  0.41267  Biso   1.000  O
  C1       1.0000 0.09630  0.34970  0.41850  Biso   1.000  C
  C2       1.0000 0.65030  0.74660  0.41850  Biso   1.000  C
  C3       1.0000 0.25340  0.90370  0.41850  Biso   1.000  C
  C4       1.0000 0.76297  0.68303  0.75183  Biso   1.000  C
  C5       1.0000 0.31697  0.07993  0.75183  Biso   1.000  C
  C6       1.0000 0.92007  0.23703  0.75183  Biso   1.000  C
  C7       1.0000 0.42963  0.01637  0.08517  Biso   1.000  C
  C8       1.0000 0.98363  0.41327  0.08517  Biso   1.000  C
  C9       1.0000 0.58673  0.57037  0.08517  Biso   1.000  C
  C10      1.0000 0.90370  0.65030  0.58150  Biso   1.000  C
  C11      1.0000 0.34970  0.25340  0.58150  Biso   1.000  C
  C12      1.0000 0.74660  0.09630  0.58150  Biso   1.000  C
  C13      1.0000 0.57037  0.98363  0.91483  Biso   1.000  C
  C14      1.0000 0.01637  0.58673  0.91483  Biso   1.000  C
  C15      1.0000 0.41327  0.42963  0.91483  Biso   1.000  C
  C16      1.0000 0.23703  0.31697  0.24817  Biso   1.000  C
  C17      1.0000 0.68303  0.92007  0.24817  Biso   1.000  C
  C18      1.0000 0.07993  0.76297  0.24817  Biso   1.000  C
  C19      1.0000 0.25180  0.34740  0.41710  Biso   1.000  C
  C20      1.0000 0.65260  0.90440  0.41710  Biso   1.000  C
  C21      1.0000 0.09560  0.74820  0.41710  Biso   1.000  C
  C22      1.0000 0.91847  0.68073  0.75043  Biso   1.000  C
  C23      1.0000 0.31927  0.23773  0.75043  Biso   1.000  C
  C24      1.0000 0.76227  0.08153  0.75043  Biso   1.000  C
  C25      1.0000 0.58513  0.01407  0.08377  Biso   1.000  C
  C26      1.0000 0.98593  0.57107  0.08377  Biso   1.000  C
  C27      1.0000 0.42893  0.41487  0.08377  Biso   1.000  C
  C28      1.0000 0.74820  0.65260  0.58290  Biso   1.000  C
  C29      1.0000 0.34740  0.09560  0.58290  Biso   1.000  C
  C30      1.0000 0.90440  0.25180  0.58290  Biso   1.000  C
  C31      1.0000 0.41487  0.98593  0.91623  Biso   1.000  C
  C32      1.0000 0.01407  0.42893  0.91623  Biso   1.000  C
  C33      1.0000 0.57107  0.58513  0.91623  Biso   1.000  C
  C34      1.0000 0.08153  0.31927  0.24957  Biso   1.000  C
  C35      1.0000 0.68073  0.76227  0.24957  Biso   1.000  C
  C36      1.0000 0.23773  0.91847  0.24957  Biso   1.000  C
  C37      1.0000 0.04780  0.35580  0.46360  Biso   1.000  C
  C38      1.0000 0.64420  0.69200  0.46360  Biso   1.000  C
  C39      1.0000 0.30800  0.95220  0.46360  Biso   1.000  C
  C40      1.0000 0.71447  0.68913  0.79693  Biso   1.000  C
  C41      1.0000 0.31087  0.02533  0.79693  Biso   1.000  C
  C42      1.0000 0.97467  0.28553  0.79693  Biso   1.000  C
  C43      1.0000 0.38113  0.02247  0.13027  Biso   1.000  C
  C44      1.0000 0.97753  0.35867  0.13027  Biso   1.000  C
  C45      1.0000 0.64133  0.61887  0.13027  Biso   1.000  C
  C46      1.0000 0.95220  0.64420  0.53640  Biso   1.000  C
  C47      1.0000 0.35580  0.30800  0.53640  Biso   1.000  C
  C48      1.0000 0.69200  0.04780  0.53640  Biso   1.000  C
  C49      1.0000 0.61887  0.97753  0.86973  Biso   1.000  C
  C50      1.0000 0.02247  0.64133  0.86973  Biso   1.000  C
  C51      1.0000 0.35867  0.38113  0.86973  Biso   1.000  C
  C52      1.0000 0.28553  0.31087  0.20307  Biso   1.000  C
  C53      1.0000 0.68913  0.97467  0.20307  Biso   1.000  C
  C54      1.0000 0.02533  0.71447  0.20307  Biso   1.000  C
  C55      1.0000 0.99930  0.30170  0.49980  Biso   1.000  C
  C56      1.0000 0.69830  0.69760  0.49980  Biso   1.000  C
  C57      1.0000 0.30240  0.00070  0.49980  Biso   1.000  C
  C58      1.0000 0.66597  0.63503  0.83313  Biso   1.000  C
  C59      1.0000 0.36497  0.03093  0.83313  Biso   1.000  C
  C60      1.0000 0.96907  0.33403  0.83313  Biso   1.000  C
  C61      1.0000 0.33263  0.96837  0.16647  Biso   1.000  C
  C62      1.0000 0.03163  0.36427  0.16647  Biso   1.000  C
  C63      1.0000 0.63573  0.66737  0.16647  Biso   1.000  C
  C64      1.0000 0.00070  0.69830  0.50020  Biso   1.000  C
  C65      1.0000 0.30170  0.30240  0.50020  Biso   1.000  C
  C66      1.0000 0.69760  0.99930  0.50020  Biso   1.000  C
  C67      1.0000 0.66737  0.03163  0.83353  Biso   1.000  C
  C68      1.0000 0.96837  0.63573  0.83353  Biso   1.000  C
  C69      1.0000 0.36427  0.33263  0.83353  Biso   1.000  C
  C70      1.0000 0.33403  0.36497  0.16687  Biso   1.000  C
  C71      1.0000 0.63503  0.96907  0.16687  Biso   1.000  C
  C72      1.0000 0.03093  0.66597  0.16687  Biso   1.000  C
  H55      1.0000 0.99900  0.26050  0.49990  Biso   1.000  H
  H56      1.0000 0.73950  0.73850  0.49990  Biso   1.000  H
  H57      1.0000 0.26150  0.00100  0.49990  Biso   1.000  H
  H58      1.0000 0.66567  0.59383  0.83323  Biso   1.000  H
  H59      1.0000 0.40617  0.07183  0.83323  Biso   1.000  H
  H60      1.0000 0.92817  0.33433  0.83323  Biso   1.000  H
  H61      1.0000 0.33233  0.92717  0.16657  Biso   1.000  H
  H62      1.0000 0.07283  0.40517  0.16657  Biso   1.000  H
  H63      1.0000 0.59483  0.66767  0.16657  Biso   1.000  H
  H64      1.0000 0.00100  0.73950  0.50010  Biso   1.000  H
  H65      1.0000 0.26050  0.26150  0.50010  Biso   1.000  H
  H66      1.0000 0.73850  0.99900  0.50010  Biso   1.000  H
  H67      1.0000 0.66767  0.07283  0.83343  Biso   1.000  H
  H68      1.0000 0.92717  0.59483  0.83343  Biso   1.000  H
  H69      1.0000 0.40517  0.33233  0.83343  Biso   1.000  H
  H70      1.0000 0.33433  0.40617  0.16677  Biso   1.000  H
  H71      1.0000 0.59383  0.92817  0.16677  Biso   1.000  H
  H72      1.0000 0.07183  0.66567  0.16677  Biso   1.000  H
  C73      1.0000 0.30790  0.35680  0.46390  Biso   1.000  C
  C74      1.0000 0.64320  0.95110  0.46390  Biso   1.000  C
  C75      1.0000 0.04890  0.69210  0.46390  Biso   1.000  C
  C76      1.0000 0.97457  0.69013  0.79723  Biso   1.000  C
  C77      1.0000 0.30987  0.28443  0.79723  Biso   1.000  C
  C78      1.0000 0.71557  0.02543  0.79723  Biso   1.000  C
  C79      1.0000 0.64123  0.02347  0.13057  Biso   1.000  C
  C80      1.0000 0.97653  0.61777  0.13057  Biso   1.000  C
  C81      1.0000 0.38223  0.35877  0.13057  Biso   1.000  C
  C82      1.0000 0.69210  0.64320  0.53610  Biso   1.000  C
  C83      1.0000 0.35680  0.04890  0.53610  Biso   1.000  C
  C84      1.0000 0.95110  0.30790  0.53610  Biso   1.000  C
  C85      1.0000 0.35877  0.97653  0.86943  Biso   1.000  C
  C86      1.0000 0.02347  0.38223  0.86943  Biso   1.000  C
  C87      1.0000 0.61777  0.64123  0.86943  Biso   1.000  C
  C88      1.0000 0.02543  0.30987  0.20277  Biso   1.000  C
  C89      1.0000 0.69013  0.71557  0.20277  Biso   1.000  C
  C90      1.0000 0.28443  0.97457  0.20277  Biso   1.000  C
  C91      1.0000 0.36820  0.41670  0.46390  Biso   1.000  C
  C92      1.0000 0.58330  0.95150  0.46390  Biso   1.000  C
  C93      1.0000 0.04850  0.63180  0.46390  Biso   1.000  C
  C94      1.0000 0.03487  0.75003  0.79723  Biso   1.000  C
  C95      1.0000 0.24997  0.28483  0.79723  Biso   1.000  C
  C96      1.0000 0.71517  0.96513  0.79723  Biso   1.000  C
  C97      1.0000 0.70153  0.08337  0.13057  Biso   1.000  C
  C98      1.0000 0.91663  0.61817  0.13057  Biso   1.000  C
  C99      1.0000 0.38183  0.29847  0.13057  Biso   1.000  C
  C100     1.0000 0.63180  0.58330  0.53610  Biso   1.000  C
  C101     1.0000 0.41670  0.04850  0.53610  Biso   1.000  C
  C102     1.0000 0.95150  0.36820  0.53610  Biso   1.000  C
  C103     1.0000 0.29847  0.91663  0.86943  Biso   1.000  C
  C104     1.0000 0.08337  0.38183  0.86943  Biso   1.000  C
  C105     1.0000 0.61817  0.70153  0.86943  Biso   1.000  C
  C106     1.0000 0.96513  0.24997  0.20277  Biso   1.000  C
  C107     1.0000 0.75003  0.71517  0.20277  Biso   1.000  C
  C108     1.0000 0.28483  0.03487  0.20277  Biso   1.000  C
  H73      1.0000 0.37250  0.45390  0.43920  Biso   1.000  H
  H74      1.0000 0.54610  0.91860  0.43920  Biso   1.000  H
  H75      1.0000 0.08140  0.62750  0.43920  Biso   1.000  H
  H76      1.0000 0.03917  0.78723  0.77253  Biso   1.000  H
  H77      1.0000 0.21277  0.25193  0.77253  Biso   1.000  H
  H78      1.0000 0.74807  0.96083  0.77253  Biso   1.000  H
  H79      1.0000 0.70583  0.12057  0.10587  Biso   1.000  H
  H80      1.0000 0.87943  0.58527  0.10587  Biso   1.000  H
  H81      1.0000 0.41473  0.29417  0.10587  Biso   1.000  H
  H82      1.0000 0.62750  0.54610  0.56080  Biso   1.000  H
  H83      1.0000 0.45390  0.08140  0.56080  Biso   1.000  H
  H84      1.0000 0.91860  0.37250  0.56080  Biso   1.000  H
  H85      1.0000 0.29417  0.87943  0.89413  Biso   1.000  H
  H86      1.0000 0.12057  0.41473  0.89413  Biso   1.000  H
  H87      1.0000 0.58527  0.70583  0.89413  Biso   1.000  H
  H88      1.0000 0.96083  0.21277  0.22747  Biso   1.000  H
  H89      1.0000 0.78723  0.74807  0.22747  Biso   1.000  H
  H90      1.0000 0.25193  0.03917  0.22747  Biso   1.000  H
  C109     1.0000 0.42230  0.42220  0.50020  Biso   1.000  C
  C110     1.0000 0.57780  0.00010  0.50020  Biso   1.000  C
  C111     1.0000 0.99990  0.57770  0.50020  Biso   1.000  C
  C112     1.0000 0.08897  0.75553  0.83353  Biso   1.000  C
  C113     1.0000 0.24447  0.33343  0.83353  Biso   1.000  C
  C114     1.0000 0.66657  0.91103  0.83353  Biso   1.000  C
  C115     1.0000 0.75563  0.08887  0.16687  Biso   1.000  C
  C116     1.0000 0.91113  0.66677  0.16687  Biso   1.000  C
  C117     1.0000 0.33323  0.24437  0.16687  Biso   1.000  C
  C118     1.0000 0.57770  0.57780  0.49980  Biso   1.000  C
  C119     1.0000 0.42220  0.99990  0.49980  Biso   1.000  C
  C120     1.0000 0.00010  0.42230  0.49980  Biso   1.000  C
  C121     1.0000 0.24437  0.91113  0.83313  Biso   1.000  C
  C122     1.0000 0.08887  0.33323  0.83313  Biso   1.000  C
  C123     1.0000 0.66677  0.75563  0.83313  Biso   1.000  C
  C124     1.0000 0.91103  0.24447  0.16647  Biso   1.000  C
  C125     1.0000 0.75553  0.66657  0.16647  Biso   1.000  C
  C126     1.0000 0.33343  0.08897  0.16647  Biso   1.000  C
  C127     1.0000 0.04830  0.41610  0.46360  Biso   1.000  C
  C128     1.0000 0.58390  0.63220  0.46360  Biso   1.000  C
  C129     1.0000 0.36780  0.95170  0.46360  Biso   1.000  C
  C130     1.0000 0.71497  0.74943  0.79693  Biso   1.000  C
  C131     1.0000 0.25057  0.96553  0.79693  Biso   1.000  C
  C132     1.0000 0.03447  0.28503  0.79693  Biso   1.000  C
  C133     1.0000 0.38163  0.08277  0.13027  Biso   1.000  C
  C134     1.0000 0.91723  0.29887  0.13027  Biso   1.000  C
  C135     1.0000 0.70113  0.61837  0.13027  Biso   1.000  C
  C136     1.0000 0.95170  0.58390  0.53640  Biso   1.000  C
  C137     1.0000 0.41610  0.36780  0.53640  Biso   1.000  C
  C138     1.0000 0.63220  0.04830  0.53640  Biso   1.000  C
  C139     1.0000 0.61837  0.91723  0.86973  Biso   1.000  C
  C140     1.0000 0.08277  0.70113  0.86973  Biso   1.000  C
  C141     1.0000 0.29887  0.38163  0.86973  Biso   1.000  C
  C142     1.0000 0.28503  0.25057  0.20307  Biso   1.000  C
  C143     1.0000 0.74943  0.03447  0.20307  Biso   1.000  C
  C144     1.0000 0.96553  0.71497  0.20307  Biso   1.000  C
  H91      1.0000 0.08150  0.45300  0.43880  Biso   1.000  H
  H92      1.0000 0.54700  0.62850  0.43880  Biso   1.000  H
  H93      1.0000 0.37150  0.91850  0.43880  Biso   1.000  H
  H94      1.0000 0.74817  0.78633  0.77213  Biso   1.000  H
  H95      1.0000 0.21367  0.96183  0.77213  Biso   1.000  H
  H96      1.0000 0.03817  0.25183  0.77213  Biso   1.000  H
  H97      1.0000 0.41483  0.11967  0.10547  Biso   1.000  H
  H98      1.0000 0.88033  0.29517  0.10547  Biso   1.000  H
  H99      1.0000 0.70483  0.58517  0.10547  Biso   1.000  H
  H100     1.0000 0.91850  0.54700  0.56120  Biso   1.000  H
  H101     1.0000 0.45300  0.37150  0.56120  Biso   1.000  H
  H102     1.0000 0.62850  0.08150  0.56120  Biso   1.000  H
  H103     1.0000 0.58517  0.88033  0.89453  Biso   1.000  H
  H104     1.0000 0.11967  0.70483  0.89453  Biso   1.000  H
  H105     1.0000 0.29517  0.41483  0.89453  Biso   1.000  H
  H106     1.0000 0.25183  0.21367  0.22787  Biso   1.000  H
  H107     1.0000 0.78633  0.03817  0.22787  Biso   1.000  H
  H108     1.0000 0.96183  0.74817  0.22787  Biso   1.000  H
  N1       1.0000 0.47700  0.48500  0.49700  Biso   1.000  N
  N2       1.0000 0.51500  0.99200  0.49700  Biso   1.000  N
  N3       1.0000 0.00800  0.52300  0.49700  Biso   1.000  N
  N4       1.0000 0.14367  0.81833  0.83033  Biso   1.000  N
  N5       1.0000 0.18167  0.32533  0.83033  Biso   1.000  N
  N6       1.0000 0.67467  0.85633  0.83033  Biso   1.000  N
  N7       1.0000 0.81033  0.15167  0.16367  Biso   1.000  N
  N8       1.0000 0.84833  0.65867  0.16367  Biso   1.000  N
  N9       1.0000 0.34133  0.18967  0.16367  Biso   1.000  N
  N10      1.0000 0.52300  0.51500  0.50300  Biso   1.000  N
  N11      1.0000 0.48500  0.00800  0.50300  Biso   1.000  N
  N12      1.0000 0.99200  0.47700  0.50300  Biso   1.000  N
  N13      1.0000 0.18967  0.84833  0.83633  Biso   1.000  N
  N14      1.0000 0.15167  0.34133  0.83633  Biso   1.000  N
  N15      1.0000 0.65867  0.81033  0.83633  Biso   1.000  N
  N16      1.0000 0.85633  0.18167  0.16967  Biso   1.000  N
  N17      1.0000 0.81833  0.67467  0.16967  Biso   1.000  N
  N18      1.0000 0.32533  0.14367  0.16967  Biso   1.000  N
  H109     1.0000 0.49140  0.50360  0.53170  Biso   1.000  H
  H110     1.0000 0.49640  0.98780  0.53170  Biso   1.000  H
  H111     1.0000 0.01220  0.50860  0.53170  Biso   1.000  H
  H112     1.0000 0.15807  0.83693  0.86503  Biso   1.000  H
  H113     1.0000 0.16307  0.32113  0.86503  Biso   1.000  H
  H114     1.0000 0.67887  0.84193  0.86503  Biso   1.000  H
  H115     1.0000 0.82473  0.17027  0.19837  Biso   1.000  H
  H116     1.0000 0.82973  0.65447  0.19837  Biso   1.000  H
  H117     1.0000 0.34553  0.17527  0.19837  Biso   1.000  H
  H118     1.0000 0.50860  0.49640  0.46830  Biso   1.000  H
  H119     1.0000 0.50360  0.01220  0.46830  Biso   1.000  H
  H120     1.0000 0.98780  0.49140  0.46830  Biso   1.000  H
  H121     1.0000 0.17527  0.82973  0.80163  Biso   1.000  H
  H122     1.0000 0.17027  0.34553  0.80163  Biso   1.000  H
  H123     1.0000 0.65447  0.82473  0.80163  Biso   1.000  H
  H124     1.0000 0.84193  0.16307  0.13497  Biso   1.000  H
  H125     1.0000 0.83693  0.67887  0.13497  Biso   1.000  H
  H126     1.0000 0.32113  0.15807  0.13497  Biso   1.000  H
  C145     1.0000 0.48900  0.46700  0.52000  Biso   1.000  C
  C146     1.0000 0.53300  0.02200  0.52000  Biso   1.000  C
  C147     1.0000 0.97800  0.51100  0.52000  Biso   1.000  C
  C148     1.0000 0.15567  0.80033  0.85333  Biso   1.000  C
  C149     1.0000 0.19967  0.35533  0.85333  Biso   1.000  C
  C150     1.0000 0.64467  0.84433  0.85333  Biso   1.000  C
  C151     1.0000 0.82233  0.13367  0.18667  Biso   1.000  C
  C152     1.0000 0.86633  0.68867  0.18667  Biso   1.000  C
  C153     1.0000 0.31133  0.17767  0.18667  Biso   1.000  C
  C154     1.0000 0.51100  0.53300  0.48000  Biso   1.000  C
  C155     1.0000 0.46700  0.97800  0.48000  Biso   1.000  C
  C156     1.0000 0.02200  0.48900  0.48000  Biso   1.000  C
  C157     1.0000 0.17767  0.86633  0.81333  Biso   1.000  C
  C158     1.0000 0.13367  0.31133  0.81333  Biso   1.000  C
  C159     1.0000 0.68867  0.82233  0.81333  Biso   1.000  C
  C160     1.0000 0.84433  0.19967  0.14667  Biso   1.000  C
  C161     1.0000 0.80033  0.64467  0.14667  Biso   1.000  C
  C162     1.0000 0.35533  0.15567  0.14667  Biso   1.000  C
  O91      1.0000 0.17800  0.62000  0.61300  Biso   1.000  O
  O92      1.0000 0.38000  0.55800  0.61300  Biso   1.000  O
  O93      1.0000 0.44200  0.82200  0.61300  Biso   1.000  O
  O94      1.0000 0.84467  0.95333  0.94633  Biso   1.000  O
  O95      1.0000 0.04667  0.89133  0.94633  Biso   1.000  O
  O96      1.0000 0.10867  0.15533  0.94633  Biso   1.000  O
  O97      1.0000 0.51133  0.28667  0.27967  Biso   1.000  O
  O98      1.0000 0.71333  0.22467  0.27967  Biso   1.000  O
  O99      1.0000 0.77533  0.48867  0.27967  Biso   1.000  O
  O100     1.0000 0.82200  0.38000  0.38700  Biso   1.000  O
  O101     1.0000 0.62000  0.44200  0.38700  Biso   1.000  O
  O102     1.0000 0.55800  0.17800  0.38700  Biso   1.000  O
  O103     1.0000 0.48867  0.71333  0.72033  Biso   1.000  O
  O104     1.0000 0.28667  0.77533  0.72033  Biso   1.000  O
  O105     1.0000 0.22467  0.51133  0.72033  Biso   1.000  O
  O106     1.0000 0.15533  0.04667  0.05367  Biso   1.000  O
  O107     1.0000 0.95333  0.10867  0.05367  Biso   1.000  O
  O108     1.0000 0.89133  0.84467  0.05367  Biso   1.000  O
  O109     1.0000 0.20700  0.65300  0.44300  Biso   1.000  O
  O110     1.0000 0.34700  0.55400  0.44300  Biso   1.000  O
  O111     1.0000 0.44600  0.79300  0.44300  Biso   1.000  O
  O112     1.0000 0.87367  0.98633  0.77633  Biso   1.000  O
  O113     1.0000 0.01367  0.88733  0.77633  Biso   1.000  O
  O114     1.0000 0.11267  0.12633  0.77633  Biso   1.000  O
  O115     1.0000 0.54033  0.31967  0.10967  Biso   1.000  O
  O116     1.0000 0.68033  0.22067  0.10967  Biso   1.000  O
  O117     1.0000 0.77933  0.45967  0.10967  Biso   1.000  O
  O118     1.0000 0.79300  0.34700  0.55700  Biso   1.000  O
  O119     1.0000 0.65300  0.44600  0.55700  Biso   1.000  O
  O120     1.0000 0.55400  0.20700  0.55700  Biso   1.000  O
  O121     1.0000 0.45967  0.68033  0.89033  Biso   1.000  O
  O122     1.0000 0.31967  0.77933  0.89033  Biso   1.000  O
  O123     1.0000 0.22067  0.54033  0.89033  Biso   1.000  O
  O124     1.0000 0.12633  0.01367  0.22367  Biso   1.000  O
  O125     1.0000 0.98633  0.11267  0.22367  Biso   1.000  O
  O126     1.0000 0.88733  0.87367  0.22367  Biso   1.000  O
  O127     1.0000 0.07000  0.53600  0.35000  Biso   1.000  O
  O128     1.0000 0.46400  0.53400  0.35000  Biso   1.000  O
  O129     1.0000 0.46600  0.93000  0.35000  Biso   1.000  O
  O130     1.0000 0.73667  0.86933  0.68333  Biso   1.000  O
  O131     1.0000 0.13067  0.86733  0.68333  Biso   1.000  O
  O132     1.0000 0.13267  0.26333  0.68333  Biso   1.000  O
  O133     1.0000 0.40333  0.20267  0.01667  Biso   1.000  O
  O134     1.0000 0.79733  0.20067  0.01667  Biso   1.000  O
  O135     1.0000 0.79933  0.59667  0.01667  Biso   1.000  O
  O136     1.0000 0.93000  0.46400  0.65000  Biso   1.000  O
  O137     1.0000 0.53600  0.46600  0.65000  Biso   1.000  O
  O138     1.0000 0.53400  0.07000  0.65000  Biso   1.000  O
  O139     1.0000 0.59667  0.79733  0.98333  Biso   1.000  O
  O140     1.0000 0.20267  0.79933  0.98333  Biso   1.000  O
  O141     1.0000 0.20067  0.40333  0.98333  Biso   1.000  O
  O142     1.0000 0.26333  0.13067  0.31667  Biso   1.000  O
  O143     1.0000 0.86933  0.13267  0.31667  Biso   1.000  O
  O144     1.0000 0.86733  0.73667  0.31667  Biso   1.000  O
  O145     1.0000 0.93300  0.47100  0.31600  Biso   1.000  O
  O146     1.0000 0.52900  0.46200  0.31600  Biso   1.000  O
  O147     1.0000 0.53800  0.06700  0.31600  Biso   1.000  O
  O148     1.0000 0.59967  0.80433  0.64933  Biso   1.000  O
  O149     1.0000 0.19567  0.79533  0.64933  Biso   1.000  O
  O150     1.0000 0.20467  0.40033  0.64933  Biso   1.000  O
  O151     1.0000 0.26633  0.13767  0.98267  Biso   1.000  O
  O152     1.0000 0.86233  0.12867  0.98267  Biso   1.000  O
  O153     1.0000 0.87133  0.73367  0.98267  Biso   1.000  O
  O154     1.0000 0.06700  0.52900  0.68400  Biso   1.000  O
  O155     1.0000 0.47100  0.53800  0.68400  Biso   1.000  O
  O156     1.0000 0.46200  0.93300  0.68400  Biso   1.000  O
  O157     1.0000 0.73367  0.86233  0.01733  Biso   1.000  O
  O158     1.0000 0.13767  0.87133  0.01733  Biso   1.000  O
  O159     1.0000 0.12867  0.26633  0.01733  Biso   1.000  O
  O160     1.0000 0.40033  0.19567  0.35067  Biso   1.000  O
  O161     1.0000 0.80433  0.20467  0.35067  Biso   1.000  O
  O162     1.0000 0.79533  0.59967  0.35067  Biso   1.000  O
  O163     1.0000 0.20300  0.56400  0.57300  Biso   1.000  O
  O164     1.0000 0.43600  0.63900  0.57300  Biso   1.000  O
  O165     1.0000 0.36100  0.79700  0.57300  Biso   1.000  O
  O166     1.0000 0.86967  0.89733  0.90633  Biso   1.000  O
  O167     1.0000 0.10267  0.97233  0.90633  Biso   1.000  O
  O168     1.0000 0.02767  0.13033  0.90633  Biso   1.000  O
  O169     1.0000 0.53633  0.23067  0.23967  Biso   1.000  O
  O170     1.0000 0.76933  0.30567  0.23967  Biso   1.000  O
  O171     1.0000 0.69433  0.46367  0.23967  Biso   1.000  O
  O172     1.0000 0.79700  0.43600  0.42700  Biso   1.000  O
  O173     1.0000 0.56400  0.36100  0.42700  Biso   1.000  O
  O174     1.0000 0.63900  0.20300  0.42700  Biso   1.000  O
  O175     1.0000 0.46367  0.76933  0.76033  Biso   1.000  O
  O176     1.0000 0.23067  0.69433  0.76033  Biso   1.000  O
  O177     1.0000 0.30567  0.53633  0.76033  Biso   1.000  O
  O178     1.0000 0.13033  0.10267  0.09367  Biso   1.000  O
  O179     1.0000 0.89733  0.02767  0.09367  Biso   1.000  O
  O180     1.0000 0.97233  0.86967  0.09367  Biso   1.000  O
  O181     1.0000 0.20500  0.59100  0.40700  Biso   1.000  O
  O182     1.0000 0.40900  0.61400  0.40700  Biso   1.000  O
  O183     1.0000 0.38600  0.79500  0.40700  Biso   1.000  O
  O184     1.0000 0.87167  0.92433  0.74033  Biso   1.000  O
  O185     1.0000 0.07567  0.94733  0.74033  Biso   1.000  O
  O186     1.0000 0.05267  0.12833  0.74033  Biso   1.000  O
  O187     1.0000 0.53833  0.25767  0.07367  Biso   1.000  O
  O188     1.0000 0.74233  0.28067  0.07367  Biso   1.000  O
  O189     1.0000 0.71933  0.46167  0.07367  Biso   1.000  O
  O190     1.0000 0.79500  0.40900  0.59300  Biso   1.000  O
  O191     1.0000 0.59100  0.38600  0.59300  Biso   1.000  O
  O192     1.0000 0.61400  0.20500  0.59300  Biso   1.000  O
  O193     1.0000 0.46167  0.74233  0.92633  Biso   1.000  O
  O194     1.0000 0.25767  0.71933  0.92633  Biso   1.000  O
  O195     1.0000 0.28067  0.53833  0.92633  Biso   1.000  O
  O196     1.0000 0.12833  0.07567  0.25967  Biso   1.000  O
  O197     1.0000 0.92433  0.05267  0.25967  Biso   1.000  O
  O198     1.0000 0.94733  0.87167  0.25967  Biso   1.000  O
  C163     1.0000 0.14800  0.61400  0.54800  Biso   1.000  C
  C164     1.0000 0.38600  0.53400  0.54800  Biso   1.000  C
  C165     1.0000 0.46600  0.85200  0.54800  Biso   1.000  C
  C166     1.0000 0.81467  0.94733  0.88133  Biso   1.000  C
  C167     1.0000 0.05267  0.86733  0.88133  Biso   1.000  C
  C168     1.0000 0.13267  0.18533  0.88133  Biso   1.000  C
  C169     1.0000 0.48133  0.28067  0.21467  Biso   1.000  C
  C170     1.0000 0.71933  0.20067  0.21467  Biso   1.000  C
  C171     1.0000 0.79933  0.51867  0.21467  Biso   1.000  C
  C172     1.0000 0.85200  0.38600  0.45200  Biso   1.000  C
  C173     1.0000 0.61400  0.46600  0.45200  Biso   1.000  C
  C174     1.0000 0.53400  0.14800  0.45200  Biso   1.000  C
  C175     1.0000 0.51867  0.71933  0.78533  Biso   1.000  C
  C176     1.0000 0.28067  0.79933  0.78533  Biso   1.000  C
  C177     1.0000 0.20067  0.48133  0.78533  Biso   1.000  C
  C178     1.0000 0.18533  0.05267  0.11867  Biso   1.000  C
  C179     1.0000 0.94733  0.13267  0.11867  Biso   1.000  C
  C180     1.0000 0.86733  0.81467  0.11867  Biso   1.000  C
  H127     1.0000 0.14580  0.65430  0.53750  Biso   1.000  H
  H128     1.0000 0.34570  0.49150  0.53750  Biso   1.000  H
  H129     1.0000 0.50850  0.85420  0.53750  Biso   1.000  H
  H130     1.0000 0.81247  0.98763  0.87083  Biso   1.000  H
  H131     1.0000 0.01237  0.82483  0.87083  Biso   1.000  H
  H132     1.0000 0.17517  0.18753  0.87083  Biso   1.000  H
  H133     1.0000 0.47913  0.32097  0.20417  Biso   1.000  H
  H134     1.0000 0.67903  0.15817  0.20417  Biso   1.000  H
  H135     1.0000 0.84183  0.52087  0.20417  Biso   1.000  H
  H136     1.0000 0.85420  0.34570  0.46250  Biso   1.000  H
  H137     1.0000 0.65430  0.50850  0.46250  Biso   1.000  H
  H138     1.0000 0.49150  0.14580  0.46250  Biso   1.000  H
  H139     1.0000 0.52087  0.67903  0.79583  Biso   1.000  H
  H140     1.0000 0.32097  0.84183  0.79583  Biso   1.000  H
  H141     1.0000 0.15817  0.47913  0.79583  Biso   1.000  H
  H142     1.0000 0.18753  0.01237  0.12917  Biso   1.000  H
  H143     1.0000 0.98763  0.17517  0.12917  Biso   1.000  H
  H144     1.0000 0.82483  0.81247  0.12917  Biso   1.000  H
  H145     1.0000 0.10190  0.57520  0.54850  Biso   1.000  H
  H146     1.0000 0.42480  0.52670  0.54850  Biso   1.000  H
  H147     1.0000 0.47330  0.89810  0.54850  Biso   1.000  H
  H148     1.0000 0.76857  0.90853  0.88183  Biso   1.000  H
  H149     1.0000 0.09147  0.86003  0.88183  Biso   1.000  H
  H150     1.0000 0.13997  0.23143  0.88183  Biso   1.000  H
  H151     1.0000 0.43523  0.24187  0.21517  Biso   1.000  H
  H152     1.0000 0.75813  0.19337  0.21517  Biso   1.000  H
  H153     1.0000 0.80663  0.56477  0.21517  Biso   1.000  H
  H154     1.0000 0.89810  0.42480  0.45150  Biso   1.000  H
  H155     1.0000 0.57520  0.47330  0.45150  Biso   1.000  H
  H156     1.0000 0.52670  0.10190  0.45150  Biso   1.000  H
  H157     1.0000 0.56477  0.75813  0.78483  Biso   1.000  H
  H158     1.0000 0.24187  0.80663  0.78483  Biso   1.000  H
  H159     1.0000 0.19337  0.43523  0.78483  Biso   1.000  H
  H160     1.0000 0.23143  0.09147  0.11817  Biso   1.000  H
  H161     1.0000 0.90853  0.13997  0.11817  Biso   1.000  H
  H162     1.0000 0.86003  0.76857  0.11817  Biso   1.000  H
  C181     1.0000 0.18700  0.60300  0.49400  Biso   1.000  C
  C182     1.0000 0.39700  0.58400  0.49400  Biso   1.000  C
  C183     1.0000 0.41600  0.81300  0.49400  Biso   1.000  C
  C184     1.0000 0.85367  0.93633  0.82733  Biso   1.000  C
  C185     1.0000 0.06367  0.91733  0.82733  Biso   1.000  C
  C186     1.0000 0.08267  0.14633  0.82733  Biso   1.000  C
  C187     1.0000 0.52033  0.26967  0.16067  Biso   1.000  C
  C188     1.0000 0.73033  0.25067  0.16067  Biso   1.000  C
  C189     1.0000 0.74933  0.47967  0.16067  Biso   1.000  C
  C190     1.0000 0.81300  0.39700  0.50600  Biso   1.000  C
  C191     1.0000 0.60300  0.41600  0.50600  Biso   1.000  C
  C192     1.0000 0.58400  0.18700  0.50600  Biso   1.000  C
  C193     1.0000 0.47967  0.73033  0.83933  Biso   1.000  C
  C194     1.0000 0.26967  0.74933  0.83933  Biso   1.000  C
  C195     1.0000 0.25067  0.52033  0.83933  Biso   1.000  C
  C196     1.0000 0.14633  0.06367  0.17267  Biso   1.000  C
  C197     1.0000 0.93633  0.08267  0.17267  Biso   1.000  C
  C198     1.0000 0.91733  0.85367  0.17267  Biso   1.000  C
  H163     1.0000 0.22690  0.60460  0.51440  Biso   1.000  H
  H164     1.0000 0.39540  0.62230  0.51440  Biso   1.000  H
  H165     1.0000 0.37770  0.77310  0.51440  Biso   1.000  H
  H166     1.0000 0.89357  0.93793  0.84773  Biso   1.000  H
  H167     1.0000 0.06207  0.95563  0.84773  Biso   1.000  H
  H168     1.0000 0.04437  0.10643  0.84773  Biso   1.000  H
  H169     1.0000 0.56023  0.27127  0.18107  Biso   1.000  H
  H170     1.0000 0.72873  0.28897  0.18107  Biso   1.000  H
  H171     1.0000 0.71103  0.43977  0.18107  Biso   1.000  H
  H172     1.0000 0.77310  0.39540  0.48560  Biso   1.000  H
  H173     1.0000 0.60460  0.37770  0.48560  Biso   1.000  H
  H174     1.0000 0.62230  0.22690  0.48560  Biso   1.000  H
  H175     1.0000 0.43977  0.72873  0.81893  Biso   1.000  H
  H176     1.0000 0.27127  0.71103  0.81893  Biso   1.000  H
  H177     1.0000 0.28897  0.56023  0.81893  Biso   1.000  H
  H178     1.0000 0.10643  0.06207  0.15227  Biso   1.000  H
  H179     1.0000 0.93793  0.04437  0.15227  Biso   1.000  H
  H180     1.0000 0.95563  0.89357  0.15227  Biso   1.000  H
  H181     1.0000 0.15930  0.55840  0.47350  Biso   1.000  H
  H182     1.0000 0.44160  0.60090  0.47350  Biso   1.000  H
  H183     1.0000 0.39910  0.84070  0.47350  Biso   1.000  H
  H184     1.0000 0.82597  0.89173  0.80683  Biso   1.000  H
  H185     1.0000 0.10827  0.93423  0.80683  Biso   1.000  H
  H186     1.0000 0.06577  0.17403  0.80683  Biso   1.000  H
  H187     1.0000 0.49263  0.22507  0.14017  Biso   1.000  H
  H188     1.0000 0.77493  0.26757  0.14017  Biso   1.000  H
  H189     1.0000 0.73243  0.50737  0.14017  Biso   1.000  H
  H190     1.0000 0.84070  0.44160  0.52650  Biso   1.000  H
  H191     1.0000 0.55840  0.39910  0.52650  Biso   1.000  H
  H192     1.0000 0.60090  0.15930  0.52650  Biso   1.000  H
  H193     1.0000 0.50737  0.77493  0.85983  Biso   1.000  H
  H194     1.0000 0.22507  0.73243  0.85983  Biso   1.000  H
  H195     1.0000 0.26757  0.49263  0.85983  Biso   1.000  H
  H196     1.0000 0.17403  0.10827  0.19317  Biso   1.000  H
  H197     1.0000 0.89173  0.06577  0.19317  Biso   1.000  H
  H198     1.0000 0.93423  0.82597  0.19317  Biso   1.000  H
  C199     1.0000 0.17000  0.63700  0.38100  Biso   1.000  C
  C200     1.0000 0.36300  0.53300  0.38100  Biso   1.000  C
  C201     1.0000 0.46700  0.83000  0.38100  Biso   1.000  C
  C202     1.0000 0.83667  0.97033  0.71433  Biso   1.000  C
  C203     1.0000 0.02967  0.86633  0.71433  Biso   1.000  C
  C204     1.0000 0.13367  0.16333  0.71433  Biso   1.000  C
  C205     1.0000 0.50333  0.30367  0.04767  Biso   1.000  C
  C206     1.0000 0.69633  0.19967  0.04767  Biso   1.000  C
  C207     1.0000 0.80033  0.49667  0.04767  Biso   1.000  C
  C208     1.0000 0.83000  0.36300  0.61900  Biso   1.000  C
  C209     1.0000 0.63700  0.46700  0.61900  Biso   1.000  C
  C210     1.0000 0.53300  0.17000  0.61900  Biso   1.000  C
  C211     1.0000 0.49667  0.69633  0.95233  Biso   1.000  C
  C212     1.0000 0.30367  0.80033  0.95233  Biso   1.000  C
  C213     1.0000 0.19967  0.50333  0.95233  Biso   1.000  C
  C214     1.0000 0.16333  0.02967  0.28567  Biso   1.000  C
  C215     1.0000 0.97033  0.13367  0.28567  Biso   1.000  C
  C216     1.0000 0.86633  0.83667  0.28567  Biso   1.000  C
  H199     1.0000 0.20020  0.66380  0.34390  Biso   1.000  H
  H200     1.0000 0.33620  0.53640  0.34390  Biso   1.000  H
  H201     1.0000 0.46360  0.79980  0.34390  Biso   1.000  H
  H202     1.0000 0.86687  0.99713  0.67723  Biso   1.000  H
  H203     1.0000 0.00287  0.86973  0.67723  Biso   1.000  H
  H204     1.0000 0.13027  0.13313  0.67723  Biso   1.000  H
  H205     1.0000 0.53353  0.33047  0.01057  Biso   1.000  H
  H206     1.0000 0.66953  0.20307  0.01057  Biso   1.000  H
  H207     1.0000 0.79693  0.46647  0.01057  Biso   1.000  H
  H208     1.0000 0.79980  0.33620  0.65610  Biso   1.000  H
  H209     1.0000 0.66380  0.46360  0.65610  Biso   1.000  H
  H210     1.0000 0.53640  0.20020  0.65610  Biso   1.000  H
  H211     1.0000 0.46647  0.66953  0.98943  Biso   1.000  H
  H212     1.0000 0.33047  0.79693  0.98943  Biso   1.000  H
  H213     1.0000 0.20307  0.53353  0.98943  Biso   1.000  H
  H214     1.0000 0.13313  0.00287  0.32277  Biso   1.000  H
  H215     1.0000 0.99713  0.13027  0.32277  Biso   1.000  H
  H216     1.0000 0.86973  0.86687  0.32277  Biso   1.000  H
  H217     1.0000 0.13490  0.64900  0.38600  Biso   1.000  H
  H218     1.0000 0.35100  0.48590  0.38600  Biso   1.000  H
  H219     1.0000 0.51410  0.86510  0.38600  Biso   1.000  H
  H220     1.0000 0.80157  0.98233  0.71933  Biso   1.000  H
  H221     1.0000 0.01767  0.81923  0.71933  Biso   1.000  H
  H222     1.0000 0.18077  0.19843  0.71933  Biso   1.000  H
  H223     1.0000 0.46823  0.31567  0.05267  Biso   1.000  H
  H224     1.0000 0.68433  0.15257  0.05267  Biso   1.000  H
  H225     1.0000 0.84743  0.53177  0.05267  Biso   1.000  H
  H226     1.0000 0.86510  0.35100  0.61400  Biso   1.000  H
  H227     1.0000 0.64900  0.51410  0.61400  Biso   1.000  H
  H228     1.0000 0.48590  0.13490  0.61400  Biso   1.000  H
  H229     1.0000 0.53177  0.68433  0.94733  Biso   1.000  H
  H230     1.0000 0.31567  0.84743  0.94733  Biso   1.000  H
  H231     1.0000 0.15257  0.46823  0.94733  Biso   1.000  H
  H232     1.0000 0.19843  0.01767  0.28067  Biso   1.000  H
  H233     1.0000 0.98233  0.18077  0.28067  Biso   1.000  H
  H234     1.0000 0.81923  0.80157  0.28067  Biso   1.000  H
  C217     1.0000 0.13900  0.56500  0.36500  Biso   1.000  C
  C218     1.0000 0.43500  0.57400  0.36500  Biso   1.000  C
  C219     1.0000 0.42600  0.86100  0.36500  Biso   1.000  C
  C220     1.0000 0.80567  0.89833  0.69833  Biso   1.000  C
  C221     1.0000 0.10167  0.90733  0.69833  Biso   1.000  C
  C222     1.0000 0.09267  0.19433  0.69833  Biso   1.000  C
  C223     1.0000 0.47233  0.23167  0.03167  Biso   1.000  C
  C224     1.0000 0.76833  0.24067  0.03167  Biso   1.000  C
  C225     1.0000 0.75933  0.52767  0.03167  Biso   1.000  C
  C226     1.0000 0.86100  0.43500  0.63500  Biso   1.000  C
  C227     1.0000 0.56500  0.42600  0.63500  Biso   1.000  C
  C228     1.0000 0.57400  0.13900  0.63500  Biso   1.000  C
  C229     1.0000 0.52767  0.76833  0.96833  Biso   1.000  C
  C230     1.0000 0.23167  0.75933  0.96833  Biso   1.000  C
  C231     1.0000 0.24067  0.47233  0.96833  Biso   1.000  C
  C232     1.0000 0.19433  0.10167  0.30167  Biso   1.000  C
  C233     1.0000 0.89833  0.09267  0.30167  Biso   1.000  C
  C234     1.0000 0.90733  0.80567  0.30167  Biso   1.000  C
  H235     1.0000 0.16220  0.55930  0.32500  Biso   1.000  H
  H236     1.0000 0.44070  0.60290  0.32500  Biso   1.000  H
  H237     1.0000 0.39710  0.83780  0.32500  Biso   1.000  H
  H238     1.0000 0.82887  0.89263  0.65833  Biso   1.000  H
  H239     1.0000 0.10737  0.93623  0.65833  Biso   1.000  H
  H240     1.0000 0.06377  0.17113  0.65833  Biso   1.000  H
  H241     1.0000 0.49553  0.22597  0.99167  Biso   1.000  H
  H242     1.0000 0.77403  0.26957  0.99167  Biso   1.000  H
  H243     1.0000 0.73043  0.50447  0.99167  Biso   1.000  H
  H244     1.0000 0.83780  0.44070  0.67500  Biso   1.000  H
  H245     1.0000 0.55930  0.39710  0.67500  Biso   1.000  H
  H246     1.0000 0.60290  0.16220  0.67500  Biso   1.000  H
  H247     1.0000 0.50447  0.77403  0.00833  Biso   1.000  H
  H248     1.0000 0.22597  0.73043  0.00833  Biso   1.000  H
  H249     1.0000 0.26957  0.49553  0.00833  Biso   1.000  H
  H250     1.0000 0.17113  0.10737  0.34167  Biso   1.000  H
  H251     1.0000 0.89263  0.06377  0.34167  Biso   1.000  H
  H252     1.0000 0.93623  0.82887  0.34167  Biso   1.000  H
  H253     1.0000 0.14520  0.54110  0.40350  Biso   1.000  H
  H254     1.0000 0.45890  0.60410  0.40350  Biso   1.000  H
  H255     1.0000 0.39590  0.85480  0.40350  Biso   1.000  H
  H256     1.0000 0.81187  0.87443  0.73683  Biso   1.000  H
  H257     1.0000 0.12557  0.93743  0.73683  Biso   1.000  H
  H258     1.0000 0.06257  0.18813  0.73683  Biso   1.000  H
  H259     1.0000 0.47853  0.20777  0.07017  Biso   1.000  H
  H260     1.0000 0.79223  0.27077  0.07017  Biso   1.000  H
  H261     1.0000 0.72923  0.52147  0.07017  Biso   1.000  H
  H262     1.0000 0.85480  0.45890  0.59650  Biso   1.000  H
  H263     1.0000 0.54110  0.39590  0.59650  Biso   1.000  H
  H264     1.0000 0.60410  0.14520  0.59650  Biso   1.000  H
  H265     1.0000 0.52147  0.79223  0.92983  Biso   1.000  H
  H266     1.0000 0.20777  0.72923  0.92983  Biso   1.000  H
  H267     1.0000 0.27077  0.47853  0.92983  Biso   1.000  H
  H268     1.0000 0.18813  0.12557  0.26317  Biso   1.000  H
  H269     1.0000 0.87443  0.06257  0.26317  Biso   1.000  H
  H270     1.0000 0.93743  0.81187  0.26317  Biso   1.000  H
  C235     1.0000 0.04800  0.52100  0.28200  Biso   1.000  C
  C236     1.0000 0.47900  0.52700  0.28200  Biso   1.000  C
  C237     1.0000 0.47300  0.95200  0.28200  Biso   1.000  C
  C238     1.0000 0.71467  0.85433  0.61533  Biso   1.000  C
  C239     1.0000 0.14567  0.86033  0.61533  Biso   1.000  C
  C240     1.0000 0.13967  0.28533  0.61533  Biso   1.000  C
  C241     1.0000 0.38133  0.18767  0.94867  Biso   1.000  C
  C242     1.0000 0.81233  0.19367  0.94867  Biso   1.000  C
  C243     1.0000 0.80633  0.61867  0.94867  Biso   1.000  C
  C244     1.0000 0.95200  0.47900  0.71800  Biso   1.000  C
  C245     1.0000 0.52100  0.47300  0.71800  Biso   1.000  C
  C246     1.0000 0.52700  0.04800  0.71800  Biso   1.000  C
  C247     1.0000 0.61867  0.81233  0.05133  Biso   1.000  C
  C248     1.0000 0.18767  0.80633  0.05133  Biso   1.000  C
  C249     1.0000 0.19367  0.38133  0.05133  Biso   1.000  C
  C250     1.0000 0.28533  0.14567  0.38467  Biso   1.000  C
  C251     1.0000 0.85433  0.13967  0.38467  Biso   1.000  C
  C252     1.0000 0.86033  0.71467  0.38467  Biso   1.000  C
  H271     1.0000 0.04210  0.47700  0.26960  Biso   1.000  H
  H272     1.0000 0.52300  0.56510  0.26960  Biso   1.000  H
  H273     1.0000 0.43490  0.95790  0.26960  Biso   1.000  H
  H274     1.0000 0.70877  0.81033  0.60293  Biso   1.000  H
  H275     1.0000 0.18967  0.89843  0.60293  Biso   1.000  H
  H276     1.0000 0.10157  0.29123  0.60293  Biso   1.000  H
  H277     1.0000 0.37543  0.14367  0.93627  Biso   1.000  H
  H278     1.0000 0.85633  0.23177  0.93627  Biso   1.000  H
  H279     1.0000 0.76823  0.62457  0.93627  Biso   1.000  H
  H280     1.0000 0.95790  0.52300  0.73040  Biso   1.000  H
  H281     1.0000 0.47700  0.43490  0.73040  Biso   1.000  H
  H282     1.0000 0.56510  0.04210  0.73040  Biso   1.000  H
  H283     1.0000 0.62457  0.85633  0.06373  Biso   1.000  H
  H284     1.0000 0.14367  0.76823  0.06373  Biso   1.000  H
  H285     1.0000 0.23177  0.37543  0.06373  Biso   1.000  H
  H286     1.0000 0.29123  0.18967  0.39707  Biso   1.000  H
  H287     1.0000 0.81033  0.10157  0.39707  Biso   1.000  H
  H288     1.0000 0.89843  0.70877  0.39707  Biso   1.000  H
  H289     1.0000 0.08160  0.55510  0.25170  Biso   1.000  H
  H290     1.0000 0.44490  0.52650  0.25170  Biso   1.000  H
  H291     1.0000 0.47350  0.91840  0.25170  Biso   1.000  H
  H292     1.0000 0.74827  0.88843  0.58503  Biso   1.000  H
  H293     1.0000 0.11157  0.85983  0.58503  Biso   1.000  H
  H294     1.0000 0.14017  0.25173  0.58503  Biso   1.000  H
  H295     1.0000 0.41493  0.22177  0.91837  Biso   1.000  H
  H296     1.0000 0.77823  0.19317  0.91837  Biso   1.000  H
  H297     1.0000 0.80683  0.58507  0.91837  Biso   1.000  H
  H298     1.0000 0.91840  0.44490  0.74830  Biso   1.000  H
  H299     1.0000 0.55510  0.47350  0.74830  Biso   1.000  H
  H300     1.0000 0.52650  0.08160  0.74830  Biso   1.000  H
  H301     1.0000 0.58507  0.77823  0.08163  Biso   1.000  H
  H302     1.0000 0.22177  0.80683  0.08163  Biso   1.000  H
  H303     1.0000 0.19317  0.41493  0.08163  Biso   1.000  H
  H304     1.0000 0.25173  0.11157  0.41497  Biso   1.000  H
  H305     1.0000 0.88843  0.14017  0.41497  Biso   1.000  H
  H306     1.0000 0.85983  0.74827  0.41497  Biso   1.000  H
  C253     1.0000 0.98300  0.52000  0.27300  Biso   1.000  C
  C254     1.0000 0.48000  0.46300  0.27300  Biso   1.000  C
  C255     1.0000 0.53700  0.01700  0.27300  Biso   1.000  C
  C256     1.0000 0.64967  0.85333  0.60633  Biso   1.000  C
  C257     1.0000 0.14667  0.79633  0.60633  Biso   1.000  C
  C258     1.0000 0.20367  0.35033  0.60633  Biso   1.000  C
  C259     1.0000 0.31633  0.18667  0.93967  Biso   1.000  C
  C260     1.0000 0.81333  0.12967  0.93967  Biso   1.000  C
  C261     1.0000 0.87033  0.68367  0.93967  Biso   1.000  C
  C262     1.0000 0.01700  0.48000  0.72700  Biso   1.000  C
  C263     1.0000 0.52000  0.53700  0.72700  Biso   1.000  C
  C264     1.0000 0.46300  0.98300  0.72700  Biso   1.000  C
  C265     1.0000 0.68367  0.81333  0.06033  Biso   1.000  C
  C266     1.0000 0.18667  0.87033  0.06033  Biso   1.000  C
  C267     1.0000 0.12967  0.31633  0.06033  Biso   1.000  C
  C268     1.0000 0.35033  0.14667  0.39367  Biso   1.000  C
  C269     1.0000 0.85333  0.20367  0.39367  Biso   1.000  C
  C270     1.0000 0.79633  0.64967  0.39367  Biso   1.000  C
  H307     1.0000 0.98920  0.56410  0.28440  Biso   1.000  H
  H308     1.0000 0.43590  0.42510  0.28440  Biso   1.000  H
  H309     1.0000 0.57490  0.01080  0.28440  Biso   1.000  H
  H310     1.0000 0.65587  0.89743  0.61773  Biso   1.000  H
  H311     1.0000 0.10257  0.75843  0.61773  Biso   1.000  H
  H312     1.0000 0.24157  0.34413  0.61773  Biso   1.000  H
  H313     1.0000 0.32253  0.23077  0.95107  Biso   1.000  H
  H314     1.0000 0.76923  0.09177  0.95107  Biso   1.000  H
  H315     1.0000 0.90823  0.67747  0.95107  Biso   1.000  H
  H316     1.0000 0.01080  0.43590  0.71560  Biso   1.000  H
  H317     1.0000 0.56410  0.57490  0.71560  Biso   1.000  H
  H318     1.0000 0.42510  0.98920  0.71560  Biso   1.000  H
  H319     1.0000 0.67747  0.76923  0.04893  Biso   1.000  H
  H320     1.0000 0.23077  0.90823  0.04893  Biso   1.000  H
  H321     1.0000 0.09177  0.32253  0.04893  Biso   1.000  H
  H322     1.0000 0.34413  0.10257  0.38227  Biso   1.000  H
  H323     1.0000 0.89743  0.24157  0.38227  Biso   1.000  H
  H324     1.0000 0.75843  0.65587  0.38227  Biso   1.000  H
  H325     1.0000 0.96860  0.50950  0.22560  Biso   1.000  H
  H326     1.0000 0.49050  0.45910  0.22560  Biso   1.000  H
  H327     1.0000 0.54090  0.03140  0.22560  Biso   1.000  H
  H328     1.0000 0.63527  0.84283  0.55893  Biso   1.000  H
  H329     1.0000 0.15717  0.79243  0.55893  Biso   1.000  H
  H330     1.0000 0.20757  0.36473  0.55893  Biso   1.000  H
  H331     1.0000 0.30193  0.17617  0.89227  Biso   1.000  H
  H332     1.0000 0.82383  0.12577  0.89227  Biso   1.000  H
  H333     1.0000 0.87423  0.69807  0.89227  Biso   1.000  H
  H334     1.0000 0.03140  0.49050  0.77440  Biso   1.000  H
  H335     1.0000 0.50950  0.54090  0.77440  Biso   1.000  H
  H336     1.0000 0.45910  0.96860  0.77440  Biso   1.000  H
  H337     1.0000 0.69807  0.82383  0.10773  Biso   1.000  H
  H338     1.0000 0.17617  0.87423  0.10773  Biso   1.000  H
  H339     1.0000 0.12577  0.30193  0.10773  Biso   1.000  H
  H340     1.0000 0.36473  0.15717  0.44107  Biso   1.000  H
  H341     1.0000 0.84283  0.20757  0.44107  Biso   1.000  H
  H342     1.0000 0.79243  0.63527  0.44107  Biso   1.000  H
  C271     1.0000 0.88100  0.48200  0.34100  Biso   1.000  C
  C272     1.0000 0.51800  0.39900  0.34100  Biso   1.000  C
  C273     1.0000 0.60100  0.11900  0.34100  Biso   1.000  C
  C274     1.0000 0.54767  0.81533  0.67433  Biso   1.000  C
  C275     1.0000 0.18467  0.73233  0.67433  Biso   1.000  C
  C276     1.0000 0.26767  0.45233  0.67433  Biso   1.000  C
  C277     1.0000 0.21433  0.14867  0.00767  Biso   1.000  C
  C278     1.0000 0.85133  0.06567  0.00767  Biso   1.000  C
  C279     1.0000 0.93433  0.78567  0.00767  Biso   1.000  C
  C280     1.0000 0.11900  0.51800  0.65900  Biso   1.000  C
  C281     1.0000 0.48200  0.60100  0.65900  Biso   1.000  C
  C282     1.0000 0.39900  0.88100  0.65900  Biso   1.000  C
  C283     1.0000 0.78567  0.85133  0.99233  Biso   1.000  C
  C284     1.0000 0.14867  0.93433  0.99233  Biso   1.000  C
  C285     1.0000 0.06567  0.21433  0.99233  Biso   1.000  C
  C286     1.0000 0.45233  0.18467  0.32567  Biso   1.000  C
  C287     1.0000 0.81533  0.26767  0.32567  Biso   1.000  C
  C288     1.0000 0.73233  0.54767  0.32567  Biso   1.000  C
  H343     1.0000 0.86320  0.49600  0.30250  Biso   1.000  H
  H344     1.0000 0.50400  0.36720  0.30250  Biso   1.000  H
  H345     1.0000 0.63280  0.13680  0.30250  Biso   1.000  H
  H346     1.0000 0.52987  0.82933  0.63583  Biso   1.000  H
  H347     1.0000 0.17067  0.70053  0.63583  Biso   1.000  H
  H348     1.0000 0.29947  0.47013  0.63583  Biso   1.000  H
  H349     1.0000 0.19653  0.16267  0.96917  Biso   1.000  H
  H350     1.0000 0.83733  0.03387  0.96917  Biso   1.000  H
  H351     1.0000 0.96613  0.80347  0.96917  Biso   1.000  H
  H352     1.0000 0.13680  0.50400  0.69750  Biso   1.000  H
  H353     1.0000 0.49600  0.63280  0.69750  Biso   1.000  H
  H354     1.0000 0.36720  0.86320  0.69750  Biso   1.000  H
  H355     1.0000 0.80347  0.83733  0.03083  Biso   1.000  H
  H356     1.0000 0.16267  0.96613  0.03083  Biso   1.000  H
  H357     1.0000 0.03387  0.19653  0.03083  Biso   1.000  H
  H358     1.0000 0.47013  0.17067  0.36417  Biso   1.000  H
  H359     1.0000 0.82933  0.29947  0.36417  Biso   1.000  H
  H360     1.0000 0.70053  0.52987  0.36417  Biso   1.000  H
  H361     1.0000 0.89990  0.51830  0.37450  Biso   1.000  H
  H362     1.0000 0.48170  0.38160  0.37450  Biso   1.000  H
  H363     1.0000 0.61840  0.10010  0.37450  Biso   1.000  H
  H364     1.0000 0.56657  0.85163  0.70783  Biso   1.000  H
  H365     1.0000 0.14837  0.71493  0.70783  Biso   1.000  H
  H366     1.0000 0.28507  0.43343  0.70783  Biso   1.000  H
  H367     1.0000 0.23323  0.18497  0.04117  Biso   1.000  H
  H368     1.0000 0.81503  0.04827  0.04117  Biso   1.000  H
  H369     1.0000 0.95173  0.76677  0.04117  Biso   1.000  H
  H370     1.0000 0.10010  0.48170  0.62550  Biso   1.000  H
  H371     1.0000 0.51830  0.61840  0.62550  Biso   1.000  H
  H372     1.0000 0.38160  0.89990  0.62550  Biso   1.000  H
  H373     1.0000 0.76677  0.81503  0.95883  Biso   1.000  H
  H374     1.0000 0.18497  0.95173  0.95883  Biso   1.000  H
  H375     1.0000 0.04827  0.23323  0.95883  Biso   1.000  H
  H376     1.0000 0.43343  0.14837  0.29217  Biso   1.000  H
  H377     1.0000 0.85163  0.28507  0.29217  Biso   1.000  H
  H378     1.0000 0.71493  0.56657  0.29217  Biso   1.000  H
  C289     1.0000 0.17400  0.58000  0.62800  Biso   1.000  C
  C290     1.0000 0.42000  0.59400  0.62800  Biso   1.000  C
  C291     1.0000 0.40600  0.82600  0.62800  Biso   1.000  C
  C292     1.0000 0.84067  0.91333  0.96133  Biso   1.000  C
  C293     1.0000 0.08667  0.92733  0.96133  Biso   1.000  C
  C294     1.0000 0.07267  0.15933  0.96133  Biso   1.000  C
  C295     1.0000 0.50733  0.24667  0.29467  Biso   1.000  C
  C296     1.0000 0.75333  0.26067  0.29467  Biso   1.000  C
  C297     1.0000 0.73933  0.49267  0.29467  Biso   1.000  C
  C298     1.0000 0.82600  0.42000  0.37200  Biso   1.000  C
  C299     1.0000 0.58000  0.40600  0.37200  Biso   1.000  C
  C300     1.0000 0.59400  0.17400  0.37200  Biso   1.000  C
  C301     1.0000 0.49267  0.75333  0.70533  Biso   1.000  C
  C302     1.0000 0.24667  0.73933  0.70533  Biso   1.000  C
  C303     1.0000 0.26067  0.50733  0.70533  Biso   1.000  C
  C304     1.0000 0.15933  0.08667  0.03867  Biso   1.000  C
  C305     1.0000 0.91333  0.07267  0.03867  Biso   1.000  C
  C306     1.0000 0.92733  0.84067  0.03867  Biso   1.000  C
  H379     1.0000 0.20810  0.60540  0.66270  Biso   1.000  H
  H380     1.0000 0.39460  0.60270  0.66270  Biso   1.000  H
  H381     1.0000 0.39730  0.79190  0.66270  Biso   1.000  H
  H382     1.0000 0.87477  0.93873  0.99603  Biso   1.000  H
  H383     1.0000 0.06127  0.93603  0.99603  Biso   1.000  H
  H384     1.0000 0.06397  0.12523  0.99603  Biso   1.000  H
  H385     1.0000 0.54143  0.27207  0.32937  Biso   1.000  H
  H386     1.0000 0.72793  0.26937  0.32937  Biso   1.000  H
  H387     1.0000 0.73063  0.45857  0.32937  Biso   1.000  H
  H388     1.0000 0.79190  0.39460  0.33730  Biso   1.000  H
  H389     1.0000 0.60540  0.39730  0.33730  Biso   1.000  H
  H390     1.0000 0.60270  0.20810  0.33730  Biso   1.000  H
  H391     1.0000 0.45857  0.72793  0.67063  Biso   1.000  H
  H392     1.0000 0.27207  0.73063  0.67063  Biso   1.000  H
  H393     1.0000 0.26937  0.54143  0.67063  Biso   1.000  H
  H394     1.0000 0.12523  0.06127  0.00397  Biso   1.000  H
  H395     1.0000 0.93873  0.06397  0.00397  Biso   1.000  H
  H396     1.0000 0.93603  0.87477  0.00397  Biso   1.000  H
  H397     1.0000 0.15580  0.60790  0.61120  Biso   1.000  H
  H398     1.0000 0.39210  0.54790  0.61120  Biso   1.000  H
  H399     1.0000 0.45210  0.84420  0.61120  Biso   1.000  H
  H400     1.0000 0.82247  0.94123  0.94453  Biso   1.000  H
  H401     1.0000 0.05877  0.88123  0.94453  Biso   1.000  H
  H402     1.0000 0.11877  0.17753  0.94453  Biso   1.000  H
  H403     1.0000 0.48913  0.27457  0.27787  Biso   1.000  H
  H404     1.0000 0.72543  0.21457  0.27787  Biso   1.000  H
  H405     1.0000 0.78543  0.51087  0.27787  Biso   1.000  H
  H406     1.0000 0.84420  0.39210  0.38880  Biso   1.000  H
  H407     1.0000 0.60790  0.45210  0.38880  Biso   1.000  H
  H408     1.0000 0.54790  0.15580  0.38880  Biso   1.000  H
  H409     1.0000 0.51087  0.72543  0.72213  Biso   1.000  H
  H410     1.0000 0.27457  0.78543  0.72213  Biso   1.000  H
  H411     1.0000 0.21457  0.48913  0.72213  Biso   1.000  H
  H412     1.0000 0.17753  0.05877  0.05547  Biso   1.000  H
  H413     1.0000 0.94123  0.11877  0.05547  Biso   1.000  H
  H414     1.0000 0.88123  0.82247  0.05547  Biso   1.000  H
  C307     1.0000 0.16600  0.53400  0.51400  Biso   1.000  C
  C308     1.0000 0.46600  0.63200  0.51400  Biso   1.000  C
  C309     1.0000 0.36800  0.83400  0.51400  Biso   1.000  C
  C310     1.0000 0.83267  0.86733  0.84733  Biso   1.000  C
  C311     1.0000 0.13267  0.96533  0.84733  Biso   1.000  C
  C312     1.0000 0.03467  0.16733  0.84733  Biso   1.000  C
  C313     1.0000 0.49933  0.20067  0.18067  Biso   1.000  C
  C314     1.0000 0.79933  0.29867  0.18067  Biso   1.000  C
  C315     1.0000 0.70133  0.50067  0.18067  Biso   1.000  C
  C316     1.0000 0.83400  0.46600  0.48600  Biso   1.000  C
  C317     1.0000 0.53400  0.36800  0.48600  Biso   1.000  C
  C318     1.0000 0.63200  0.16600  0.48600  Biso   1.000  C
  C319     1.0000 0.50067  0.79933  0.81933  Biso   1.000  C
  C320     1.0000 0.20067  0.70133  0.81933  Biso   1.000  C
  C321     1.0000 0.29867  0.49933  0.81933  Biso   1.000  C
  C322     1.0000 0.16733  0.13267  0.15267  Biso   1.000  C
  C323     1.0000 0.86733  0.03467  0.15267  Biso   1.000  C
  C324     1.0000 0.96533  0.83267  0.15267  Biso   1.000  C
  H415     1.0000 0.18350  0.50860  0.49070  Biso   1.000  H
  H416     1.0000 0.49140  0.67490  0.49070  Biso   1.000  H
  H417     1.0000 0.32510  0.81650  0.49070  Biso   1.000  H
  H418     1.0000 0.85017  0.84193  0.82403  Biso   1.000  H
  H419     1.0000 0.15807  0.00823  0.82403  Biso   1.000  H
  H420     1.0000 0.99177  0.14983  0.82403  Biso   1.000  H
  H421     1.0000 0.51683  0.17527  0.15737  Biso   1.000  H
  H422     1.0000 0.82473  0.34157  0.15737  Biso   1.000  H
  H423     1.0000 0.65843  0.48317  0.15737  Biso   1.000  H
  H424     1.0000 0.81650  0.49140  0.50930  Biso   1.000  H
  H425     1.0000 0.50860  0.32510  0.50930  Biso   1.000  H
  H426     1.0000 0.67490  0.18350  0.50930  Biso   1.000  H
  H427     1.0000 0.48317  0.82473  0.84263  Biso   1.000  H
  H428     1.0000 0.17527  0.65843  0.84263  Biso   1.000  H
  H429     1.0000 0.34157  0.51683  0.84263  Biso   1.000  H
  H430     1.0000 0.14983  0.15807  0.17597  Biso   1.000  H
  H431     1.0000 0.84193  0.99177  0.17597  Biso   1.000  H
  H432     1.0000 0.00823  0.85017  0.17597  Biso   1.000  H
  H433     1.0000 0.11870  0.50320  0.52640  Biso   1.000  H
  H434     1.0000 0.49680  0.61550  0.52640  Biso   1.000  H
  H435     1.0000 0.38450  0.88130  0.52640  Biso   1.000  H
  H436     1.0000 0.78537  0.83653  0.85973  Biso   1.000  H
  H437     1.0000 0.16347  0.94883  0.85973  Biso   1.000  H
  H438     1.0000 0.05117  0.21463  0.85973  Biso   1.000  H
  H439     1.0000 0.45203  0.16987  0.19307  Biso   1.000  H
  H440     1.0000 0.83013  0.28217  0.19307  Biso   1.000  H
  H441     1.0000 0.71783  0.54797  0.19307  Biso   1.000  H
  H442     1.0000 0.88130  0.49680  0.47360  Biso   1.000  H
  H443     1.0000 0.50320  0.38450  0.47360  Biso   1.000  H
  H444     1.0000 0.61550  0.11870  0.47360  Biso   1.000  H
  H445     1.0000 0.54797  0.83013  0.80693  Biso   1.000  H
  H446     1.0000 0.16987  0.71783  0.80693  Biso   1.000  H
  H447     1.0000 0.28217  0.45203  0.80693  Biso   1.000  H
  H448     1.0000 0.21463  0.16347  0.14027  Biso   1.000  H
  H449     1.0000 0.83653  0.05117  0.14027  Biso   1.000  H
  H450     1.0000 0.94883  0.78537  0.14027  Biso   1.000  H
  C325     1.0000 0.16800  0.58600  0.46700  Biso   1.000  C
  C326     1.0000 0.41400  0.58200  0.46700  Biso   1.000  C
  C327     1.0000 0.41800  0.83200  0.46700  Biso   1.000  C
  C328     1.0000 0.83467  0.91933  0.80033  Biso   1.000  C
  C329     1.0000 0.08067  0.91533  0.80033  Biso   1.000  C
  C330     1.0000 0.08467  0.16533  0.80033  Biso   1.000  C
  C331     1.0000 0.50133  0.25267  0.13367  Biso   1.000  C
  C332     1.0000 0.74733  0.24867  0.13367  Biso   1.000  C
  C333     1.0000 0.75133  0.49867  0.13367  Biso   1.000  C
  C334     1.0000 0.83200  0.41400  0.53300  Biso   1.000  C
  C335     1.0000 0.58600  0.41800  0.53300  Biso   1.000  C
  C336     1.0000 0.58200  0.16800  0.53300  Biso   1.000  C
  C337     1.0000 0.49867  0.74733  0.86633  Biso   1.000  C
  C338     1.0000 0.25267  0.75133  0.86633  Biso   1.000  C
  C339     1.0000 0.24867  0.50133  0.86633  Biso   1.000  C
  C340     1.0000 0.16533  0.08067  0.19967  Biso   1.000  C
  C341     1.0000 0.91933  0.08467  0.19967  Biso   1.000  C
  C342     1.0000 0.91533  0.83467  0.19967  Biso   1.000  C
  H451     1.0000 0.18990  0.63010  0.49010  Biso   1.000  H
  H452     1.0000 0.36990  0.55980  0.49010  Biso   1.000  H
  H453     1.0000 0.44020  0.81010  0.49010  Biso   1.000  H
  H454     1.0000 0.85657  0.96343  0.82343  Biso   1.000  H
  H455     1.0000 0.03657  0.89313  0.82343  Biso   1.000  H
  H456     1.0000 0.10687  0.14343  0.82343  Biso   1.000  H
  H457     1.0000 0.52323  0.29677  0.15677  Biso   1.000  H
  H458     1.0000 0.70323  0.22647  0.15677  Biso   1.000  H
  H459     1.0000 0.77353  0.47677  0.15677  Biso   1.000  H
  H460     1.0000 0.81010  0.36990  0.50990  Biso   1.000  H
  H461     1.0000 0.63010  0.44020  0.50990  Biso   1.000  H
  H462     1.0000 0.55980  0.18990  0.50990  Biso   1.000  H
  H463     1.0000 0.47677  0.70323  0.84323  Biso   1.000  H
  H464     1.0000 0.29677  0.77353  0.84323  Biso   1.000  H
  H465     1.0000 0.22647  0.52323  0.84323  Biso   1.000  H
  H466     1.0000 0.14343  0.03657  0.17657  Biso   1.000  H
  H467     1.0000 0.96343  0.10687  0.17657  Biso   1.000  H
  H468     1.0000 0.89313  0.85657  0.17657  Biso   1.000  H
  H469     1.0000 0.12260  0.57480  0.45420  Biso   1.000  H
  H470     1.0000 0.42520  0.54780  0.45420  Biso   1.000  H
  H471     1.0000 0.45220  0.87740  0.45420  Biso   1.000  H
  H472     1.0000 0.78927  0.90813  0.78753  Biso   1.000  H
  H473     1.0000 0.09187  0.88113  0.78753  Biso   1.000  H
  H474     1.0000 0.11887  0.21073  0.78753  Biso   1.000  H
  H475     1.0000 0.45593  0.24147  0.12087  Biso   1.000  H
  H476     1.0000 0.75853  0.21447  0.12087  Biso   1.000  H
  H477     1.0000 0.78553  0.54407  0.12087  Biso   1.000  H
  H478     1.0000 0.87740  0.42520  0.54580  Biso   1.000  H
  H479     1.0000 0.57480  0.45220  0.54580  Biso   1.000  H
  H480     1.0000 0.54780  0.12260  0.54580  Biso   1.000  H
  H481     1.0000 0.54407  0.75853  0.87913  Biso   1.000  H
  H482     1.0000 0.24147  0.78553  0.87913  Biso   1.000  H
  H483     1.0000 0.21447  0.45593  0.87913  Biso   1.000  H
  H484     1.0000 0.21073  0.09187  0.21247  Biso   1.000  H
  H485     1.0000 0.90813  0.11887  0.21247  Biso   1.000  H
  H486     1.0000 0.88113  0.78927  0.21247  Biso   1.000  H
  C343     1.0000 0.17300  0.54100  0.35700  Biso   1.000  C
  C344     1.0000 0.45900  0.63200  0.35700  Biso   1.000  C
  C345     1.0000 0.36800  0.82700  0.35700  Biso   1.000  C
  C346     1.0000 0.83967  0.87433  0.69033  Biso   1.000  C
  C347     1.0000 0.12567  0.96533  0.69033  Biso   1.000  C
  C348     1.0000 0.03467  0.16033  0.69033  Biso   1.000  C
  C349     1.0000 0.50633  0.20767  0.02367  Biso   1.000  C
  C350     1.0000 0.79233  0.29867  0.02367  Biso   1.000  C
  C351     1.0000 0.70133  0.49367  0.02367  Biso   1.000  C
  C352     1.0000 0.82700  0.45900  0.64300  Biso   1.000  C
  C353     1.0000 0.54100  0.36800  0.64300  Biso   1.000  C
  C354     1.0000 0.63200  0.17300  0.64300  Biso   1.000  C
  C355     1.0000 0.49367  0.79233  0.97633  Biso   1.000  C
  C356     1.0000 0.20767  0.70133  0.97633  Biso   1.000  C
  C357     1.0000 0.29867  0.50633  0.97633  Biso   1.000  C
  C358     1.0000 0.16033  0.12567  0.30967  Biso   1.000  C
  C359     1.0000 0.87433  0.03467  0.30967  Biso   1.000  C
  C360     1.0000 0.96533  0.83967  0.30967  Biso   1.000  C
  H487     1.0000 0.20740  0.53750  0.32940  Biso   1.000  H
  H488     1.0000 0.46250  0.66990  0.32940  Biso   1.000  H
  H489     1.0000 0.33010  0.79260  0.32940  Biso   1.000  H
  H490     1.0000 0.87407  0.87083  0.66273  Biso   1.000  H
  H491     1.0000 0.12917  0.00323  0.66273  Biso   1.000  H
  H492     1.0000 0.99677  0.12593  0.66273  Biso   1.000  H
  H493     1.0000 0.54073  0.20417  0.99607  Biso   1.000  H
  H494     1.0000 0.79583  0.33657  0.99607  Biso   1.000  H
  H495     1.0000 0.66343  0.45927  0.99607  Biso   1.000  H
  H496     1.0000 0.79260  0.46250  0.67060  Biso   1.000  H
  H497     1.0000 0.53750  0.33010  0.67060  Biso   1.000  H
  H498     1.0000 0.66990  0.20740  0.67060  Biso   1.000  H
  H499     1.0000 0.45927  0.79583  0.00393  Biso   1.000  H
  H500     1.0000 0.20417  0.66343  0.00393  Biso   1.000  H
  H501     1.0000 0.33657  0.54073  0.00393  Biso   1.000  H
  H502     1.0000 0.12593  0.12917  0.33727  Biso   1.000  H
  H503     1.0000 0.87083  0.99677  0.33727  Biso   1.000  H
  H504     1.0000 0.00323  0.87407  0.33727  Biso   1.000  H
  H505     1.0000 0.14450  0.49720  0.37850  Biso   1.000  H
  H506     1.0000 0.50280  0.64730  0.37850  Biso   1.000  H
  H507     1.0000 0.35270  0.85550  0.37850  Biso   1.000  H
  H508     1.0000 0.81117  0.83053  0.71183  Biso   1.000  H
  H509     1.0000 0.16947  0.98063  0.71183  Biso   1.000  H
  H510     1.0000 0.01937  0.18883  0.71183  Biso   1.000  H
  H511     1.0000 0.47783  0.16387  0.04517  Biso   1.000  H
  H512     1.0000 0.83613  0.31397  0.04517  Biso   1.000  H
  H513     1.0000 0.68603  0.52217  0.04517  Biso   1.000  H
  H514     1.0000 0.85550  0.50280  0.62150  Biso   1.000  H
  H515     1.0000 0.49720  0.35270  0.62150  Biso   1.000  H
  H516     1.0000 0.64730  0.14450  0.62150  Biso   1.000  H
  H517     1.0000 0.52217  0.83613  0.95483  Biso   1.000  H
  H518     1.0000 0.16387  0.68603  0.95483  Biso   1.000  H
  H519     1.0000 0.31397  0.47783  0.95483  Biso   1.000  H
  H520     1.0000 0.18883  0.16947  0.28817  Biso   1.000  H
  H521     1.0000 0.83053  0.01937  0.28817  Biso   1.000  H
  H522     1.0000 0.98063  0.81117  0.28817  Biso   1.000  H
  C361     1.0000 0.13200  0.55700  0.31100  Biso   1.000  C
  C362     1.0000 0.44300  0.57500  0.31100  Biso   1.000  C
  C363     1.0000 0.42500  0.86800  0.31100  Biso   1.000  C
  C364     1.0000 0.79867  0.89033  0.64433  Biso   1.000  C
  C365     1.0000 0.10967  0.90833  0.64433  Biso   1.000  C
  C366     1.0000 0.09167  0.20133  0.64433  Biso   1.000  C
  C367     1.0000 0.46533  0.22367  0.97767  Biso   1.000  C
  C368     1.0000 0.77633  0.24167  0.97767  Biso   1.000  C
  C369     1.0000 0.75833  0.53467  0.97767  Biso   1.000  C
  C370     1.0000 0.86800  0.44300  0.68900  Biso   1.000  C
  C371     1.0000 0.55700  0.42500  0.68900  Biso   1.000  C
  C372     1.0000 0.57500  0.13200  0.68900  Biso   1.000  C
  C373     1.0000 0.53467  0.77633  0.02233  Biso   1.000  C
  C374     1.0000 0.22367  0.75833  0.02233  Biso   1.000  C
  C375     1.0000 0.24167  0.46533  0.02233  Biso   1.000  C
  C376     1.0000 0.20133  0.10967  0.35567  Biso   1.000  C
  C377     1.0000 0.89033  0.09167  0.35567  Biso   1.000  C
  C378     1.0000 0.90833  0.79867  0.35567  Biso   1.000  C
  H523     1.0000 0.15420  0.60630  0.30450  Biso   1.000  H
  H524     1.0000 0.39370  0.54790  0.30450  Biso   1.000  H
  H525     1.0000 0.45210  0.84580  0.30450  Biso   1.000  H
  H526     1.0000 0.82087  0.93963  0.63783  Biso   1.000  H
  H527     1.0000 0.06037  0.88123  0.63783  Biso   1.000  H
  H528     1.0000 0.11877  0.17913  0.63783  Biso   1.000  H
  H529     1.0000 0.48753  0.27297  0.97117  Biso   1.000  H
  H530     1.0000 0.72703  0.21457  0.97117  Biso   1.000  H
  H531     1.0000 0.78543  0.51247  0.97117  Biso   1.000  H
  H532     1.0000 0.84580  0.39370  0.69550  Biso   1.000  H
  H533     1.0000 0.60630  0.45210  0.69550  Biso   1.000  H
  H534     1.0000 0.54790  0.15420  0.69550  Biso   1.000  H
  H535     1.0000 0.51247  0.72703  0.02883  Biso   1.000  H
  H536     1.0000 0.27297  0.78543  0.02883  Biso   1.000  H
  H537     1.0000 0.21457  0.48753  0.02883  Biso   1.000  H
  H538     1.0000 0.17913  0.06037  0.36217  Biso   1.000  H
  H539     1.0000 0.93963  0.11877  0.36217  Biso   1.000  H
  H540     1.0000 0.88123  0.82087  0.36217  Biso   1.000  H
  H541     1.0000 0.12730  0.53630  0.26620  Biso   1.000  H
  H542     1.0000 0.46370  0.59100  0.26620  Biso   1.000  H
  H543     1.0000 0.40900  0.87270  0.26620  Biso   1.000  H
  H544     1.0000 0.79397  0.86963  0.59953  Biso   1.000  H
  H545     1.0000 0.13037  0.92433  0.59953  Biso   1.000  H
  H546     1.0000 0.07567  0.20603  0.59953  Biso   1.000  H
  H547     1.0000 0.46063  0.20297  0.93287  Biso   1.000  H
  H548     1.0000 0.79703  0.25767  0.93287  Biso   1.000  H
  H549     1.0000 0.74233  0.53937  0.93287  Biso   1.000  H
  H550     1.0000 0.87270  0.46370  0.73380  Biso   1.000  H
  H551     1.0000 0.53630  0.40900  0.73380  Biso   1.000  H
  H552     1.0000 0.59100  0.12730  0.73380  Biso   1.000  H
  H553     1.0000 0.53937  0.79703  0.06713  Biso   1.000  H
  H554     1.0000 0.20297  0.74233  0.06713  Biso   1.000  H
  H555     1.0000 0.25767  0.46063  0.06713  Biso   1.000  H
  H556     1.0000 0.20603  0.13037  0.40047  Biso   1.000  H
  H557     1.0000 0.86963  0.07567  0.40047  Biso   1.000  H
  H558     1.0000 0.92433  0.79397  0.40047  Biso   1.000  H
  C379     1.0000 0.06400  0.53300  0.34100  Biso   1.000  C
  C380     1.0000 0.46700  0.53100  0.34100  Biso   1.000  C
  C381     1.0000 0.46900  0.93600  0.34100  Biso   1.000  C
  C382     1.0000 0.73067  0.86633  0.67433  Biso   1.000  C
  C383     1.0000 0.13367  0.86433  0.67433  Biso   1.000  C
  C384     1.0000 0.13567  0.26933  0.67433  Biso   1.000  C
  C385     1.0000 0.39733  0.19967  0.00767  Biso   1.000  C
  C386     1.0000 0.80033  0.19767  0.00767  Biso   1.000  C
  C387     1.0000 0.80233  0.60267  0.00767  Biso   1.000  C
  C388     1.0000 0.93600  0.46700  0.65900  Biso   1.000  C
  C389     1.0000 0.53300  0.46900  0.65900  Biso   1.000  C
  C390     1.0000 0.53100  0.06400  0.65900  Biso   1.000  C
  C391     1.0000 0.60267  0.80033  0.99233  Biso   1.000  C
  C392     1.0000 0.19967  0.80233  0.99233  Biso   1.000  C
  C393     1.0000 0.19767  0.39733  0.99233  Biso   1.000  C
  C394     1.0000 0.26933  0.13367  0.32567  Biso   1.000  C
  C395     1.0000 0.86633  0.13567  0.32567  Biso   1.000  C
  C396     1.0000 0.86433  0.73067  0.32567  Biso   1.000  C
  H559     1.0000 0.06470  0.56830  0.36950  Biso   1.000  H
  H560     1.0000 0.43170  0.49640  0.36950  Biso   1.000  H
  H561     1.0000 0.50360  0.93530  0.36950  Biso   1.000  H
  H562     1.0000 0.73137  0.90163  0.70283  Biso   1.000  H
  H563     1.0000 0.09837  0.82973  0.70283  Biso   1.000  H
  H564     1.0000 0.17027  0.26863  0.70283  Biso   1.000  H
  H565     1.0000 0.39803  0.23497  0.03617  Biso   1.000  H
  H566     1.0000 0.76503  0.16307  0.03617  Biso   1.000  H
  H567     1.0000 0.83693  0.60197  0.03617  Biso   1.000  H
  H568     1.0000 0.93530  0.43170  0.63050  Biso   1.000  H
  H569     1.0000 0.56830  0.50360  0.63050  Biso   1.000  H
  H570     1.0000 0.49640  0.06470  0.63050  Biso   1.000  H
  H571     1.0000 0.60197  0.76503  0.96383  Biso   1.000  H
  H572     1.0000 0.23497  0.83693  0.96383  Biso   1.000  H
  H573     1.0000 0.16307  0.39803  0.96383  Biso   1.000  H
  H574     1.0000 0.26863  0.09837  0.29717  Biso   1.000  H
  H575     1.0000 0.90163  0.17027  0.29717  Biso   1.000  H
  H576     1.0000 0.82973  0.73137  0.29717  Biso   1.000  H
  H577     1.0000 0.05310  0.49400  0.37110  Biso   1.000  H
  H578     1.0000 0.50600  0.55910  0.37110  Biso   1.000  H
  H579     1.0000 0.44090  0.94690  0.37110  Biso   1.000  H
  H580     1.0000 0.71977  0.82733  0.70443  Biso   1.000  H
  H581     1.0000 0.17267  0.89243  0.70443  Biso   1.000  H
  H582     1.0000 0.10757  0.28023  0.70443  Biso   1.000  H
  H583     1.0000 0.38643  0.16067  0.03777  Biso   1.000  H
  H584     1.0000 0.83933  0.22577  0.03777  Biso   1.000  H
  H585     1.0000 0.77423  0.61357  0.03777  Biso   1.000  H
  H586     1.0000 0.94690  0.50600  0.62890  Biso   1.000  H
  H587     1.0000 0.49400  0.44090  0.62890  Biso   1.000  H
  H588     1.0000 0.55910  0.05310  0.62890  Biso   1.000  H
  H589     1.0000 0.61357  0.83933  0.96223  Biso   1.000  H
  H590     1.0000 0.16067  0.77423  0.96223  Biso   1.000  H
  H591     1.0000 0.22577  0.38643  0.96223  Biso   1.000  H
  H592     1.0000 0.28023  0.17267  0.29557  Biso   1.000  H
  H593     1.0000 0.82733  0.10757  0.29557  Biso   1.000  H
  H594     1.0000 0.89243  0.71977  0.29557  Biso   1.000  H
  C397     1.0000 0.01300  0.51300  0.28700  Biso   1.000  C
  C398     1.0000 0.48700  0.50000  0.28700  Biso   1.000  C
  C399     1.0000 0.50000  0.98700  0.28700  Biso   1.000  C
  C400     1.0000 0.67967  0.84633  0.62033  Biso   1.000  C
  C401     1.0000 0.15367  0.83333  0.62033  Biso   1.000  C
  C402     1.0000 0.16667  0.32033  0.62033  Biso   1.000  C
  C403     1.0000 0.34633  0.17967  0.95367  Biso   1.000  C
  C404     1.0000 0.82033  0.16667  0.95367  Biso   1.000  C
  C405     1.0000 0.83333  0.65367  0.95367  Biso   1.000  C
  C406     1.0000 0.98700  0.48700  0.71300  Biso   1.000  C
  C407     1.0000 0.51300  0.50000  0.71300  Biso   1.000  C
  C408     1.0000 0.50000  0.01300  0.71300  Biso   1.000  C
  C409     1.0000 0.65367  0.82033  0.04633  Biso   1.000  C
  C410     1.0000 0.17967  0.83333  0.04633  Biso   1.000  C
  C411     1.0000 0.16667  0.34633  0.04633  Biso   1.000  C
  C412     1.0000 0.32033  0.15367  0.37967  Biso   1.000  C
  C413     1.0000 0.84633  0.16667  0.37967  Biso   1.000  C
  C414     1.0000 0.83333  0.67967  0.37967  Biso   1.000  C
  H595     1.0000 0.01580  0.55300  0.26680  Biso   1.000  H
  H596     1.0000 0.44700  0.46280  0.26680  Biso   1.000  H
  H597     1.0000 0.53720  0.98420  0.26680  Biso   1.000  H
  H598     1.0000 0.68247  0.88633  0.60013  Biso   1.000  H
  H599     1.0000 0.11367  0.79613  0.60013  Biso   1.000  H
  H600     1.0000 0.20387  0.31753  0.60013  Biso   1.000  H
  H601     1.0000 0.34913  0.21967  0.93347  Biso   1.000  H
  H602     1.0000 0.78033  0.12947  0.93347  Biso   1.000  H
  H603     1.0000 0.87053  0.65087  0.93347  Biso   1.000  H
  H604     1.0000 0.98420  0.44700  0.73320  Biso   1.000  H
  H605     1.0000 0.55300  0.53720  0.73320  Biso   1.000  H
  H606     1.0000 0.46280  0.01580  0.73320  Biso   1.000  H
  H607     1.0000 0.65087  0.78033  0.06653  Biso   1.000  H
  H608     1.0000 0.21967  0.87053  0.06653  Biso   1.000  H
  H609     1.0000 0.12947  0.34913  0.06653  Biso   1.000  H
  H610     1.0000 0.31753  0.11367  0.39987  Biso   1.000  H
  H611     1.0000 0.88633  0.20387  0.39987  Biso   1.000  H
  H612     1.0000 0.79613  0.68247  0.39987  Biso   1.000  H
  H613     1.0000 0.02190  0.48820  0.25120  Biso   1.000  H
  H614     1.0000 0.51180  0.53370  0.25120  Biso   1.000  H
  H615     1.0000 0.46630  0.97810  0.25120  Biso   1.000  H
  H616     1.0000 0.68857  0.82153  0.58453  Biso   1.000  H
  H617     1.0000 0.17847  0.86703  0.58453  Biso   1.000  H
  H618     1.0000 0.13297  0.31143  0.58453  Biso   1.000  H
  H619     1.0000 0.35523  0.15487  0.91787  Biso   1.000  H
  H620     1.0000 0.84513  0.20037  0.91787  Biso   1.000  H
  H621     1.0000 0.79963  0.64477  0.91787  Biso   1.000  H
  H622     1.0000 0.97810  0.51180  0.74880  Biso   1.000  H
  H623     1.0000 0.48820  0.46630  0.74880  Biso   1.000  H
  H624     1.0000 0.53370  0.02190  0.74880  Biso   1.000  H
  H625     1.0000 0.64477  0.84513  0.08213  Biso   1.000  H
  H626     1.0000 0.15487  0.79963  0.08213  Biso   1.000  H
  H627     1.0000 0.20037  0.35523  0.08213  Biso   1.000  H
  H628     1.0000 0.31143  0.17847  0.41547  Biso   1.000  H
  H629     1.0000 0.82153  0.13297  0.41547  Biso   1.000  H
  H630     1.0000 0.86703  0.68857  0.41547  Biso   1.000  H
  C415     1.0000 0.94500  0.46900  0.31500  Biso   1.000  C
  C416     1.0000 0.53100  0.47600  0.31500  Biso   1.000  C
  C417     1.0000 0.52400  0.05500  0.31500  Biso   1.000  C
  C418     1.0000 0.61167  0.80233  0.64833  Biso   1.000  C
  C419     1.0000 0.19767  0.80933  0.64833  Biso   1.000  C
  C420     1.0000 0.19067  0.38833  0.64833  Biso   1.000  C
  C421     1.0000 0.27833  0.13567  0.98167  Biso   1.000  C
  C422     1.0000 0.86433  0.14267  0.98167  Biso   1.000  C
  C423     1.0000 0.85733  0.72167  0.98167  Biso   1.000  C
  C424     1.0000 0.05500  0.53100  0.68500  Biso   1.000  C
  C425     1.0000 0.46900  0.52400  0.68500  Biso   1.000  C
  C426     1.0000 0.47600  0.94500  0.68500  Biso   1.000  C
  C427     1.0000 0.72167  0.86433  0.01833  Biso   1.000  C
  C428     1.0000 0.13567  0.85733  0.01833  Biso   1.000  C
  C429     1.0000 0.14267  0.27833  0.01833  Biso   1.000  C
  C430     1.0000 0.38833  0.19767  0.35167  Biso   1.000  C
  C431     1.0000 0.80233  0.19067  0.35167  Biso   1.000  C
  C432     1.0000 0.80933  0.61167  0.35167  Biso   1.000  C
  H631     1.0000 0.94810  0.45380  0.36100  Biso   1.000  H
  H632     1.0000 0.54620  0.49430  0.36100  Biso   1.000  H
  H633     1.0000 0.50570  0.05190  0.36100  Biso   1.000  H
  H634     1.0000 0.61477  0.78713  0.69433  Biso   1.000  H
  H635     1.0000 0.21287  0.82763  0.69433  Biso   1.000  H
  H636     1.0000 0.17237  0.38523  0.69433  Biso   1.000  H
  H637     1.0000 0.28143  0.12047  0.02767  Biso   1.000  H
  H638     1.0000 0.87953  0.16097  0.02767  Biso   1.000  H
  H639     1.0000 0.83903  0.71857  0.02767  Biso   1.000  H
  H640     1.0000 0.05190  0.54620  0.63900  Biso   1.000  H
  H641     1.0000 0.45380  0.50570  0.63900  Biso   1.000  H
  H642     1.0000 0.49430  0.94810  0.63900  Biso   1.000  H
  H643     1.0000 0.71857  0.87953  0.97233  Biso   1.000  H
  H644     1.0000 0.12047  0.83903  0.97233  Biso   1.000  H
  H645     1.0000 0.16097  0.28143  0.97233  Biso   1.000  H
  H646     1.0000 0.38523  0.21287  0.30567  Biso   1.000  H
  H647     1.0000 0.78713  0.17237  0.30567  Biso   1.000  H
  H648     1.0000 0.82763  0.61477  0.30567  Biso   1.000  H
  H649     1.0000 0.92160  0.49530  0.31910  Biso   1.000  H
  H650     1.0000 0.50470  0.42630  0.31910  Biso   1.000  H
  H651     1.0000 0.57370  0.07840  0.31910  Biso   1.000  H
  H652     1.0000 0.58827  0.82863  0.65243  Biso   1.000  H
  H653     1.0000 0.17137  0.75963  0.65243  Biso   1.000  H
  H654     1.0000 0.24037  0.41173  0.65243  Biso   1.000  H
  H655     1.0000 0.25493  0.16197  0.98577  Biso   1.000  H
  H656     1.0000 0.83803  0.09297  0.98577  Biso   1.000  H
  H657     1.0000 0.90703  0.74507  0.98577  Biso   1.000  H
  H658     1.0000 0.07840  0.50470  0.68090  Biso   1.000  H
  H659     1.0000 0.49530  0.57370  0.68090  Biso   1.000  H
  H660     1.0000 0.42630  0.92160  0.68090  Biso   1.000  H
  H661     1.0000 0.74507  0.83803  0.01423  Biso   1.000  H
  H662     1.0000 0.16197  0.90703  0.01423  Biso   1.000  H
  H663     1.0000 0.09297  0.25493  0.01423  Biso   1.000  H
  H664     1.0000 0.41173  0.17137  0.34757  Biso   1.000  H
  H665     1.0000 0.82863  0.24037  0.34757  Biso   1.000  H
  H666     1.0000 0.75963  0.58827  0.34757  Biso   1.000  H
  C433     1.0000 0.90600  0.41000  0.27000  Biso   1.000  C
  C434     1.0000 0.59000  0.49600  0.27000  Biso   1.000  C
  C435     1.0000 0.50400  0.09400  0.27000  Biso   1.000  C
  C436     1.0000 0.57267  0.74333  0.60333  Biso   1.000  C
  C437     1.0000 0.25667  0.82933  0.60333  Biso   1.000  C
  C438     1.0000 0.17067  0.42733  0.60333  Biso   1.000  C
  C439     1.0000 0.23933  0.07667  0.93667  Biso   1.000  C
  C440     1.0000 0.92333  0.16267  0.93667  Biso   1.000  C
  C441     1.0000 0.83733  0.76067  0.93667  Biso   1.000  C
  C442     1.0000 0.09400  0.59000  0.73000  Biso   1.000  C
  C443     1.0000 0.41000  0.50400  0.73000  Biso   1.000  C
  C444     1.0000 0.49600  0.90600  0.73000  Biso   1.000  C
  C445     1.0000 0.76067  0.92333  0.06333  Biso   1.000  C
  C446     1.0000 0.07667  0.83733  0.06333  Biso   1.000  C
  C447     1.0000 0.16267  0.23933  0.06333  Biso   1.000  C
  C448     1.0000 0.42733  0.25667  0.39667  Biso   1.000  C
  C449     1.0000 0.74333  0.17067  0.39667  Biso   1.000  C
  C450     1.0000 0.82933  0.57267  0.39667  Biso   1.000  C
  H667     1.0000 0.93410  0.41120  0.23250  Biso   1.000  H
  H668     1.0000 0.58880  0.52290  0.23250  Biso   1.000  H
  H669     1.0000 0.47710  0.06590  0.23250  Biso   1.000  H
  H670     1.0000 0.60077  0.74453  0.56583  Biso   1.000  H
  H671     1.0000 0.25547  0.85623  0.56583  Biso   1.000  H
  H672     1.0000 0.14377  0.39923  0.56583  Biso   1.000  H
  H673     1.0000 0.26743  0.07787  0.89917  Biso   1.000  H
  H674     1.0000 0.92213  0.18957  0.89917  Biso   1.000  H
  H675     1.0000 0.81043  0.73257  0.89917  Biso   1.000  H
  H676     1.0000 0.06590  0.58880  0.76750  Biso   1.000  H
  H677     1.0000 0.41120  0.47710  0.76750  Biso   1.000  H
  H678     1.0000 0.52290  0.93410  0.76750  Biso   1.000  H
  H679     1.0000 0.73257  0.92213  0.10083  Biso   1.000  H
  H680     1.0000 0.07787  0.81043  0.10083  Biso   1.000  H
  H681     1.0000 0.18957  0.26743  0.10083  Biso   1.000  H
  H682     1.0000 0.39923  0.25547  0.43417  Biso   1.000  H
  H683     1.0000 0.74453  0.14377  0.43417  Biso   1.000  H
  H684     1.0000 0.85623  0.60077  0.43417  Biso   1.000  H
  H685     1.0000 0.86740  0.41280  0.25070  Biso   1.000  H
  H686     1.0000 0.58720  0.45460  0.25070  Biso   1.000  H
  H687     1.0000 0.54540  0.13260  0.25070  Biso   1.000  H
  H688     1.0000 0.53407  0.74613  0.58403  Biso   1.000  H
  H689     1.0000 0.25387  0.78793  0.58403  Biso   1.000  H
  H690     1.0000 0.21207  0.46593  0.58403  Biso   1.000  H
  H691     1.0000 0.20073  0.07947  0.91737  Biso   1.000  H
  H692     1.0000 0.92053  0.12127  0.91737  Biso   1.000  H
  H693     1.0000 0.87873  0.79927  0.91737  Biso   1.000  H
  H694     1.0000 0.13260  0.58720  0.74930  Biso   1.000  H
  H695     1.0000 0.41280  0.54540  0.74930  Biso   1.000  H
  H696     1.0000 0.45460  0.86740  0.74930  Biso   1.000  H
  H697     1.0000 0.79927  0.92053  0.08263  Biso   1.000  H
  H698     1.0000 0.07947  0.87873  0.08263  Biso   1.000  H
  H699     1.0000 0.12127  0.20073  0.08263  Biso   1.000  H
  H700     1.0000 0.46593  0.25387  0.41597  Biso   1.000  H
  H701     1.0000 0.74613  0.21207  0.41597  Biso   1.000  H
  H702     1.0000 0.78793  0.53407  0.41597  Biso   1.000  H
  C451     1.0000 0.86600  0.54700  0.35800  Biso   1.000  C
  C452     1.0000 0.45300  0.31900  0.35800  Biso   1.000  C
  C453     1.0000 0.68100  0.13400  0.35800  Biso   1.000  C
  C454     1.0000 0.53267  0.88033  0.69133  Biso   1.000  C
  C455     1.0000 0.11967  0.65233  0.69133  Biso   1.000  C
  C456     1.0000 0.34767  0.46733  0.69133  Biso   1.000  C
  C457     1.0000 0.19933  0.21367  0.02467  Biso   1.000  C
  C458     1.0000 0.78633  0.98567  0.02467  Biso   1.000  C
  C459     1.0000 0.01433  0.80067  0.02467  Biso   1.000  C
  C460     1.0000 0.13400  0.45300  0.64200  Biso   1.000  C
  C461     1.0000 0.54700  0.68100  0.64200  Biso   1.000  C
  C462     1.0000 0.31900  0.86600  0.64200  Biso   1.000  C
  C463     1.0000 0.80067  0.78633  0.97533  Biso   1.000  C
  C464     1.0000 0.21367  0.01433  0.97533  Biso   1.000  C
  C465     1.0000 0.98567  0.19933  0.97533  Biso   1.000  C
  C466     1.0000 0.46733  0.11967  0.30867  Biso   1.000  C
  C467     1.0000 0.88033  0.34767  0.30867  Biso   1.000  C
  C468     1.0000 0.65233  0.53267  0.30867  Biso   1.000  C
  H703     1.0000 0.89650  0.54080  0.38860  Biso   1.000  H
  H704     1.0000 0.45920  0.35570  0.38860  Biso   1.000  H
  H705     1.0000 0.64430  0.10350  0.38860  Biso   1.000  H
  H706     1.0000 0.56317  0.87413  0.72193  Biso   1.000  H
  H707     1.0000 0.12587  0.68903  0.72193  Biso   1.000  H
  H708     1.0000 0.31097  0.43683  0.72193  Biso   1.000  H
  H709     1.0000 0.22983  0.20747  0.05527  Biso   1.000  H
  H710     1.0000 0.79253  0.02237  0.05527  Biso   1.000  H
  H711     1.0000 0.97763  0.77017  0.05527  Biso   1.000  H
  H712     1.0000 0.10350  0.45920  0.61140  Biso   1.000  H
  H713     1.0000 0.54080  0.64430  0.61140  Biso   1.000  H
  H714     1.0000 0.35570  0.89650  0.61140  Biso   1.000  H
  H715     1.0000 0.77017  0.79253  0.94473  Biso   1.000  H
  H716     1.0000 0.20747  0.97763  0.94473  Biso   1.000  H
  H717     1.0000 0.02237  0.22983  0.94473  Biso   1.000  H
  H718     1.0000 0.43683  0.12587  0.27807  Biso   1.000  H
  H719     1.0000 0.87413  0.31097  0.27807  Biso   1.000  H
  H720     1.0000 0.68903  0.56317  0.27807  Biso   1.000  H
  H721     1.0000 0.89440  0.58040  0.32290  Biso   1.000  H
  H722     1.0000 0.41960  0.31400  0.32290  Biso   1.000  H
  H723     1.0000 0.68600  0.10560  0.32290  Biso   1.000  H
  H724     1.0000 0.56107  0.91373  0.65623  Biso   1.000  H
  H725     1.0000 0.08627  0.64733  0.65623  Biso   1.000  H
  H726     1.0000 0.35267  0.43893  0.65623  Biso   1.000  H
  H727     1.0000 0.22773  0.24707  0.98957  Biso   1.000  H
  H728     1.0000 0.75293  0.98067  0.98957  Biso   1.000  H
  H729     1.0000 0.01933  0.77227  0.98957  Biso   1.000  H
  H730     1.0000 0.10560  0.41960  0.67710  Biso   1.000  H
  H731     1.0000 0.58040  0.68600  0.67710  Biso   1.000  H
  H732     1.0000 0.31400  0.89440  0.67710  Biso   1.000  H
  H733     1.0000 0.77227  0.75293  0.01043  Biso   1.000  H
  H734     1.0000 0.24707  0.01933  0.01043  Biso   1.000  H
  H735     1.0000 0.98067  0.22773  0.01043  Biso   1.000  H
  H736     1.0000 0.43893  0.08627  0.34377  Biso   1.000  H
  H737     1.0000 0.91373  0.35267  0.34377  Biso   1.000  H
  H738     1.0000 0.64733  0.56107  0.34377  Biso   1.000  H
  C469     1.0000 0.18400  0.67100  0.65700  Biso   1.000  C
  C470     1.0000 0.32900  0.51300  0.65700  Biso   1.000  C
  C471     1.0000 0.48700  0.81600  0.65700  Biso   1.000  C
  C472     1.0000 0.85067  0.00433  0.99033  Biso   1.000  C
  C473     1.0000 0.99567  0.84633  0.99033  Biso   1.000  C
  C474     1.0000 0.15367  0.14933  0.99033  Biso   1.000  C
  C475     1.0000 0.51733  0.33767  0.32367  Biso   1.000  C
  C476     1.0000 0.66233  0.17967  0.32367  Biso   1.000  C
  C477     1.0000 0.82033  0.48267  0.32367  Biso   1.000  C
  C478     1.0000 0.81600  0.32900  0.34300  Biso   1.000  C
  C479     1.0000 0.67100  0.48700  0.34300  Biso   1.000  C
  C480     1.0000 0.51300  0.18400  0.34300  Biso   1.000  C
  C481     1.0000 0.48267  0.66233  0.67633  Biso   1.000  C
  C482     1.0000 0.33767  0.82033  0.67633  Biso   1.000  C
  C483     1.0000 0.17967  0.51733  0.67633  Biso   1.000  C
  C484     1.0000 0.14933  0.99567  0.00967  Biso   1.000  C
  C485     1.0000 0.00433  0.15367  0.00967  Biso   1.000  C
  C486     1.0000 0.84633  0.85067  0.00967  Biso   1.000  C
  H739     1.0000 0.84700  0.46720  0.29780  Biso   1.000  H
  H740     1.0000 0.53280  0.37980  0.29780  Biso   1.000  H
  H741     1.0000 0.62020  0.15300  0.29780  Biso   1.000  H
  H742     1.0000 0.51367  0.80053  0.63113  Biso   1.000  H
  H743     1.0000 0.19947  0.71313  0.63113  Biso   1.000  H
  H744     1.0000 0.28687  0.48633  0.63113  Biso   1.000  H
  H745     1.0000 0.18033  0.13387  0.96447  Biso   1.000  H
  H746     1.0000 0.86613  0.04647  0.96447  Biso   1.000  H
  H747     1.0000 0.95353  0.81967  0.96447  Biso   1.000  H
  H748     1.0000 0.15300  0.53280  0.70220  Biso   1.000  H
  H749     1.0000 0.46720  0.62020  0.70220  Biso   1.000  H
  H750     1.0000 0.37980  0.84700  0.70220  Biso   1.000  H
  H751     1.0000 0.81967  0.86613  0.03553  Biso   1.000  H
  H752     1.0000 0.13387  0.95353  0.03553  Biso   1.000  H
  H753     1.0000 0.04647  0.18033  0.03553  Biso   1.000  H
  H754     1.0000 0.48633  0.19947  0.36887  Biso   1.000  H
  H755     1.0000 0.80053  0.28687  0.36887  Biso   1.000  H
  H756     1.0000 0.71313  0.51367  0.36887  Biso   1.000  H
  H757     1.0000 0.20530  0.55140  0.64140  Biso   1.000  H
  H758     1.0000 0.44860  0.65390  0.64140  Biso   1.000  H
  H759     1.0000 0.34610  0.79470  0.64140  Biso   1.000  H
  H760     1.0000 0.87197  0.88473  0.97473  Biso   1.000  H
  H761     1.0000 0.11527  0.98723  0.97473  Biso   1.000  H
  H762     1.0000 0.01277  0.12803  0.97473  Biso   1.000  H
  H763     1.0000 0.53863  0.21807  0.30807  Biso   1.000  H
  H764     1.0000 0.78193  0.32057  0.30807  Biso   1.000  H
  H765     1.0000 0.67943  0.46137  0.30807  Biso   1.000  H
  H766     1.0000 0.79470  0.44860  0.35860  Biso   1.000  H
  H767     1.0000 0.55140  0.34610  0.35860  Biso   1.000  H
  H768     1.0000 0.65390  0.20530  0.35860  Biso   1.000  H
  H769     1.0000 0.46137  0.78193  0.69193  Biso   1.000  H
  H770     1.0000 0.21807  0.67943  0.69193  Biso   1.000  H
  H771     1.0000 0.32057  0.53863  0.69193  Biso   1.000  H
  H772     1.0000 0.12803  0.11527  0.02527  Biso   1.000  H
  H773     1.0000 0.88473  0.01277  0.02527  Biso   1.000  H
  H774     1.0000 0.98723  0.87197  0.02527  Biso   1.000  H
  O199     1.0000 0.33330  0.66670  0.66670  Biso   1.000  O
  O200     1.0000 0.99997  0.00003  0.00003  Biso   1.000  O
  O201     1.0000 0.66663  0.33337  0.33337  Biso   1.000  O
  O202     1.0000 0.66670  0.33330  0.66800  Biso   1.000  O
  O203     1.0000 0.33337  0.66663  0.00133  Biso   1.000  O
  O204     1.0000 0.00003  0.99997  0.33467  Biso   1.000  O
  O205     1.0000 0.33330  0.66670  0.33200  Biso   1.000  O
  O206     1.0000 0.99997  0.00003  0.66533  Biso   1.000  O
  O207     1.0000 0.66663  0.33337  0.99867  Biso   1.000  O
  O208     1.0000 0.66670  0.33330  0.83330  Biso   1.000  O
  O209     1.0000 0.33337  0.66663  0.16663  Biso   1.000  O
  O210     1.0000 0.00003  0.99997  0.49997  Biso   1.000  O
