data_image0
_cell_length_a       15.436
_cell_length_b       20.198
_cell_length_c       19.587
_cell_angle_alpha    90
_cell_angle_beta     90
_cell_angle_gamma    90

_symmetry_space_group_name_H-M    "P 1"
_symmetry_int_tables_number       1

loop_
  _symmetry_equiv_pos_as_xyz
  'x, y, z'

loop_
  _atom_site_label
  _atom_site_occupancy
  _atom_site_fract_x
  _atom_site_fract_y
  _atom_site_fract_z
  _atom_site_thermal_displace_type
  _atom_site_B_iso_or_equiv
  _atom_site_type_symbol
  Cu1      1.0000 0.15157  0.38072  0.17692  Biso   1.000  Cu
  Cu2      1.0000 0.65157  0.88072  0.82308  Biso   1.000  Cu
  Cu3      1.0000 0.15157  0.11928  0.67692  Biso   1.000  Cu
  Cu4      1.0000 0.34843  0.38072  0.67692  Biso   1.000  Cu
  Cu5      1.0000 0.84843  0.61928  0.82308  Biso   1.000  Cu
  Cu6      1.0000 0.34843  0.11928  0.17692  Biso   1.000  Cu
  Cu7      1.0000 0.84843  0.88072  0.32308  Biso   1.000  Cu
  Cu8      1.0000 0.65157  0.61928  0.32308  Biso   1.000  Cu
  N1       1.0000 0.22400  0.33920  0.05650  Biso   1.000  N
  N2       1.0000 0.72400  0.83920  0.94350  Biso   1.000  N
  N3       1.0000 0.22400  0.16080  0.55650  Biso   1.000  N
  N4       1.0000 0.27600  0.33920  0.55650  Biso   1.000  N
  N5       1.0000 0.77600  0.66080  0.94350  Biso   1.000  N
  N6       1.0000 0.27600  0.16080  0.05650  Biso   1.000  N
  N7       1.0000 0.77600  0.83920  0.44350  Biso   1.000  N
  N8       1.0000 0.72400  0.66080  0.44350  Biso   1.000  N
  O1       1.0000 0.23270  0.32920  0.12170  Biso   1.000  O
  O2       1.0000 0.73270  0.82920  0.87830  Biso   1.000  O
  O3       1.0000 0.23270  0.17080  0.62170  Biso   1.000  O
  O4       1.0000 0.26730  0.32920  0.62170  Biso   1.000  O
  O5       1.0000 0.76730  0.67080  0.87830  Biso   1.000  O
  O6       1.0000 0.26730  0.17080  0.12170  Biso   1.000  O
  O7       1.0000 0.76730  0.82920  0.37830  Biso   1.000  O
  O8       1.0000 0.73270  0.67080  0.37830  Biso   1.000  O
  O9       1.0000 0.15580  0.36650  0.03740  Biso   1.000  O
  O10      1.0000 0.65580  0.86650  0.96260  Biso   1.000  O
  O11      1.0000 0.15580  0.13350  0.53740  Biso   1.000  O
  O12      1.0000 0.34420  0.36650  0.53740  Biso   1.000  O
  O13      1.0000 0.84420  0.63350  0.96260  Biso   1.000  O
  O14      1.0000 0.34420  0.13350  0.03740  Biso   1.000  O
  O15      1.0000 0.84420  0.86650  0.46260  Biso   1.000  O
  O16      1.0000 0.65580  0.63350  0.46260  Biso   1.000  O
  O17      1.0000 0.27980  0.31920  0.01780  Biso   1.000  O
  O18      1.0000 0.77980  0.81920  0.98220  Biso   1.000  O
  O19      1.0000 0.27980  0.18080  0.51780  Biso   1.000  O
  O20      1.0000 0.22020  0.31920  0.51780  Biso   1.000  O
  O21      1.0000 0.72020  0.68080  0.98220  Biso   1.000  O
  O22      1.0000 0.22020  0.18080  0.01780  Biso   1.000  O
  O23      1.0000 0.72020  0.81920  0.48220  Biso   1.000  O
  O24      1.0000 0.77980  0.68080  0.48220  Biso   1.000  O
  N9       1.0000 0.01380  0.45390  0.20940  Biso   1.000  N
  N10      1.0000 0.51380  0.95390  0.79060  Biso   1.000  N
  N11      1.0000 0.01380  0.04610  0.70940  Biso   1.000  N
  N12      1.0000 0.48620  0.45390  0.70940  Biso   1.000  N
  N13      1.0000 0.98620  0.54610  0.79060  Biso   1.000  N
  N14      1.0000 0.48620  0.04610  0.20940  Biso   1.000  N
  N15      1.0000 0.98620  0.95390  0.29060  Biso   1.000  N
  N16      1.0000 0.51380  0.54610  0.29060  Biso   1.000  N
  O25      1.0000 0.07930  0.43170  0.24150  Biso   1.000  O
  O26      1.0000 0.57930  0.93170  0.75850  Biso   1.000  O
  O27      1.0000 0.07930  0.06830  0.74150  Biso   1.000  O
  O28      1.0000 0.42070  0.43170  0.74150  Biso   1.000  O
  O29      1.0000 0.92070  0.56830  0.75850  Biso   1.000  O
  O30      1.0000 0.42070  0.06830  0.24150  Biso   1.000  O
  O31      1.0000 0.92070  0.93170  0.25850  Biso   1.000  O
  O32      1.0000 0.57930  0.56830  0.25850  Biso   1.000  O
  O33      1.0000 0.01500  0.44490  0.14710  Biso   1.000  O
  O34      1.0000 0.51500  0.94490  0.85290  Biso   1.000  O
  O35      1.0000 0.01500  0.05510  0.64710  Biso   1.000  O
  O36      1.0000 0.48500  0.44490  0.64710  Biso   1.000  O
  O37      1.0000 0.98500  0.55510  0.85290  Biso   1.000  O
  O38      1.0000 0.48500  0.05510  0.14710  Biso   1.000  O
  O39      1.0000 0.98500  0.94490  0.35290  Biso   1.000  O
  O40      1.0000 0.51500  0.55510  0.35290  Biso   1.000  O
  O41      1.0000 0.95550  0.48210  0.23810  Biso   1.000  O
  O42      1.0000 0.45550  0.98210  0.76190  Biso   1.000  O
  O43      1.0000 0.95550  0.01790  0.73810  Biso   1.000  O
  O44      1.0000 0.54450  0.48210  0.73810  Biso   1.000  O
  O45      1.0000 0.04450  0.51790  0.76190  Biso   1.000  O
  O46      1.0000 0.54450  0.01790  0.23810  Biso   1.000  O
  O47      1.0000 0.04450  0.98210  0.26190  Biso   1.000  O
  O48      1.0000 0.45550  0.51790  0.26190  Biso   1.000  O
  N17      1.0000 0.02430  0.20420  0.18260  Biso   1.000  N
  N18      1.0000 0.52430  0.70420  0.81740  Biso   1.000  N
  N19      1.0000 0.02430  0.29580  0.68260  Biso   1.000  N
  N20      1.0000 0.47570  0.20420  0.68260  Biso   1.000  N
  N21      1.0000 0.97570  0.79580  0.81740  Biso   1.000  N
  N22      1.0000 0.47570  0.29580  0.18260  Biso   1.000  N
  N23      1.0000 0.97570  0.70420  0.31740  Biso   1.000  N
  N24      1.0000 0.52430  0.79580  0.31740  Biso   1.000  N
  N25      1.0000 0.96590  0.24120  0.21260  Biso   1.000  N
  N26      1.0000 0.46590  0.74120  0.78740  Biso   1.000  N
  N27      1.0000 0.96590  0.25880  0.71260  Biso   1.000  N
  N28      1.0000 0.53410  0.24120  0.71260  Biso   1.000  N
  N29      1.0000 0.03410  0.75880  0.78740  Biso   1.000  N
  N30      1.0000 0.53410  0.25880  0.21260  Biso   1.000  N
  N31      1.0000 0.03410  0.74120  0.28740  Biso   1.000  N
  N32      1.0000 0.46590  0.75880  0.28740  Biso   1.000  N
  N33      1.0000 0.99660  0.30100  0.21540  Biso   1.000  N
  N34      1.0000 0.49660  0.80100  0.78460  Biso   1.000  N
  N35      1.0000 0.99660  0.19900  0.71540  Biso   1.000  N
  N36      1.0000 0.50340  0.30100  0.71540  Biso   1.000  N
  N37      1.0000 0.00340  0.69900  0.78460  Biso   1.000  N
  N38      1.0000 0.50340  0.19900  0.21540  Biso   1.000  N
  N39      1.0000 0.00340  0.80100  0.28460  Biso   1.000  N
  N40      1.0000 0.49660  0.69900  0.28460  Biso   1.000  N
  N41      1.0000 0.07450  0.30200  0.18390  Biso   1.000  N
  N42      1.0000 0.57450  0.80200  0.81610  Biso   1.000  N
  N43      1.0000 0.07450  0.19800  0.68390  Biso   1.000  N
  N44      1.0000 0.42550  0.30200  0.68390  Biso   1.000  N
  N45      1.0000 0.92550  0.69800  0.81610  Biso   1.000  N
  N46      1.0000 0.42550  0.19800  0.18390  Biso   1.000  N
  N47      1.0000 0.92550  0.80200  0.31610  Biso   1.000  N
  N48      1.0000 0.57450  0.69800  0.31610  Biso   1.000  N
  C1       1.0000 0.08860  0.24090  0.16390  Biso   1.000  C
  C2       1.0000 0.58860  0.74090  0.83610  Biso   1.000  C
  C3       1.0000 0.08860  0.25910  0.66390  Biso   1.000  C
  C4       1.0000 0.41140  0.24090  0.66390  Biso   1.000  C
  C5       1.0000 0.91140  0.75910  0.83610  Biso   1.000  C
  C6       1.0000 0.41140  0.25910  0.16390  Biso   1.000  C
  C7       1.0000 0.91140  0.74090  0.33610  Biso   1.000  C
  C8       1.0000 0.58860  0.75910  0.33610  Biso   1.000  C
  H1       1.0000 0.13750  0.22780  0.14290  Biso   1.000  H
  H2       1.0000 0.63750  0.72780  0.85710  Biso   1.000  H
  H3       1.0000 0.13750  0.27220  0.64290  Biso   1.000  H
  H4       1.0000 0.36250  0.22780  0.64290  Biso   1.000  H
  H5       1.0000 0.86250  0.77220  0.85710  Biso   1.000  H
  H6       1.0000 0.36250  0.27220  0.14290  Biso   1.000  H
  H7       1.0000 0.86250  0.72780  0.35710  Biso   1.000  H
  H8       1.0000 0.63750  0.77220  0.35710  Biso   1.000  H
  C9       1.0000 0.01110  0.13130  0.17520  Biso   1.000  C
  C10      1.0000 0.51110  0.63130  0.82480  Biso   1.000  C
  C11      1.0000 0.01110  0.36870  0.67520  Biso   1.000  C
  C12      1.0000 0.48890  0.13130  0.67520  Biso   1.000  C
  C13      1.0000 0.98890  0.86870  0.82480  Biso   1.000  C
  C14      1.0000 0.48890  0.36870  0.17520  Biso   1.000  C
  C15      1.0000 0.98890  0.63130  0.32480  Biso   1.000  C
  C16      1.0000 0.51110  0.86870  0.32480  Biso   1.000  C
  H9       1.0000 0.05910  0.11300  0.14930  Biso   1.000  H
  H10      1.0000 0.55910  0.61300  0.85070  Biso   1.000  H
  H11      1.0000 0.05910  0.38700  0.64930  Biso   1.000  H
  H12      1.0000 0.44090  0.11300  0.64930  Biso   1.000  H
  H13      1.0000 0.94090  0.88700  0.85070  Biso   1.000  H
  H14      1.0000 0.44090  0.38700  0.14930  Biso   1.000  H
  H15      1.0000 0.94090  0.61300  0.35070  Biso   1.000  H
  H16      1.0000 0.55910  0.88700  0.35070  Biso   1.000  H
  H17      1.0000 0.01220  0.11120  0.22020  Biso   1.000  H
  H18      1.0000 0.51220  0.61120  0.77980  Biso   1.000  H
  H19      1.0000 0.01220  0.38880  0.72020  Biso   1.000  H
  H20      1.0000 0.48780  0.11120  0.72020  Biso   1.000  H
  H21      1.0000 0.98780  0.88880  0.77980  Biso   1.000  H
  H22      1.0000 0.48780  0.38880  0.22020  Biso   1.000  H
  H23      1.0000 0.98780  0.61120  0.27980  Biso   1.000  H
  H24      1.0000 0.51220  0.88880  0.27980  Biso   1.000  H
  C17      1.0000 0.93770  0.11470  0.14450  Biso   1.000  C
  C18      1.0000 0.43770  0.61470  0.85550  Biso   1.000  C
  C19      1.0000 0.93770  0.38530  0.64450  Biso   1.000  C
  C20      1.0000 0.56230  0.11470  0.64450  Biso   1.000  C
  C21      1.0000 0.06230  0.88530  0.85550  Biso   1.000  C
  C22      1.0000 0.56230  0.38530  0.14450  Biso   1.000  C
  C23      1.0000 0.06230  0.61470  0.35550  Biso   1.000  C
  C24      1.0000 0.43770  0.88530  0.35550  Biso   1.000  C
  H25      1.0000 0.92290  0.07000  0.15610  Biso   1.000  H
  H26      1.0000 0.42290  0.57000  0.84390  Biso   1.000  H
  H27      1.0000 0.92290  0.43000  0.65610  Biso   1.000  H
  H28      1.0000 0.57710  0.07000  0.65610  Biso   1.000  H
  H29      1.0000 0.07710  0.93000  0.84390  Biso   1.000  H
  H30      1.0000 0.57710  0.43000  0.15610  Biso   1.000  H
  H31      1.0000 0.07710  0.57000  0.34390  Biso   1.000  H
  H32      1.0000 0.42290  0.93000  0.34390  Biso   1.000  H
  H33      1.0000 0.94480  0.11830  0.09590  Biso   1.000  H
  H34      1.0000 0.44480  0.61830  0.90410  Biso   1.000  H
  H35      1.0000 0.94480  0.38170  0.59590  Biso   1.000  H
  H36      1.0000 0.55520  0.11830  0.59590  Biso   1.000  H
  H37      1.0000 0.05520  0.88170  0.90410  Biso   1.000  H
  H38      1.0000 0.55520  0.38170  0.09590  Biso   1.000  H
  H39      1.0000 0.05520  0.61830  0.40410  Biso   1.000  H
  H40      1.0000 0.44480  0.88170  0.40410  Biso   1.000  H
  H41      1.0000 0.89230  0.14390  0.15910  Biso   1.000  H
  H42      1.0000 0.39230  0.64390  0.84090  Biso   1.000  H
  H43      1.0000 0.89230  0.35610  0.65910  Biso   1.000  H
  H44      1.0000 0.60770  0.14390  0.65910  Biso   1.000  H
  H45      1.0000 0.10770  0.85610  0.84090  Biso   1.000  H
  H46      1.0000 0.60770  0.35610  0.15910  Biso   1.000  H
  H47      1.0000 0.10770  0.64390  0.34090  Biso   1.000  H
  H48      1.0000 0.39230  0.85610  0.34090  Biso   1.000  H
  N49      1.0000 0.28820  0.55300  0.17770  Biso   1.000  N
  N50      1.0000 0.78820  0.05300  0.82230  Biso   1.000  N
  N51      1.0000 0.28820  0.94700  0.67770  Biso   1.000  N
  N52      1.0000 0.21180  0.55300  0.67770  Biso   1.000  N
  N53      1.0000 0.71180  0.44700  0.82230  Biso   1.000  N
  N54      1.0000 0.21180  0.94700  0.17770  Biso   1.000  N
  N55      1.0000 0.71180  0.05300  0.32230  Biso   1.000  N
  N56      1.0000 0.78820  0.44700  0.32230  Biso   1.000  N
  N57      1.0000 0.32250  0.52510  0.12270  Biso   1.000  N
  N58      1.0000 0.82250  0.02510  0.87730  Biso   1.000  N
  N59      1.0000 0.32250  0.97490  0.62270  Biso   1.000  N
  N60      1.0000 0.17750  0.52510  0.62270  Biso   1.000  N
  N61      1.0000 0.67750  0.47490  0.87730  Biso   1.000  N
  N62      1.0000 0.17750  0.97490  0.12270  Biso   1.000  N
  N63      1.0000 0.67750  0.02510  0.37730  Biso   1.000  N
  N64      1.0000 0.82250  0.47490  0.37730  Biso   1.000  N
  N65      1.0000 0.28650  0.46750  0.11650  Biso   1.000  N
  N66      1.0000 0.78650  0.96750  0.88350  Biso   1.000  N
  N67      1.0000 0.28650  0.03250  0.61650  Biso   1.000  N
  N68      1.0000 0.21350  0.46750  0.61650  Biso   1.000  N
  N69      1.0000 0.71350  0.53250  0.88350  Biso   1.000  N
  N70      1.0000 0.21350  0.03250  0.11650  Biso   1.000  N
  N71      1.0000 0.71350  0.96750  0.38350  Biso   1.000  N
  N72      1.0000 0.78650  0.53250  0.38350  Biso   1.000  N
  N73      1.0000 0.22860  0.45890  0.16720  Biso   1.000  N
  N74      1.0000 0.72860  0.95890  0.83280  Biso   1.000  N
  N75      1.0000 0.22860  0.04110  0.66720  Biso   1.000  N
  N76      1.0000 0.27140  0.45890  0.66720  Biso   1.000  N
  N77      1.0000 0.77140  0.54110  0.83280  Biso   1.000  N
  N78      1.0000 0.27140  0.04110  0.16720  Biso   1.000  N
  N79      1.0000 0.77140  0.95890  0.33280  Biso   1.000  N
  N80      1.0000 0.72860  0.54110  0.33280  Biso   1.000  N
  C25      1.0000 0.23090  0.51160  0.20340  Biso   1.000  C
  C26      1.0000 0.73090  0.01160  0.79660  Biso   1.000  C
  C27      1.0000 0.23090  0.98840  0.70340  Biso   1.000  C
  C28      1.0000 0.26910  0.51160  0.70340  Biso   1.000  C
  C29      1.0000 0.76910  0.48840  0.79660  Biso   1.000  C
  C30      1.0000 0.26910  0.98840  0.20340  Biso   1.000  C
  C31      1.0000 0.76910  0.01160  0.29660  Biso   1.000  C
  C32      1.0000 0.73090  0.48840  0.29660  Biso   1.000  C
  H49      1.0000 0.19510  0.52170  0.23710  Biso   1.000  H
  H50      1.0000 0.69510  0.02170  0.76290  Biso   1.000  H
  H51      1.0000 0.19510  0.97830  0.73710  Biso   1.000  H
  H52      1.0000 0.30490  0.52170  0.73710  Biso   1.000  H
  H53      1.0000 0.80490  0.47830  0.76290  Biso   1.000  H
  H54      1.0000 0.30490  0.97830  0.23710  Biso   1.000  H
  H55      1.0000 0.80490  0.02170  0.26290  Biso   1.000  H
  H56      1.0000 0.69510  0.47830  0.26290  Biso   1.000  H
  C33      1.0000 0.31720  0.61820  0.19890  Biso   1.000  C
  C34      1.0000 0.81720  0.11820  0.80110  Biso   1.000  C
  C35      1.0000 0.31720  0.88180  0.69890  Biso   1.000  C
  C36      1.0000 0.18280  0.61820  0.69890  Biso   1.000  C
  C37      1.0000 0.68280  0.38180  0.80110  Biso   1.000  C
  C38      1.0000 0.18280  0.88180  0.19890  Biso   1.000  C
  C39      1.0000 0.68280  0.11820  0.30110  Biso   1.000  C
  C40      1.0000 0.81720  0.38180  0.30110  Biso   1.000  C
  H57      1.0000 0.36450  0.61220  0.23100  Biso   1.000  H
  H58      1.0000 0.86450  0.11220  0.76900  Biso   1.000  H
  H59      1.0000 0.36450  0.88780  0.73100  Biso   1.000  H
  H60      1.0000 0.13550  0.61220  0.73100  Biso   1.000  H
  H61      1.0000 0.63550  0.38780  0.76900  Biso   1.000  H
  H62      1.0000 0.13550  0.88780  0.23100  Biso   1.000  H
  H63      1.0000 0.63550  0.11220  0.26900  Biso   1.000  H
  H64      1.0000 0.86450  0.38780  0.26900  Biso   1.000  H
  H65      1.0000 0.34100  0.64030  0.15910  Biso   1.000  H
  H66      1.0000 0.84100  0.14030  0.84090  Biso   1.000  H
  H67      1.0000 0.34100  0.85970  0.65910  Biso   1.000  H
  H68      1.0000 0.15900  0.64030  0.65910  Biso   1.000  H
  H69      1.0000 0.65900  0.35970  0.84090  Biso   1.000  H
  H70      1.0000 0.15900  0.85970  0.15910  Biso   1.000  H
  H71      1.0000 0.65900  0.14030  0.34090  Biso   1.000  H
  H72      1.0000 0.84100  0.35970  0.34090  Biso   1.000  H
  C41      1.0000 0.26270  0.65690  0.22600  Biso   1.000  C
  C42      1.0000 0.76270  0.15690  0.77400  Biso   1.000  C
  C43      1.0000 0.26270  0.84310  0.72600  Biso   1.000  C
  C44      1.0000 0.23730  0.65690  0.72600  Biso   1.000  C
  C45      1.0000 0.73730  0.34310  0.77400  Biso   1.000  C
  C46      1.0000 0.23730  0.84310  0.22600  Biso   1.000  C
  C47      1.0000 0.73730  0.15690  0.27400  Biso   1.000  C
  C48      1.0000 0.76270  0.34310  0.27400  Biso   1.000  C
  H73      1.0000 0.28280  0.70170  0.22220  Biso   1.000  H
  H74      1.0000 0.78280  0.20170  0.77780  Biso   1.000  H
  H75      1.0000 0.28280  0.79830  0.72220  Biso   1.000  H
  H76      1.0000 0.21720  0.70170  0.72220  Biso   1.000  H
  H77      1.0000 0.71720  0.29830  0.77780  Biso   1.000  H
  H78      1.0000 0.21720  0.79830  0.22220  Biso   1.000  H
  H79      1.0000 0.71720  0.20170  0.27780  Biso   1.000  H
  H80      1.0000 0.78280  0.29830  0.27780  Biso   1.000  H
  H81      1.0000 0.25600  0.64570  0.27340  Biso   1.000  H
  H82      1.0000 0.75600  0.14570  0.72660  Biso   1.000  H
  H83      1.0000 0.25600  0.85430  0.77340  Biso   1.000  H
  H84      1.0000 0.24400  0.64570  0.77340  Biso   1.000  H
  H85      1.0000 0.74400  0.35430  0.72660  Biso   1.000  H
  H86      1.0000 0.24400  0.85430  0.27340  Biso   1.000  H
  H87      1.0000 0.74400  0.14570  0.22660  Biso   1.000  H
  H88      1.0000 0.75600  0.35430  0.22660  Biso   1.000  H
  H89      1.0000 0.20800  0.65260  0.20320  Biso   1.000  H
  H90      1.0000 0.70800  0.15260  0.79680  Biso   1.000  H
  H91      1.0000 0.20800  0.84740  0.70320  Biso   1.000  H
  H92      1.0000 0.29200  0.65260  0.70320  Biso   1.000  H
  H93      1.0000 0.79200  0.34740  0.79680  Biso   1.000  H
  H94      1.0000 0.29200  0.84740  0.20320  Biso   1.000  H
  H95      1.0000 0.79200  0.15260  0.29680  Biso   1.000  H
  H96      1.0000 0.70800  0.34740  0.29680  Biso   1.000  H
  C49      1.0000 0.28960  0.67290  0.15330  Biso   1.000  C
  C50      1.0000 0.78960  0.17290  0.84670  Biso   1.000  C
  C51      1.0000 0.28960  0.82710  0.65330  Biso   1.000  C
  C52      1.0000 0.21040  0.67290  0.65330  Biso   1.000  C
  C53      1.0000 0.71040  0.32710  0.84670  Biso   1.000  C
  C54      1.0000 0.21040  0.82710  0.15330  Biso   1.000  C
  C55      1.0000 0.71040  0.17290  0.34670  Biso   1.000  C
  C56      1.0000 0.78960  0.32710  0.34670  Biso   1.000  C
  H97      1.0000 0.23340  0.66300  0.13480  Biso   1.000  H
  H98      1.0000 0.73340  0.16300  0.86520  Biso   1.000  H
  H99      1.0000 0.23340  0.83700  0.63480  Biso   1.000  H
  H100     1.0000 0.26660  0.66300  0.63480  Biso   1.000  H
  H101     1.0000 0.76660  0.33700  0.86520  Biso   1.000  H
  H102     1.0000 0.26660  0.83700  0.13480  Biso   1.000  H
  H103     1.0000 0.76660  0.16300  0.36520  Biso   1.000  H
  H104     1.0000 0.73340  0.33700  0.36520  Biso   1.000  H
  H105     1.0000 0.33050  0.67750  0.11670  Biso   1.000  H
  H106     1.0000 0.83050  0.17750  0.88330  Biso   1.000  H
  H107     1.0000 0.33050  0.82250  0.61670  Biso   1.000  H
  H108     1.0000 0.16950  0.67750  0.61670  Biso   1.000  H
  H109     1.0000 0.66950  0.32250  0.88330  Biso   1.000  H
  H110     1.0000 0.16950  0.82250  0.11670  Biso   1.000  H
  H111     1.0000 0.66950  0.17750  0.38330  Biso   1.000  H
  H112     1.0000 0.83050  0.32250  0.38330  Biso   1.000  H
  H113     1.0000 0.28700  0.71340  0.17880  Biso   1.000  H
  H114     1.0000 0.78700  0.21340  0.82120  Biso   1.000  H
  H115     1.0000 0.28700  0.78660  0.67880  Biso   1.000  H
  H116     1.0000 0.21300  0.71340  0.67880  Biso   1.000  H
  H117     1.0000 0.71300  0.28660  0.82120  Biso   1.000  H
  H118     1.0000 0.21300  0.78660  0.17880  Biso   1.000  H
  H119     1.0000 0.71300  0.21340  0.32120  Biso   1.000  H
  H120     1.0000 0.78700  0.28660  0.32120  Biso   1.000  H
  Cu9      1.0000 0.10979  0.36865  0.91590  Biso   1.000  Cu
  Cu10     1.0000 0.60979  0.86865  0.08410  Biso   1.000  Cu
  Cu11     1.0000 0.10979  0.13135  0.41590  Biso   1.000  Cu
  Cu12     1.0000 0.39021  0.36865  0.41590  Biso   1.000  Cu
  Cu13     1.0000 0.89021  0.63135  0.08410  Biso   1.000  Cu
  Cu14     1.0000 0.39021  0.13135  0.91590  Biso   1.000  Cu
  Cu15     1.0000 0.89021  0.86865  0.58410  Biso   1.000  Cu
  Cu16     1.0000 0.60979  0.63135  0.58410  Biso   1.000  Cu
  N81      1.0000 0.27990  0.34190  0.30730  Biso   1.000  N
  N82      1.0000 0.77990  0.84190  0.69270  Biso   1.000  N
  N83      1.0000 0.27990  0.15810  0.80730  Biso   1.000  N
  N84      1.0000 0.22010  0.34190  0.80730  Biso   1.000  N
  N85      1.0000 0.72010  0.65810  0.69270  Biso   1.000  N
  N86      1.0000 0.22010  0.15810  0.30730  Biso   1.000  N
  N87      1.0000 0.72010  0.84190  0.19270  Biso   1.000  N
  N88      1.0000 0.77990  0.65810  0.19270  Biso   1.000  N
  O49      1.0000 0.28410  0.33240  0.37160  Biso   1.000  O
  O50      1.0000 0.78410  0.83240  0.62840  Biso   1.000  O
  O51      1.0000 0.28410  0.16760  0.87160  Biso   1.000  O
  O52      1.0000 0.21590  0.33240  0.87160  Biso   1.000  O
  O53      1.0000 0.71590  0.66760  0.62840  Biso   1.000  O
  O54      1.0000 0.21590  0.16760  0.37160  Biso   1.000  O
  O55      1.0000 0.71590  0.83240  0.12840  Biso   1.000  O
  O56      1.0000 0.78410  0.66760  0.12840  Biso   1.000  O
  O57      1.0000 0.21180  0.32880  0.27810  Biso   1.000  O
  O58      1.0000 0.71180  0.82880  0.72190  Biso   1.000  O
  O59      1.0000 0.21180  0.17120  0.77810  Biso   1.000  O
  O60      1.0000 0.28820  0.32880  0.77810  Biso   1.000  O
  O61      1.0000 0.78820  0.67120  0.72190  Biso   1.000  O
  O62      1.0000 0.28820  0.17120  0.27810  Biso   1.000  O
  O63      1.0000 0.78820  0.82880  0.22190  Biso   1.000  O
  O64      1.0000 0.71180  0.67120  0.22190  Biso   1.000  O
  O65      1.0000 0.34440  0.36150  0.27850  Biso   1.000  O
  O66      1.0000 0.84440  0.86150  0.72150  Biso   1.000  O
  O67      1.0000 0.34440  0.13850  0.77850  Biso   1.000  O
  O68      1.0000 0.15560  0.36150  0.77850  Biso   1.000  O
  O69      1.0000 0.65560  0.63850  0.72150  Biso   1.000  O
  O70      1.0000 0.15560  0.13850  0.27850  Biso   1.000  O
  O71      1.0000 0.65560  0.86150  0.22150  Biso   1.000  O
  O72      1.0000 0.84440  0.63850  0.22150  Biso   1.000  O
  N89      1.0000 0.94370  0.40770  0.90070  Biso   1.000  N
  N90      1.0000 0.44370  0.90770  0.09930  Biso   1.000  N
  N91      1.0000 0.94370  0.09230  0.40070  Biso   1.000  N
  N92      1.0000 0.55630  0.40770  0.40070  Biso   1.000  N
  N93      1.0000 0.05630  0.59230  0.09930  Biso   1.000  N
  N94      1.0000 0.55630  0.09230  0.90070  Biso   1.000  N
  N95      1.0000 0.05630  0.90770  0.59930  Biso   1.000  N
  N96      1.0000 0.44370  0.59230  0.59930  Biso   1.000  N
  O73      1.0000 0.99990  0.40680  0.95140  Biso   1.000  O
  O74      1.0000 0.49990  0.90680  0.04860  Biso   1.000  O
  O75      1.0000 0.99990  0.09320  0.45140  Biso   1.000  O
  O76      1.0000 0.50010  0.40680  0.45140  Biso   1.000  O
  O77      1.0000 0.00010  0.59320  0.04860  Biso   1.000  O
  O78      1.0000 0.50010  0.09320  0.95140  Biso   1.000  O
  O79      1.0000 0.00010  0.90680  0.54860  Biso   1.000  O
  O80      1.0000 0.49990  0.59320  0.54860  Biso   1.000  O
  O81      1.0000 0.87060  0.42760  0.91420  Biso   1.000  O
  O82      1.0000 0.37060  0.92760  0.08580  Biso   1.000  O
  O83      1.0000 0.87060  0.07240  0.41420  Biso   1.000  O
  O84      1.0000 0.62940  0.42760  0.41420  Biso   1.000  O
  O85      1.0000 0.12940  0.57240  0.08580  Biso   1.000  O
  O86      1.0000 0.62940  0.07240  0.91420  Biso   1.000  O
  O87      1.0000 0.12940  0.92760  0.58580  Biso   1.000  O
  O88      1.0000 0.37060  0.57240  0.58580  Biso   1.000  O
  O89      1.0000 0.96800  0.38720  0.84540  Biso   1.000  O
  O90      1.0000 0.46800  0.88720  0.15460  Biso   1.000  O
  O91      1.0000 0.96800  0.11280  0.34540  Biso   1.000  O
  O92      1.0000 0.53200  0.38720  0.34540  Biso   1.000  O
  O93      1.0000 0.03200  0.61280  0.15460  Biso   1.000  O
  O94      1.0000 0.53200  0.11280  0.84540  Biso   1.000  O
  O95      1.0000 0.03200  0.88720  0.65460  Biso   1.000  O
  O96      1.0000 0.46800  0.61280  0.65460  Biso   1.000  O
  N97      1.0000 0.17340  0.56360  0.91990  Biso   1.000  N
  N98      1.0000 0.67340  0.06360  0.08010  Biso   1.000  N
  N99      1.0000 0.17340  0.93640  0.41990  Biso   1.000  N
  N100     1.0000 0.32660  0.56360  0.41990  Biso   1.000  N
  N101     1.0000 0.82660  0.43640  0.08010  Biso   1.000  N
  N102     1.0000 0.32660  0.93640  0.91990  Biso   1.000  N
  N103     1.0000 0.82660  0.06360  0.58010  Biso   1.000  N
  N104     1.0000 0.67340  0.43640  0.58010  Biso   1.000  N
  N105     1.0000 0.23110  0.54230  0.87360  Biso   1.000  N
  N106     1.0000 0.73110  0.04230  0.12640  Biso   1.000  N
  N107     1.0000 0.23110  0.95770  0.37360  Biso   1.000  N
  N108     1.0000 0.26890  0.54230  0.37360  Biso   1.000  N
  N109     1.0000 0.76890  0.45770  0.12640  Biso   1.000  N
  N110     1.0000 0.26890  0.95770  0.87360  Biso   1.000  N
  N111     1.0000 0.76890  0.04230  0.62640  Biso   1.000  N
  N112     1.0000 0.73110  0.45770  0.62640  Biso   1.000  N
  N113     1.0000 0.22080  0.47930  0.86630  Biso   1.000  N
  N114     1.0000 0.72080  0.97930  0.13370  Biso   1.000  N
  N115     1.0000 0.22080  0.02070  0.36630  Biso   1.000  N
  N116     1.0000 0.27920  0.47930  0.36630  Biso   1.000  N
  N117     1.0000 0.77920  0.52070  0.13370  Biso   1.000  N
  N118     1.0000 0.27920  0.02070  0.86630  Biso   1.000  N
  N119     1.0000 0.77920  0.97930  0.63370  Biso   1.000  N
  N120     1.0000 0.72080  0.52070  0.63370  Biso   1.000  N
  N121     1.0000 0.15730  0.45910  0.90960  Biso   1.000  N
  N122     1.0000 0.65730  0.95910  0.09040  Biso   1.000  N
  N123     1.0000 0.15730  0.04090  0.40960  Biso   1.000  N
  N124     1.0000 0.34270  0.45910  0.40960  Biso   1.000  N
  N125     1.0000 0.84270  0.54090  0.09040  Biso   1.000  N
  N126     1.0000 0.34270  0.04090  0.90960  Biso   1.000  N
  N127     1.0000 0.84270  0.95910  0.59040  Biso   1.000  N
  N128     1.0000 0.65730  0.54090  0.59040  Biso   1.000  N
  C57      1.0000 0.12960  0.51060  0.93860  Biso   1.000  C
  C58      1.0000 0.62960  0.01060  0.06140  Biso   1.000  C
  C59      1.0000 0.12960  0.98940  0.43860  Biso   1.000  C
  C60      1.0000 0.37040  0.51060  0.43860  Biso   1.000  C
  C61      1.0000 0.87040  0.48940  0.06140  Biso   1.000  C
  C62      1.0000 0.37040  0.98940  0.93860  Biso   1.000  C
  C63      1.0000 0.87040  0.01060  0.56140  Biso   1.000  C
  C64      1.0000 0.62960  0.48940  0.56140  Biso   1.000  C
  H121     1.0000 0.09780  0.51700  0.97640  Biso   1.000  H
  H122     1.0000 0.59780  0.01700  0.02360  Biso   1.000  H
  H123     1.0000 0.09780  0.98300  0.47640  Biso   1.000  H
  H124     1.0000 0.40220  0.51700  0.47640  Biso   1.000  H
  H125     1.0000 0.90220  0.48300  0.02360  Biso   1.000  H
  H126     1.0000 0.40220  0.98300  0.97640  Biso   1.000  H
  H127     1.0000 0.90220  0.01700  0.52360  Biso   1.000  H
  H128     1.0000 0.59780  0.48300  0.52360  Biso   1.000  H
  C65      1.0000 0.16200  0.63650  0.93370  Biso   1.000  C
  C66      1.0000 0.66200  0.13650  0.06630  Biso   1.000  C
  C67      1.0000 0.16200  0.86350  0.43370  Biso   1.000  C
  C68      1.0000 0.33800  0.63650  0.43370  Biso   1.000  C
  C69      1.0000 0.83800  0.36350  0.06630  Biso   1.000  C
  C70      1.0000 0.33800  0.86350  0.93370  Biso   1.000  C
  C71      1.0000 0.83800  0.13650  0.56630  Biso   1.000  C
  C72      1.0000 0.66200  0.36350  0.56630  Biso   1.000  C
  H129     1.0000 0.21500  0.64930  0.95680  Biso   1.000  H
  H130     1.0000 0.71500  0.14930  0.04320  Biso   1.000  H
  H131     1.0000 0.21500  0.85070  0.45680  Biso   1.000  H
  H132     1.0000 0.28500  0.64930  0.45680  Biso   1.000  H
  H133     1.0000 0.78500  0.35070  0.04320  Biso   1.000  H
  H134     1.0000 0.28500  0.85070  0.95680  Biso   1.000  H
  H135     1.0000 0.78500  0.14930  0.54320  Biso   1.000  H
  H136     1.0000 0.71500  0.35070  0.54320  Biso   1.000  H
  H137     1.0000 0.11700  0.63830  0.96820  Biso   1.000  H
  H138     1.0000 0.61700  0.13830  0.03180  Biso   1.000  H
  H139     1.0000 0.11700  0.86170  0.46820  Biso   1.000  H
  H140     1.0000 0.38300  0.63830  0.46820  Biso   1.000  H
  H141     1.0000 0.88300  0.36170  0.03180  Biso   1.000  H
  H142     1.0000 0.38300  0.86170  0.96820  Biso   1.000  H
  H143     1.0000 0.88300  0.13830  0.53180  Biso   1.000  H
  H144     1.0000 0.61700  0.36170  0.53180  Biso   1.000  H
  C73      1.0000 0.14760  0.67830  0.90000  Biso   1.000  C
  C74      1.0000 0.64760  0.17830  0.10000  Biso   1.000  C
  C75      1.0000 0.14760  0.82170  0.40000  Biso   1.000  C
  C76      1.0000 0.35240  0.67830  0.40000  Biso   1.000  C
  C77      1.0000 0.85240  0.32170  0.10000  Biso   1.000  C
  C78      1.0000 0.35240  0.82170  0.90000  Biso   1.000  C
  C79      1.0000 0.85240  0.17830  0.60000  Biso   1.000  C
  C80      1.0000 0.64760  0.32170  0.60000  Biso   1.000  C
  H145     1.0000 0.18500  0.67640  0.86060  Biso   1.000  H
  H146     1.0000 0.68500  0.17640  0.13940  Biso   1.000  H
  H147     1.0000 0.18500  0.82360  0.36060  Biso   1.000  H
  H148     1.0000 0.31500  0.67640  0.36060  Biso   1.000  H
  H149     1.0000 0.81500  0.32360  0.13940  Biso   1.000  H
  H150     1.0000 0.31500  0.82360  0.86060  Biso   1.000  H
  H151     1.0000 0.81500  0.17640  0.63940  Biso   1.000  H
  H152     1.0000 0.68500  0.32360  0.63940  Biso   1.000  H
  H153     1.0000 0.08820  0.67620  0.88600  Biso   1.000  H
  H154     1.0000 0.58820  0.17620  0.11400  Biso   1.000  H
  H155     1.0000 0.08820  0.82380  0.38600  Biso   1.000  H
  H156     1.0000 0.41180  0.67620  0.38600  Biso   1.000  H
  H157     1.0000 0.91180  0.32380  0.11400  Biso   1.000  H
  H158     1.0000 0.41180  0.82380  0.88600  Biso   1.000  H
  H159     1.0000 0.91180  0.17620  0.61400  Biso   1.000  H
  H160     1.0000 0.58820  0.32380  0.61400  Biso   1.000  H
  H161     1.0000 0.15800  0.71910  0.92400  Biso   1.000  H
  H162     1.0000 0.65800  0.21910  0.07600  Biso   1.000  H
  H163     1.0000 0.15800  0.78090  0.42400  Biso   1.000  H
  H164     1.0000 0.34200  0.71910  0.42400  Biso   1.000  H
  H165     1.0000 0.84200  0.28090  0.07600  Biso   1.000  H
  H166     1.0000 0.34200  0.78090  0.92400  Biso   1.000  H
  H167     1.0000 0.84200  0.21910  0.57600  Biso   1.000  H
  H168     1.0000 0.65800  0.28090  0.57600  Biso   1.000  H
  C81      1.0000 0.27960  0.67440  0.45610  Biso   1.000  C
  C82      1.0000 0.77960  0.17440  0.54390  Biso   1.000  C
  C83      1.0000 0.27960  0.82560  0.95610  Biso   1.000  C
  C84      1.0000 0.22040  0.67440  0.95610  Biso   1.000  C
  C85      1.0000 0.72040  0.32560  0.54390  Biso   1.000  C
  C86      1.0000 0.22040  0.82560  0.45610  Biso   1.000  C
  C87      1.0000 0.72040  0.17440  0.04390  Biso   1.000  C
  C88      1.0000 0.77960  0.32560  0.04390  Biso   1.000  C
  H169     1.0000 0.24500  0.65100  0.48900  Biso   1.000  H
  H170     1.0000 0.74500  0.15100  0.51100  Biso   1.000  H
  H171     1.0000 0.24500  0.84900  0.98900  Biso   1.000  H
  H172     1.0000 0.25500  0.65100  0.98900  Biso   1.000  H
  H173     1.0000 0.75500  0.34900  0.51100  Biso   1.000  H
  H174     1.0000 0.25500  0.84900  0.48900  Biso   1.000  H
  H175     1.0000 0.75500  0.15100  0.01100  Biso   1.000  H
  H176     1.0000 0.74500  0.34900  0.01100  Biso   1.000  H
  H177     1.0000 0.24400  0.68900  0.41890  Biso   1.000  H
  H178     1.0000 0.74400  0.18900  0.58110  Biso   1.000  H
  H179     1.0000 0.24400  0.81100  0.91890  Biso   1.000  H
  H180     1.0000 0.25600  0.68900  0.91890  Biso   1.000  H
  H181     1.0000 0.75600  0.31100  0.58110  Biso   1.000  H
  H182     1.0000 0.25600  0.81100  0.41890  Biso   1.000  H
  H183     1.0000 0.75600  0.18900  0.08110  Biso   1.000  H
  H184     1.0000 0.74400  0.31100  0.08110  Biso   1.000  H
  H185     1.0000 0.30580  0.71210  0.47800  Biso   1.000  H
  H186     1.0000 0.80580  0.21210  0.52200  Biso   1.000  H
  H187     1.0000 0.30580  0.78790  0.97800  Biso   1.000  H
  H188     1.0000 0.19420  0.71210  0.97800  Biso   1.000  H
  H189     1.0000 0.69420  0.28790  0.52200  Biso   1.000  H
  H190     1.0000 0.19420  0.78790  0.47800  Biso   1.000  H
  H191     1.0000 0.69420  0.21210  0.02200  Biso   1.000  H
  H192     1.0000 0.80580  0.28790  0.02200  Biso   1.000  H
  C89      1.0000 0.25580  0.64210  0.47980  Biso   1.000  C
  C90      1.0000 0.75580  0.14210  0.52020  Biso   1.000  C
  C91      1.0000 0.25580  0.85790  0.97980  Biso   1.000  C
  C92      1.0000 0.24420  0.64210  0.97980  Biso   1.000  C
  C93      1.0000 0.74420  0.35790  0.52020  Biso   1.000  C
  C94      1.0000 0.24420  0.85790  0.47980  Biso   1.000  C
  C95      1.0000 0.74420  0.14210  0.02020  Biso   1.000  C
  C96      1.0000 0.75580  0.35790  0.02020  Biso   1.000  C
  H193     1.0000 0.26300  0.61500  0.51950  Biso   1.000  H
  H194     1.0000 0.76300  0.11500  0.48050  Biso   1.000  H
  H195     1.0000 0.26300  0.88500  0.01950  Biso   1.000  H
  H196     1.0000 0.23700  0.61500  0.01950  Biso   1.000  H
  H197     1.0000 0.73700  0.38500  0.48050  Biso   1.000  H
  H198     1.0000 0.23700  0.88500  0.51950  Biso   1.000  H
  H199     1.0000 0.73700  0.11500  0.98050  Biso   1.000  H
  H200     1.0000 0.76300  0.38500  0.98050  Biso   1.000  H
  H201     1.0000 0.20590  0.62800  0.45470  Biso   1.000  H
  H202     1.0000 0.70590  0.12800  0.54530  Biso   1.000  H
  H203     1.0000 0.20590  0.87200  0.95470  Biso   1.000  H
  H204     1.0000 0.29410  0.62800  0.95470  Biso   1.000  H
  H205     1.0000 0.79410  0.37200  0.54530  Biso   1.000  H
  H206     1.0000 0.29410  0.87200  0.45470  Biso   1.000  H
  H207     1.0000 0.79410  0.12800  0.04530  Biso   1.000  H
  H208     1.0000 0.70590  0.37200  0.04530  Biso   1.000  H
  H209     1.0000 0.24800  0.68730  0.49400  Biso   1.000  H
  H210     1.0000 0.74800  0.18730  0.50600  Biso   1.000  H
  H211     1.0000 0.24800  0.81270  0.99400  Biso   1.000  H
  H212     1.0000 0.25200  0.68730  0.99400  Biso   1.000  H
  H213     1.0000 0.75200  0.31270  0.50600  Biso   1.000  H
  H214     1.0000 0.25200  0.81270  0.49400  Biso   1.000  H
  H215     1.0000 0.75200  0.18730  0.00600  Biso   1.000  H
  H216     1.0000 0.74800  0.31270  0.00600  Biso   1.000  H
  N129     1.0000 0.06580  0.27700  0.92680  Biso   1.000  N
  N130     1.0000 0.56580  0.77700  0.07320  Biso   1.000  N
  N131     1.0000 0.06580  0.22300  0.42680  Biso   1.000  N
  N132     1.0000 0.43420  0.27700  0.42680  Biso   1.000  N
  N133     1.0000 0.93420  0.72300  0.07320  Biso   1.000  N
  N134     1.0000 0.43420  0.22300  0.92680  Biso   1.000  N
  N135     1.0000 0.93420  0.77700  0.57320  Biso   1.000  N
  N136     1.0000 0.56580  0.72300  0.57320  Biso   1.000  N
  C97      1.0000 0.09330  0.21930  0.90680  Biso   1.000  C
  C98      1.0000 0.59330  0.71930  0.09320  Biso   1.000  C
  C99      1.0000 0.09330  0.28070  0.40680  Biso   1.000  C
  C100     1.0000 0.40670  0.21930  0.40680  Biso   1.000  C
  C101     1.0000 0.90670  0.78070  0.09320  Biso   1.000  C
  C102     1.0000 0.40670  0.28070  0.90680  Biso   1.000  C
  C103     1.0000 0.90670  0.71930  0.59320  Biso   1.000  C
  C104     1.0000 0.59330  0.78070  0.59320  Biso   1.000  C
  H217     1.0000 0.14140  0.22130  0.89190  Biso   1.000  H
  H218     1.0000 0.64140  0.72130  0.10810  Biso   1.000  H
  H219     1.0000 0.14140  0.27870  0.39190  Biso   1.000  H
  H220     1.0000 0.35860  0.22130  0.39190  Biso   1.000  H
  H221     1.0000 0.85860  0.77870  0.10810  Biso   1.000  H
  H222     1.0000 0.35860  0.27870  0.89190  Biso   1.000  H
  H223     1.0000 0.85860  0.72130  0.60810  Biso   1.000  H
  H224     1.0000 0.64140  0.77870  0.60810  Biso   1.000  H
  N137     1.0000 0.04420  0.17240  0.92250  Biso   1.000  N
  N138     1.0000 0.54420  0.67240  0.07750  Biso   1.000  N
  N139     1.0000 0.04420  0.32760  0.42250  Biso   1.000  N
  N140     1.0000 0.45580  0.17240  0.42250  Biso   1.000  N
  N141     1.0000 0.95580  0.82760  0.07750  Biso   1.000  N
  N142     1.0000 0.45580  0.32760  0.92250  Biso   1.000  N
  N143     1.0000 0.95580  0.67240  0.57750  Biso   1.000  N
  N144     1.0000 0.54420  0.82760  0.57750  Biso   1.000  N
  N145     1.0000 0.97990  0.20010  0.95740  Biso   1.000  N
  N146     1.0000 0.47990  0.70010  0.04260  Biso   1.000  N
  N147     1.0000 0.97990  0.29990  0.45740  Biso   1.000  N
  N148     1.0000 0.52010  0.20010  0.45740  Biso   1.000  N
  N149     1.0000 0.02010  0.79990  0.04260  Biso   1.000  N
  N150     1.0000 0.52010  0.29990  0.95740  Biso   1.000  N
  N151     1.0000 0.02010  0.70010  0.54260  Biso   1.000  N
  N152     1.0000 0.47990  0.79990  0.54260  Biso   1.000  N
  N153     1.0000 0.99390  0.26310  0.95900  Biso   1.000  N
  N154     1.0000 0.49390  0.76310  0.04100  Biso   1.000  N
  N155     1.0000 0.99390  0.23690  0.45900  Biso   1.000  N
  N156     1.0000 0.50610  0.26310  0.45900  Biso   1.000  N
  N157     1.0000 0.00610  0.73690  0.04100  Biso   1.000  N
  N158     1.0000 0.50610  0.23690  0.95900  Biso   1.000  N
  N159     1.0000 0.00610  0.76310  0.54100  Biso   1.000  N
  N160     1.0000 0.49390  0.73690  0.54100  Biso   1.000  N
  C105     1.0000 0.05410  0.10100  0.91020  Biso   1.000  C
  C106     1.0000 0.55410  0.60100  0.08980  Biso   1.000  C
  C107     1.0000 0.05410  0.39900  0.41020  Biso   1.000  C
  C108     1.0000 0.44590  0.10100  0.41020  Biso   1.000  C
  C109     1.0000 0.94590  0.89900  0.08980  Biso   1.000  C
  C110     1.0000 0.44590  0.39900  0.91020  Biso   1.000  C
  C111     1.0000 0.94590  0.60100  0.58980  Biso   1.000  C
  C112     1.0000 0.55410  0.89900  0.58980  Biso   1.000  C
  H225     1.0000 0.09510  0.09490  0.87320  Biso   1.000  H
  H226     1.0000 0.59510  0.59490  0.12680  Biso   1.000  H
  H227     1.0000 0.09510  0.40510  0.37320  Biso   1.000  H
  H228     1.0000 0.40490  0.09490  0.37320  Biso   1.000  H
  H229     1.0000 0.90490  0.90510  0.12680  Biso   1.000  H
  H230     1.0000 0.40490  0.40510  0.87320  Biso   1.000  H
  H231     1.0000 0.90490  0.59490  0.62680  Biso   1.000  H
  H232     1.0000 0.59510  0.90510  0.62680  Biso   1.000  H
  H233     1.0000 0.99880  0.08360  0.89500  Biso   1.000  H
  H234     1.0000 0.49880  0.58360  0.10500  Biso   1.000  H
  H235     1.0000 0.99880  0.41640  0.39500  Biso   1.000  H
  H236     1.0000 0.50120  0.08360  0.39500  Biso   1.000  H
  H237     1.0000 0.00120  0.91640  0.10500  Biso   1.000  H
  H238     1.0000 0.50120  0.41640  0.89500  Biso   1.000  H
  H239     1.0000 0.00120  0.58360  0.60500  Biso   1.000  H
  H240     1.0000 0.49880  0.91640  0.60500  Biso   1.000  H
  C113     1.0000 0.08170  0.06350  0.96550  Biso   1.000  C
  C114     1.0000 0.58170  0.56350  0.03450  Biso   1.000  C
  C115     1.0000 0.08170  0.43650  0.46550  Biso   1.000  C
  C116     1.0000 0.41830  0.06350  0.46550  Biso   1.000  C
  C117     1.0000 0.91830  0.93650  0.03450  Biso   1.000  C
  C118     1.0000 0.41830  0.43650  0.96550  Biso   1.000  C
  C119     1.0000 0.91830  0.56350  0.53450  Biso   1.000  C
  C120     1.0000 0.58170  0.93650  0.53450  Biso   1.000  C
  H241     1.0000 0.08330  0.01760  0.95290  Biso   1.000  H
  H242     1.0000 0.58330  0.51760  0.04710  Biso   1.000  H
  H243     1.0000 0.08330  0.48240  0.45290  Biso   1.000  H
  H244     1.0000 0.41670  0.01760  0.45290  Biso   1.000  H
  H245     1.0000 0.91670  0.98240  0.04710  Biso   1.000  H
  H246     1.0000 0.41670  0.48240  0.95290  Biso   1.000  H
  H247     1.0000 0.91670  0.51760  0.54710  Biso   1.000  H
  H248     1.0000 0.58330  0.98240  0.54710  Biso   1.000  H
  H249     1.0000 0.13860  0.07760  0.97890  Biso   1.000  H
  H250     1.0000 0.63860  0.57760  0.02110  Biso   1.000  H
  H251     1.0000 0.13860  0.42240  0.47890  Biso   1.000  H
  H252     1.0000 0.36140  0.07760  0.47890  Biso   1.000  H
  H253     1.0000 0.86140  0.92240  0.02110  Biso   1.000  H
  H254     1.0000 0.36140  0.42240  0.97890  Biso   1.000  H
  H255     1.0000 0.86140  0.57760  0.52110  Biso   1.000  H
  H256     1.0000 0.63860  0.92240  0.52110  Biso   1.000  H
  H257     1.0000 0.04230  0.06940  0.00290  Biso   1.000  H
  H258     1.0000 0.54230  0.56940  0.99710  Biso   1.000  H
  H259     1.0000 0.04230  0.43060  0.50290  Biso   1.000  H
  H260     1.0000 0.45770  0.06940  0.50290  Biso   1.000  H
  H261     1.0000 0.95770  0.93060  0.99710  Biso   1.000  H
  H262     1.0000 0.45770  0.43060  0.00290  Biso   1.000  H
  H263     1.0000 0.95770  0.56940  0.49710  Biso   1.000  H
  H264     1.0000 0.54230  0.93060  0.49710  Biso   1.000  H
